TITL C-2622965-4321-821 -0.00368002809693291 125000 -245.969732570567 0 0 46 (C1) n - 1
REM
REM in /nfs/bkarasulu/CARBON/AIRSS/Generating-Clusters/AIREBO/with-SteepDescent/Higher-Symm/SD-CG/HFTN-CG
REM
REM
REM
REM
REM
REM ./C.cell (b20cbc046b6831c77cfcea5457e17084)
REM
REM compiler GCC version 9.2.1 20190827 (Red Hat 9.2.1-1)
REM options -cpp -mtune=generic -march=x86-64 -g -O0 -fpre-include=/usr/include/finclude/math-vector-fortran.h
REM seed -1255413310 -1045398745 -460957096 -228594545 942852900 1273087517 -952804436 1366033467 -32344591 -262743576 1210545267 389362481 1830909712 1502054749 -1426270058 -713307200 -781115976 -371073471 -341583918 -1620898710 1355758896 808659452 2070133306 1745349470 -1339262424 1869428751 251513633 1447826571 416100787 -174776714 2001900581 -678202077 -1768672171
REM
CELL 1.54180   50.00000   50.00000   50.00000   90.00000   90.00000   90.00000
LATT -1
SFAC C  
C      1  0.5365520000000  0.5238170000000  0.4780360000000 1.0
C      1  0.5481160000000  0.4925470000000  0.4705360000000 1.0
C      1  0.5427170000000  0.4737330000000  0.4974490000000 1.0
C      1  0.5292470000000  0.4926220000000  0.5239040000000 1.0
C      1  0.5429340000000  0.5127730000000  0.5054850000000 1.0
C      1  0.4621970000000  0.5201020000000  0.4995040000000 1.0
C      1  0.4506410000000  0.5000250000000  0.4799830000000 1.0
C      1  0.4595200000000  0.4768240000000  0.4977580000000 1.0
C      1  0.4617050000000  0.4836650000000  0.5258990000000 1.0
C      1  0.4634250000000  0.5120800000000  0.5265820000000 1.0
C      1  0.5162600000000  0.5664770000000  0.5025240000000 1.0
C      1  0.5114650000000  0.5219810000000  0.4289800000000 1.0
C      1  0.5165390000000  0.4454170000000  0.4543650000000 1.0
C      1  0.5123270000000  0.4400450000000  0.5429110000000 1.0
C      1  0.5113670000000  0.5193800000000  0.5744120000000 1.0
C      1  0.4850380000000  0.5632780000000  0.4953070000000 1.0
C      1  0.4829860000000  0.5240840000000  0.4347660000000 1.0
C      1  0.4899860000000  0.4510800000000  0.4597890000000 1.0
C      1  0.4838110000000  0.4433720000000  0.5439320000000 1.0
C      1  0.4815130000000  0.5228940000000  0.5784500000000 1.0
C      1  0.5214750000000  0.4900850000000  0.5798680000000 1.0
C      1  0.5164590000000  0.5616610000000  0.5311350000000 1.0
C      1  0.5242780000000  0.5495390000000  0.4261890000000 1.0
C      1  0.5295110000000  0.4695940000000  0.4372200000000 1.0
C      1  0.5196600000000  0.4207330000000  0.5189100000000 1.0
C      1  0.4692540000000  0.4984120000000  0.5883280000000 1.0
C      1  0.4714690000000  0.5665610000000  0.5211180000000 1.0
C      1  0.4803400000000  0.5518570000000  0.4437730000000 1.0
C      1  0.4765290000000  0.4650480000000  0.4379000000000 1.0
C      1  0.4719160000000  0.4270860000000  0.5213170000000 1.0
C      1  0.5162060000000  0.5464650000000  0.4772170000000 1.0
C      1  0.5271150000000  0.5068090000000  0.4509770000000 1.0
C      1  0.5438170000000  0.4598260000000  0.4669380000000 1.0
C      1  0.5243110000000  0.4599470000000  0.5194280000000 1.0
C      1  0.5112090000000  0.5040630000000  0.5440570000000 1.0
C      1  0.4896820000000  0.5307210000000  0.4887360000000 1.0
C      1  0.4717140000000  0.5015140000000  0.4533300000000 1.0
C      1  0.4861450000000  0.4638430000000  0.4865570000000 1.0
C      1  0.4750080000000  0.4695710000000  0.5459730000000 1.0
C      1  0.4841820000000  0.5249650000000  0.5457660000000 1.0
C      1  0.4898710000000  0.5540120000000  0.5397860000000 1.0
C      1  0.4908330000000  0.4865150000000  0.5648760000000 1.0
C      1  0.4972410000000  0.4441110000000  0.5062960000000 1.0
C      1  0.5083260000000  0.5586520000000  0.4503150000000 1.0
C      1  0.5014450000000  0.4867650000000  0.4458960000000 1.0
C      1  0.4898540000000  0.4973720000000  0.4817930000000 1.0
END
