TITL C-2622965-4321-705 0.00103384876196988 125000 -649.335574128436 0 0 117 (C1) n - 1
REM
REM in /nfs/bkarasulu/CARBON/AIRSS/Generating-Clusters/AIREBO/with-SteepDescent/Higher-Symm/SD-CG/HFTN-CG
REM
REM
REM
REM
REM
REM ./C.cell (b20cbc046b6831c77cfcea5457e17084)
REM
REM compiler GCC version 9.2.1 20190827 (Red Hat 9.2.1-1)
REM options -cpp -mtune=generic -march=x86-64 -g -O0 -fpre-include=/usr/include/finclude/math-vector-fortran.h
REM seed -527142922 1961487601 2101216507 1124914007 -1843410669 -1965092575 -1481518646 1402779914 -1872123783 -1918911670 -512233135 1640163959 1647510515 395098630 2070760799 1878165530 -1847271612 285037368 1866183843 -1254678109 -1045173505 1027783610 324981638 673805512 -1660230616 1255935331 1689452419 -147473240 1870960361 1014882208 735558362 376895737 -702705416
REM
CELL 1.54180   50.00000   50.00000   50.00000   90.00000   90.00000   90.00000
LATT -1
SFAC C  
C      1  0.4966650000000  0.4923780000000  0.5582610000000 1.0
C      1  0.4537260000000  0.4922270000000  0.4662860000000 1.0
C      1  0.5601420000000  0.4824730000000  0.4758880000000 1.0
C      1  0.5121450000000  0.5187460000000  0.5592080000000 1.0
C      1  0.5510100000000  0.5068060000000  0.4616210000000 1.0
C      1  0.4407400000000  0.5152350000000  0.4815160000000 1.0
C      1  0.5577260000000  0.5759430000000  0.4922240000000 1.0
C      1  0.4718200000000  0.5759290000000  0.5577940000000 1.0
C      1  0.4702350000000  0.5822280000000  0.4535220000000 1.0
C      1  0.4443600000000  0.4240560000000  0.4977630000000 1.0
C      1  0.5273870000000  0.4263160000000  0.5512630000000 1.0
C      1  0.5286630000000  0.4162110000000  0.4457120000000 1.0
C      1  0.4774090000000  0.4377610000000  0.4343520000000 1.0
C      1  0.5630610000000  0.4349530000000  0.5080820000000 1.0
C      1  0.4587940000000  0.4348830000000  0.5450090000000 1.0
C      1  0.5209800000000  0.5632670000000  0.4327300000000 1.0
C      1  0.4358600000000  0.5594980000000  0.5141400000000 1.0
C      1  0.5419310000000  0.5636880000000  0.5458360000000 1.0
C      1  0.5168910000000  0.4994860000000  0.4010270000000 1.0
C      1  0.5584920000000  0.4931130000000  0.5687410000000 1.0
C      1  0.4093720000000  0.4903460000000  0.5293380000000 1.0
C      1  0.4694220000000  0.5000590000000  0.4161770000000 1.0
C      1  0.4401030000000  0.5008980000000  0.5706140000000 1.0
C      1  0.5883040000000  0.5050270000000  0.5324220000000 1.0
C      1  0.6001960000000  0.5055080000000  0.5053720000000 1.0
C      1  0.4618760000000  0.5002330000000  0.5882290000000 1.0
C      1  0.4438400000000  0.4970680000000  0.4265340000000 1.0
C      1  0.4025490000000  0.4902970000000  0.5021260000000 1.0
C      1  0.5398980000000  0.4957930000000  0.5903250000000 1.0
C      1  0.5427300000000  0.4994650000000  0.4125760000000 1.0
C      1  0.4476790000000  0.5590080000000  0.4620450000000 1.0
C      1  0.5667160000000  0.5627800000000  0.4621890000000 1.0
C      1  0.4954270000000  0.5541110000000  0.5691100000000 1.0
C      1  0.5520840000000  0.4379800000000  0.4554680000000 1.0
C      1  0.4394510000000  0.4413760000000  0.4703920000000 1.0
C      1  0.5057100000000  0.4367950000000  0.5744100000000 1.0
C      1  0.4829430000000  0.4948160000000  0.4584030000000 1.0
C      1  0.5355690000000  0.4896070000000  0.4982830000000 1.0
C      1  0.4784770000000  0.4918580000000  0.5348840000000 1.0
C      1  0.5192800000000  0.5090590000000  0.4597740000000 1.0
C      1  0.4589760000000  0.5035450000000  0.5041950000000 1.0
C      1  0.5191360000000  0.5083470000000  0.5295020000000 1.0
C      1  0.5271540000000  0.4732180000000  0.6022490000000 1.0
C      1  0.3981750000000  0.4688470000000  0.4840400000000 1.0
C      1  0.5570400000000  0.4752010000000  0.4149070000000 1.0
C      1  0.4725250000000  0.5232770000000  0.6019380000000 1.0
C      1  0.6031830000000  0.5323940000000  0.4910530000000 1.0
C      1  0.4267110000000  0.5199550000000  0.4261520000000 1.0
C      1  0.5625780000000  0.4552670000000  0.4323720000000 1.0
C      1  0.5040990000000  0.4612200000000  0.5931220000000 1.0
C      1  0.4138920000000  0.4579890000000  0.4649620000000 1.0
C      1  0.4363540000000  0.5430850000000  0.4387050000000 1.0
C      1  0.4970820000000  0.5347730000000  0.5923570000000 1.0
C      1  0.5888020000000  0.5493860000000  0.4808770000000 1.0
C      1  0.4826160000000  0.4796520000000  0.5829250000000 1.0
C      1  0.4364680000000  0.4736600000000  0.4472080000000 1.0
C      1  0.5877380000000  0.4820390000000  0.4849080000000 1.0
C      1  0.5229230000000  0.5184390000000  0.5880670000000 1.0
C      1  0.5481400000000  0.5192240000000  0.4316590000000 1.0
C      1  0.4111320000000  0.5136410000000  0.4883760000000 1.0
C      1  0.4566580000000  0.4057850000000  0.4727640000000 1.0
C      1  0.5463740000000  0.4012880000000  0.4693010000000 1.0
C      1  0.5016770000000  0.4057180000000  0.5501740000000 1.0
C      1  0.5443200000000  0.5947760000000  0.4688650000000 1.0
C      1  0.4521180000000  0.5952810000000  0.4774970000000 1.0
C      1  0.4995460000000  0.5927110000000  0.5607640000000 1.0
C      1  0.4424430000000  0.5739380000000  0.5416740000000 1.0
C      1  0.4937160000000  0.5783890000000  0.4306390000000 1.0
C      1  0.5599710000000  0.5785330000000  0.5255980000000 1.0
C      1  0.5561870000000  0.4211070000000  0.5350590000000 1.0
C      1  0.5030710000000  0.4221250000000  0.4256740000000 1.0
C      1  0.4426650000000  0.4198250000000  0.5289210000000 1.0
C      1  0.5150010000000  0.4530400000000  0.5019700000000 1.0
C      1  0.4896880000000  0.4529200000000  0.5229910000000 1.0
C      1  0.4976720000000  0.4534530000000  0.4725000000000 1.0
C      1  0.4784610000000  0.5440230000000  0.5096590000000 1.0
C      1  0.5122170000000  0.5457330000000  0.5059140000000 1.0
C      1  0.5167200000000  0.5465400000000  0.4733290000000 1.0
C      1  0.5577610000000  0.4682820000000  0.5130160000000 1.0
C      1  0.4555530000000  0.4670120000000  0.5374000000000 1.0
C      1  0.4904880000000  0.4694660000000  0.4367640000000 1.0
C      1  0.4445790000000  0.5278060000000  0.5233140000000 1.0
C      1  0.5434900000000  0.5308010000000  0.5371700000000 1.0
C      1  0.5077470000000  0.5320920000000  0.4374470000000 1.0
C      1  0.4370300000000  0.5734400000000  0.4909590000000 1.0
C      1  0.5411120000000  0.5770270000000  0.4448660000000 1.0
C      1  0.5220550000000  0.5736140000000  0.5609350000000 1.0
C      1  0.5623200000000  0.4221170000000  0.4838050000000 1.0
C      1  0.4593670000000  0.4242840000000  0.4492950000000 1.0
C      1  0.4787050000000  0.4231390000000  0.5588840000000 1.0
C      1  0.5068510000000  0.4851840000000  0.4805890000000 1.0
C      1  0.5212690000000  0.4762150000000  0.5260740000000 1.0
C      1  0.4794490000000  0.4767770000000  0.4989380000000 1.0
C      1  0.4938400000000  0.5218790000000  0.4783440000000 1.0
C      1  0.4910860000000  0.5124790000000  0.5109310000000 1.0
C      1  0.5368610000000  0.5235890000000  0.4980990000000 1.0
C      1  0.4262210000000  0.5147980000000  0.5432480000000 1.0
C      1  0.4959210000000  0.5190500000000  0.4133290000000 1.0
C      1  0.5666540000000  0.5171250000000  0.5505770000000 1.0
C      1  0.5710390000000  0.4795100000000  0.5401120000000 1.0
C      1  0.4935430000000  0.4802760000000  0.4075150000000 1.0
C      1  0.4311580000000  0.4780900000000  0.5497070000000 1.0
C      1  0.5413930000000  0.4518310000000  0.5370020000000 1.0
C      1  0.4604380000000  0.4501690000000  0.5082600000000 1.0
C      1  0.5138420000000  0.4467960000000  0.4467370000000 1.0
C      1  0.4664260000000  0.5497460000000  0.5373820000000 1.0
C      1  0.5527830000000  0.5487850000000  0.5107290000000 1.0
C      1  0.4899010000000  0.5545760000000  0.4556840000000 1.0
C      1  0.4591370000000  0.5407830000000  0.4853130000000 1.0
C      1  0.5443040000000  0.5399030000000  0.4589320000000 1.0
C      1  0.5062710000000  0.5448570000000  0.5382350000000 1.0
C      1  0.5404590000000  0.4549820000000  0.4795060000000 1.0
C      1  0.4649590000000  0.4601320000000  0.4659400000000 1.0
C      1  0.4933850000000  0.4598950000000  0.5533550000000 1.0
C      1  0.6186500000000  0.4801820000000  0.4920180000000 1.0
C      1  0.4022270000000  0.5188060000000  0.4149030000000 1.0
C      1  0.4588330000000  0.5347920000000  0.6221690000000 1.0
END
