TITL C-2622960-5345-836 7.55072739933949e-05 125000 -943.147405582262 0 0 165 (C1) n - 1
REM
REM in /nfs/bkarasulu/CARBON/AIRSS/Generating-Clusters/AIREBO/with-SteepDescent/Higher-Symm/SD-CG/HFTN-CG
REM
REM
REM
REM
REM
REM ./C.cell (b20cbc046b6831c77cfcea5457e17084)
REM
REM compiler GCC version 9.2.1 20190827 (Red Hat 9.2.1-1)
REM options -cpp -mtune=generic -march=x86-64 -g -O0 -fpre-include=/usr/include/finclude/math-vector-fortran.h
REM seed 1684373139 915657902 -159329678 843161545 -1570752714 308632972 702901777 -93710883 1305140255 -1698773952 -2016259779 597837123 1595415767 -563815768 805026518 -1755605281 1141345601 1579725899 -1811580706 -1373467851 2003805049 1207230053 2114224379 -1415199592 -314099730 863909474 240096913 1173730507 66868978 1500882003 -641005780 -2020857823 -1518311615
REM
CELL 1.54180   50.00000   50.00000   50.00000   90.00000   90.00000   90.00000
LATT -1
SFAC C  
C      1  0.4049350000000  0.5232800000000  0.4562720000000 1.0
C      1  0.4357760000000  0.5672180000000  0.4541990000000 1.0
C      1  0.4827410000000  0.5941070000000  0.4551170000000 1.0
C      1  0.5339960000000  0.5896490000000  0.4520110000000 1.0
C      1  0.5826430000000  0.5589610000000  0.4544760000000 1.0
C      1  0.5972280000000  0.5081410000000  0.4534390000000 1.0
C      1  0.5885280000000  0.4537390000000  0.4547620000000 1.0
C      1  0.5474370000000  0.4145260000000  0.4542690000000 1.0
C      1  0.4905950000000  0.4038590000000  0.4584000000000 1.0
C      1  0.4438240000000  0.4266140000000  0.4568210000000 1.0
C      1  0.4069640000000  0.4652380000000  0.4569020000000 1.0
C      1  0.4886920000000  0.4436850000000  0.5804760000000 1.0
C      1  0.4600030000000  0.4609550000000  0.5864080000000 1.0
C      1  0.4349020000000  0.4836010000000  0.5843730000000 1.0
C      1  0.4422000000000  0.5166390000000  0.5878020000000 1.0
C      1  0.4590720000000  0.5442440000000  0.5772820000000 1.0
C      1  0.4846260000000  0.5361480000000  0.5954870000000 1.0
C      1  0.5100910000000  0.5394250000000  0.5829600000000 1.0
C      1  0.5372960000000  0.5232190000000  0.5850390000000 1.0
C      1  0.5542060000000  0.5011940000000  0.5773420000000 1.0
C      1  0.5515300000000  0.4684750000000  0.5761510000000 1.0
C      1  0.5210740000000  0.4540930000000  0.5810460000000 1.0
C      1  0.4678660000000  0.4235390000000  0.5024330000000 1.0
C      1  0.4268760000000  0.4516590000000  0.5034490000000 1.0
C      1  0.4136360000000  0.4978890000000  0.4994620000000 1.0
C      1  0.4266120000000  0.5434660000000  0.5002270000000 1.0
C      1  0.4626470000000  0.5772450000000  0.4998970000000 1.0
C      1  0.5104720000000  0.5828330000000  0.4998950000000 1.0
C      1  0.5561510000000  0.5676050000000  0.4963270000000 1.0
C      1  0.5856560000000  0.5302030000000  0.4993390000000 1.0
C      1  0.5907870000000  0.4792090000000  0.4996310000000 1.0
C      1  0.5593520000000  0.4378080000000  0.4985150000000 1.0
C      1  0.5152730000000  0.4175560000000  0.4993610000000 1.0
C      1  0.6093150000000  0.4302090000000  0.4959020000000 1.0
C      1  0.5550140000000  0.3853800000000  0.4965230000000 1.0
C      1  0.4842180000000  0.3762570000000  0.4981050000000 1.0
C      1  0.4218030000000  0.4012150000000  0.4977080000000 1.0
C      1  0.3755730000000  0.4643580000000  0.4973440000000 1.0
C      1  0.3770760000000  0.5342920000000  0.4955730000000 1.0
C      1  0.4141910000000  0.5939830000000  0.4946800000000 1.0
C      1  0.4809910000000  0.6235050000000  0.4955030000000 1.0
C      1  0.5481200000000  0.6165800000000  0.4961430000000 1.0
C      1  0.6067540000000  0.5756220000000  0.4939630000000 1.0
C      1  0.6317560000000  0.5073520000000  0.4931830000000 1.0
C      1  0.5610980000000  0.4858490000000  0.5056280000000 1.0
C      1  0.5367740000000  0.4623660000000  0.5020090000000 1.0
C      1  0.5065080000000  0.4485690000000  0.4949280000000 1.0
C      1  0.4774930000000  0.4533270000000  0.5084720000000 1.0
C      1  0.4505200000000  0.4714730000000  0.5118760000000 1.0
C      1  0.4458300000000  0.4993030000000  0.4987790000000 1.0
C      1  0.4518920000000  0.5280940000000  0.5112680000000 1.0
C      1  0.4748140000000  0.5493540000000  0.5048040000000 1.0
C      1  0.5080000000000  0.5479790000000  0.5011110000000 1.0
C      1  0.5400740000000  0.5409220000000  0.4935200000000 1.0
C      1  0.5573370000000  0.5173400000000  0.5053130000000 1.0
C      1  0.5498980000000  0.5225090000000  0.4664010000000 1.0
C      1  0.5459230000000  0.4942360000000  0.4541130000000 1.0
C      1  0.5308750000000  0.4755270000000  0.4715280000000 1.0
C      1  0.5136620000000  0.4585650000000  0.4545930000000 1.0
C      1  0.4849370000000  0.4542050000000  0.4684180000000 1.0
C      1  0.4650380000000  0.4774680000000  0.4538040000000 1.0
C      1  0.4577050000000  0.5000880000000  0.4711200000000 1.0
C      1  0.4554880000000  0.5268260000000  0.4579920000000 1.0
C      1  0.4828420000000  0.5409870000000  0.4536980000000 1.0
C      1  0.5065890000000  0.5506500000000  0.4677460000000 1.0
C      1  0.5285380000000  0.5398100000000  0.4505080000000 1.0
C      1  0.5897970000000  0.4473780000000  0.5416360000000 1.0
C      1  0.5492900000000  0.4116530000000  0.5406880000000 1.0
C      1  0.4898720000000  0.4024270000000  0.5435960000000 1.0
C      1  0.4387500000000  0.4208700000000  0.5444810000000 1.0
C      1  0.3987630000000  0.4723680000000  0.5429100000000 1.0
C      1  0.3985780000000  0.5223450000000  0.5433940000000 1.0
C      1  0.4343170000000  0.5785790000000  0.5414540000000 1.0
C      1  0.4854470000000  0.5959790000000  0.5416630000000 1.0
C      1  0.5379650000000  0.5872720000000  0.5413650000000 1.0
C      1  0.5820320000000  0.5618280000000  0.5399730000000 1.0
C      1  0.6059760000000  0.5113310000000  0.5407970000000 1.0
C      1  0.5578960000000  0.5701510000000  0.5522540000000 1.0
C      1  0.5942220000000  0.5398260000000  0.5523720000000 1.0
C      1  0.6057380000000  0.4872240000000  0.5618660000000 1.0
C      1  0.5804720000000  0.4233750000000  0.5567160000000 1.0
C      1  0.5319650000000  0.4095570000000  0.5647320000000 1.0
C      1  0.4641510000000  0.3976590000000  0.5582950000000 1.0
C      1  0.4190490000000  0.4334750000000  0.5601520000000 1.0
C      1  0.3807530000000  0.4926600000000  0.5566120000000 1.0
C      1  0.4036660000000  0.5459260000000  0.5594720000000 1.0
C      1  0.4552060000000  0.5993420000000  0.5541710000000 1.0
C      1  0.5122160000000  0.5835440000000  0.5525940000000 1.0
C      1  0.4322520000000  0.5746290000000  0.5115960000000 1.0
C      1  0.4848750000000  0.5968270000000  0.5114290000000 1.0
C      1  0.5384230000000  0.5905020000000  0.5113380000000 1.0
C      1  0.5841950000000  0.5607800000000  0.5098160000000 1.0
C      1  0.6056830000000  0.5077580000000  0.5109130000000 1.0
C      1  0.5887970000000  0.4487310000000  0.5116380000000 1.0
C      1  0.5459900000000  0.4116770000000  0.5116700000000 1.0
C      1  0.4896970000000  0.4031670000000  0.5134010000000 1.0
C      1  0.4381480000000  0.4220990000000  0.5145100000000 1.0
C      1  0.4020560000000  0.4702840000000  0.5134930000000 1.0
C      1  0.4016640000000  0.5247710000000  0.5129290000000 1.0
C      1  0.5485050000000  0.5346880000000  0.4241460000000 1.0
C      1  0.5571640000000  0.5060160000000  0.4234330000000 1.0
C      1  0.5504660000000  0.4740780000000  0.4273350000000 1.0
C      1  0.5287730000000  0.4522920000000  0.4255810000000 1.0
C      1  0.4959270000000  0.4460640000000  0.4285970000000 1.0
C      1  0.4690310000000  0.4581360000000  0.4260600000000 1.0
C      1  0.4455090000000  0.4816530000000  0.4262850000000 1.0
C      1  0.4382840000000  0.5098940000000  0.4182790000000 1.0
C      1  0.4598560000000  0.5301950000000  0.4239410000000 1.0
C      1  0.4885550000000  0.5483180000000  0.4216680000000 1.0
C      1  0.5200570000000  0.5514440000000  0.4199090000000 1.0
C      1  0.5086730000000  0.5822050000000  0.4672240000000 1.0
C      1  0.5621070000000  0.5783590000000  0.4674220000000 1.0
C      1  0.5808310000000  0.5297710000000  0.4677790000000 1.0
C      1  0.5985510000000  0.4781060000000  0.4691300000000 1.0
C      1  0.5674130000000  0.4314070000000  0.4691350000000 1.0
C      1  0.5187060000000  0.4059160000000  0.4704980000000 1.0
C      1  0.4706370000000  0.4258270000000  0.4709130000000 1.0
C      1  0.4210630000000  0.4446400000000  0.4730280000000 1.0
C      1  0.4033070000000  0.4958710000000  0.4702380000000 1.0
C      1  0.4285840000000  0.5405660000000  0.4681180000000 1.0
C      1  0.4568900000000  0.5864290000000  0.4711300000000 1.0
C      1  0.4665950000000  0.4315770000000  0.5576240000000 1.0
C      1  0.4227190000000  0.4638280000000  0.5594520000000 1.0
C      1  0.4120190000000  0.5014870000000  0.5666480000000 1.0
C      1  0.4330790000000  0.5532560000000  0.5572040000000 1.0
C      1  0.4699330000000  0.5687760000000  0.5563940000000 1.0
C      1  0.5076780000000  0.5566240000000  0.5598200000000 1.0
C      1  0.5460960000000  0.5482290000000  0.5661630000000 1.0
C      1  0.5752400000000  0.5118310000000  0.5557480000000 1.0
C      1  0.5793820000000  0.4715290000000  0.5568120000000 1.0
C      1  0.5523410000000  0.4423540000000  0.5543870000000 1.0
C      1  0.5054270000000  0.4227150000000  0.5595680000000 1.0
C      1  0.4762080000000  0.5432370000000  0.5391190000000 1.0
C      1  0.5074140000000  0.5385390000000  0.5324110000000 1.0
C      1  0.5330350000000  0.5295330000000  0.5459420000000 1.0
C      1  0.5514060000000  0.5109250000000  0.5348980000000 1.0
C      1  0.5549530000000  0.4795260000000  0.5379720000000 1.0
C      1  0.5308290000000  0.4589860000000  0.5354700000000 1.0
C      1  0.5047460000000  0.4504930000000  0.5447750000000 1.0
C      1  0.4751710000000  0.4583710000000  0.5403210000000 1.0
C      1  0.4494030000000  0.4757460000000  0.5438490000000 1.0
C      1  0.4393380000000  0.5032580000000  0.5503710000000 1.0
C      1  0.4486310000000  0.5285660000000  0.5420430000000 1.0
C      1  0.5536290000000  0.6103590000000  0.4693590000000 1.0
C      1  0.6074530000000  0.5729570000000  0.4686390000000 1.0
C      1  0.6253830000000  0.4979770000000  0.4676940000000 1.0
C      1  0.6002510000000  0.4266570000000  0.4696030000000 1.0
C      1  0.5447040000000  0.3857120000000  0.4704240000000 1.0
C      1  0.4820230000000  0.3770500000000  0.4727320000000 1.0
C      1  0.4184730000000  0.4114100000000  0.4719180000000 1.0
C      1  0.3785780000000  0.4734720000000  0.4710240000000 1.0
C      1  0.3789510000000  0.5352120000000  0.4702240000000 1.0
C      1  0.4247230000000  0.5949600000000  0.4687060000000 1.0
C      1  0.4794900000000  0.6225080000000  0.4701220000000 1.0
C      1  0.5765560000000  0.4609220000000  0.4275240000000 1.0
C      1  0.5416160000000  0.4259610000000  0.4263100000000 1.0
C      1  0.4926780000000  0.4168330000000  0.4297710000000 1.0
C      1  0.4486560000000  0.4359050000000  0.4278470000000 1.0
C      1  0.4183390000000  0.4666130000000  0.4287740000000 1.0
C      1  0.4127450000000  0.5184920000000  0.4260660000000 1.0
C      1  0.4519770000000  0.5618310000000  0.4294310000000 1.0
C      1  0.4770060000000  0.5793450000000  0.4286750000000 1.0
C      1  0.5292470000000  0.5801090000000  0.4225330000000 1.0
C      1  0.5718690000000  0.5523180000000  0.4255530000000 1.0
C      1  0.5868830000000  0.5059210000000  0.4244850000000 1.0
END
