TITL C-2622965-4321-129 -0.000119270112667519 125000 -778.227836433132 0 0 141 (C1) n - 1
REM
REM in /nfs/bkarasulu/CARBON/AIRSS/Generating-Clusters/AIREBO/with-SteepDescent/Higher-Symm/SD-CG/HFTN-CG
REM
REM
REM
REM
REM
REM ./C.cell (b20cbc046b6831c77cfcea5457e17084)
REM
REM compiler GCC version 9.2.1 20190827 (Red Hat 9.2.1-1)
REM options -cpp -mtune=generic -march=x86-64 -g -O0 -fpre-include=/usr/include/finclude/math-vector-fortran.h
REM seed -834970853 -915007497 2038892512 1541060522 1423860499 -1270544644 1905742476 -623527535 -1821899458 -870110231 -1728394469 -1488358347 1347338783 -1319954376 -1062858984 1551120271 -2020333399 1841866568 520273564 -683627358 1273273401 994999664 651038251 876985151 -311397299 945437637 -1338477174 -151944695 -1588099861 -1129119154 1685300468 2021443650 1346496735
REM
CELL 1.54180   50.00000   50.00000   50.00000   90.00000   90.00000   90.00000
LATT -1
SFAC C  
C      1  0.4228090000000  0.4613960000000  0.4298730000000 1.0
C      1  0.4292060000000  0.5877190000000  0.5147560000000 1.0
C      1  0.4276990000000  0.4571840000000  0.5504440000000 1.0
C      1  0.4645670000000  0.5577660000000  0.4121650000000 1.0
C      1  0.4643730000000  0.5427080000000  0.5960510000000 1.0
C      1  0.4646340000000  0.3962880000000  0.4883160000000 1.0
C      1  0.5259330000000  0.4623960000000  0.4348050000000 1.0
C      1  0.5227400000000  0.5713310000000  0.4960450000000 1.0
C      1  0.5239980000000  0.4640560000000  0.5662010000000 1.0
C      1  0.4426780000000  0.5345090000000  0.4649130000000 1.0
C      1  0.4275360000000  0.5079660000000  0.5490070000000 1.0
C      1  0.4342380000000  0.4777810000000  0.4906540000000 1.0
C      1  0.5277200000000  0.5318140000000  0.5572850000000 1.0
C      1  0.5323750000000  0.4416540000000  0.4923360000000 1.0
C      1  0.5297580000000  0.5222300000000  0.4482130000000 1.0
C      1  0.6022970000000  0.5572930000000  0.5046440000000 1.0
C      1  0.6146720000000  0.4630990000000  0.5523310000000 1.0
C      1  0.6113730000000  0.4733640000000  0.4725920000000 1.0
C      1  0.5012370000000  0.4969160000000  0.5655620000000 1.0
C      1  0.5049630000000  0.4441300000000  0.4633170000000 1.0
C      1  0.5022170000000  0.5482620000000  0.4709800000000 1.0
C      1  0.4580990000000  0.5316990000000  0.5222350000000 1.0
C      1  0.4568290000000  0.4631820000000  0.5095710000000 1.0
C      1  0.4533290000000  0.5055060000000  0.4551950000000 1.0
C      1  0.4616170000000  0.5644550000000  0.5785360000000 1.0
C      1  0.4621450000000  0.4061350000000  0.5150180000000 1.0
C      1  0.4626220000000  0.5283240000000  0.4069580000000 1.0
C      1  0.5428540000000  0.4550140000000  0.5180740000000 1.0
C      1  0.5547260000000  0.5009800000000  0.4558850000000 1.0
C      1  0.5422350000000  0.5346160000000  0.5266560000000 1.0
C      1  0.5694310000000  0.3932220000000  0.4571790000000 1.0
C      1  0.5556800000000  0.5886920000000  0.4245360000000 1.0
C      1  0.5717250000000  0.5207250000000  0.6009040000000 1.0
C      1  0.4224490000000  0.5266090000000  0.4412840000000 1.0
C      1  0.4217090000000  0.5401420000000  0.5585240000000 1.0
C      1  0.4095360000000  0.4269910000000  0.5126540000000 1.0
C      1  0.4648430000000  0.4240790000000  0.4476860000000 1.0
C      1  0.4549770000000  0.5643700000000  0.4647460000000 1.0
C      1  0.4623300000000  0.4936330000000  0.5870530000000 1.0
C      1  0.5894380000000  0.4578010000000  0.5300650000000 1.0
C      1  0.5933630000000  0.4937960000000  0.4522330000000 1.0
C      1  0.5812280000000  0.5424390000000  0.5266340000000 1.0
C      1  0.5046540000000  0.4455740000000  0.5871840000000 1.0
C      1  0.5028640000000  0.4621970000000  0.4104960000000 1.0
C      1  0.4993480000000  0.5942410000000  0.4990910000000 1.0
C      1  0.5488540000000  0.5370100000000  0.4721870000000 1.0
C      1  0.5517820000000  0.5082270000000  0.5548550000000 1.0
C      1  0.5517900000000  0.4583960000000  0.4697550000000 1.0
C      1  0.4826550000000  0.4957570000000  0.5371110000000 1.0
C      1  0.4946250000000  0.4747570000000  0.4732400000000 1.0
C      1  0.4834920000000  0.5418630000000  0.4934210000000 1.0
C      1  0.4508800000000  0.5335000000000  0.4943690000000 1.0
C      1  0.4547210000000  0.5075500000000  0.5356140000000 1.0
C      1  0.4627690000000  0.4721890000000  0.4775760000000 1.0
C      1  0.4972220000000  0.5303220000000  0.4425270000000 1.0
C      1  0.4948980000000  0.5281280000000  0.5583660000000 1.0
C      1  0.5002160000000  0.4305620000000  0.4918620000000 1.0
C      1  0.5233550000000  0.4124860000000  0.5189110000000 1.0
C      1  0.5279260000000  0.5171990000000  0.4080400000000 1.0
C      1  0.5143480000000  0.5681230000000  0.5673490000000 1.0
C      1  0.5226550000000  0.5900170000000  0.5237460000000 1.0
C      1  0.5253530000000  0.4304800000000  0.5642930000000 1.0
C      1  0.5352620000000  0.4697430000000  0.4044370000000 1.0
C      1  0.5072820000000  0.5617030000000  0.4340220000000 1.0
C      1  0.5165590000000  0.5168890000000  0.6088060000000 1.0
C      1  0.5214240000000  0.4007230000000  0.4401280000000 1.0
C      1  0.4798340000000  0.5857840000000  0.4744140000000 1.0
C      1  0.4841900000000  0.4689300000000  0.5878950000000 1.0
C      1  0.4843950000000  0.4450460000000  0.4292940000000 1.0
C      1  0.5252800000000  0.5453550000000  0.5872780000000 1.0
C      1  0.5343220000000  0.4093270000000  0.4907010000000 1.0
C      1  0.5392230000000  0.5404970000000  0.4228490000000 1.0
C      1  0.4652860000000  0.4625710000000  0.5624700000000 1.0
C      1  0.4650340000000  0.4638390000000  0.4487700000000 1.0
C      1  0.4693920000000  0.5681280000000  0.5015300000000 1.0
C      1  0.5839360000000  0.5240850000000  0.4647870000000 1.0
C      1  0.5799980000000  0.5119040000000  0.5416030000000 1.0
C      1  0.5919720000000  0.4658940000000  0.4999180000000 1.0
C      1  0.4872500000000  0.4444700000000  0.5438560000000 1.0
C      1  0.4591970000000  0.4732230000000  0.4166030000000 1.0
C      1  0.4765430000000  0.5769320000000  0.5323490000000 1.0
C      1  0.4903070000000  0.4201160000000  0.5213890000000 1.0
C      1  0.4939220000000  0.5157910000000  0.4119490000000 1.0
C      1  0.4861690000000  0.5725500000000  0.5645850000000 1.0
C      1  0.4871980000000  0.6073700000000  0.5264990000000 1.0
C      1  0.4931710000000  0.4197640000000  0.5666350000000 1.0
C      1  0.4858220000000  0.4869680000000  0.4024490000000 1.0
C      1  0.4067100000000  0.4813540000000  0.5028500000000 1.0
C      1  0.4060440000000  0.5133980000000  0.4914910000000 1.0
C      1  0.4035140000000  0.5063800000000  0.5247120000000 1.0
C      1  0.5334780000000  0.5775920000000  0.5469230000000 1.0
C      1  0.5399400000000  0.4217290000000  0.5399160000000 1.0
C      1  0.5478350000000  0.4952460000000  0.4076800000000 1.0
C      1  0.4773830000000  0.4156440000000  0.4714610000000 1.0
C      1  0.4695690000000  0.5499420000000  0.4398010000000 1.0
C      1  0.4732410000000  0.5194690000000  0.5830490000000 1.0
C      1  0.5365310000000  0.4371010000000  0.4528280000000 1.0
C      1  0.5318260000000  0.5633960000000  0.4660370000000 1.0
C      1  0.5333800000000  0.4922760000000  0.5756510000000 1.0
C      1  0.4400680000000  0.4471040000000  0.5287130000000 1.0
C      1  0.4375520000000  0.4910000000000  0.4314270000000 1.0
C      1  0.4431030000000  0.5787250000000  0.5381160000000 1.0
C      1  0.4837810000000  0.5437200000000  0.5333330000000 1.0
C      1  0.4827800000000  0.4681470000000  0.5235190000000 1.0
C      1  0.4839370000000  0.5040210000000  0.4595350000000 1.0
C      1  0.4379610000000  0.5633280000000  0.5614190000000 1.0
C      1  0.4379130000000  0.4189800000000  0.5206840000000 1.0
C      1  0.4378010000000  0.5188230000000  0.4166330000000 1.0
C      1  0.5596460000000  0.5106710000000  0.5160130000000 1.0
C      1  0.5603460000000  0.4778220000000  0.5036930000000 1.0
C      1  0.5672750000000  0.5036770000000  0.4838730000000 1.0
C      1  0.5693510000000  0.4948060000000  0.4281160000000 1.0
C      1  0.5554550000000  0.5613620000000  0.5382030000000 1.0
C      1  0.5648630000000  0.4395050000000  0.5347230000000 1.0
C      1  0.3962860000000  0.5317990000000  0.5449430000000 1.0
C      1  0.3980850000000  0.4520290000000  0.5098740000000 1.0
C      1  0.4055440000000  0.5197060000000  0.4656460000000 1.0
C      1  0.5016060000000  0.4955890000000  0.5994120000000 1.0
C      1  0.5032230000000  0.4205710000000  0.4388070000000 1.0
C      1  0.4916420000000  0.5827610000000  0.4447370000000 1.0
C      1  0.5755860000000  0.5416400000000  0.4926860000000 1.0
C      1  0.5959990000000  0.4875680000000  0.5451390000000 1.0
C      1  0.5785730000000  0.4682140000000  0.4694200000000 1.0
C      1  0.4952700000000  0.5125210000000  0.4875220000000 1.0
C      1  0.5020560000000  0.5181210000000  0.5203690000000 1.0
C      1  0.5083720000000  0.4746910000000  0.5039300000000 1.0
C      1  0.5213290000000  0.5425950000000  0.5062850000000 1.0
C      1  0.5209640000000  0.4684470000000  0.5349060000000 1.0
C      1  0.5252430000000  0.4876880000000  0.4513450000000 1.0
C      1  0.4607230000000  0.4772140000000  0.3842670000000 1.0
C      1  0.4858080000000  0.6303920000000  0.5376200000000 1.0
C      1  0.4674510000000  0.4343320000000  0.5768900000000 1.0
C      1  0.5386590000000  0.5697340000000  0.4342150000000 1.0
C      1  0.5455850000000  0.5187980000000  0.5930790000000 1.0
C      1  0.5451370000000  0.4057360000000  0.4610790000000 1.0
C      1  0.4387410000000  0.4836400000000  0.5652480000000 1.0
C      1  0.4422250000000  0.4434570000000  0.4381090000000 1.0
C      1  0.4418600000000  0.5819710000000  0.4907140000000 1.0
C      1  0.5261480000000  0.4991380000000  0.5344510000000 1.0
C      1  0.5329800000000  0.4828250000000  0.4840990000000 1.0
C      1  0.5280610000000  0.5151550000000  0.4874830000000 1.0
END
