TITL C-2622960-5345-464 0.00212442060710655 125000 -505.036095300339 0 0 87 (C1) n - 1
REM
REM in /nfs/bkarasulu/CARBON/AIRSS/Generating-Clusters/AIREBO/with-SteepDescent/Higher-Symm/SD-CG/HFTN-CG
REM
REM
REM
REM
REM
REM ./C.cell (b20cbc046b6831c77cfcea5457e17084)
REM
REM compiler GCC version 9.2.1 20190827 (Red Hat 9.2.1-1)
REM options -cpp -mtune=generic -march=x86-64 -g -O0 -fpre-include=/usr/include/finclude/math-vector-fortran.h
REM seed 393490030 -844647824 -901577941 -209174867 399241758 -1283977981 644074498 -1382653280 -842898172 -1395474945 1410763257 737165359 -2105454843 1267190566 -964441834 -1874558761 1512160145 1574780816 438256460 -1337390566 -1357731602 145716087 1029773842 1548089512 1093257939 -1396800047 -1955736939 -1139185316 -34198002 258570496 422229094 -932273092 522407602
REM
CELL 1.54180   50.00000   50.00000   50.00000   90.00000   90.00000   90.00000
LATT -1
SFAC C  
C      1  0.4892370000000  0.5680030000000  0.4739640000000 1.0
C      1  0.5515550000000  0.5754860000000  0.4865810000000 1.0
C      1  0.5359510000000  0.5743660000000  0.5104260000000 1.0
C      1  0.4803080000000  0.5741060000000  0.5222490000000 1.0
C      1  0.4677690000000  0.5700430000000  0.4954130000000 1.0
C      1  0.4912660000000  0.4271760000000  0.4724970000000 1.0
C      1  0.5321810000000  0.4198340000000  0.5019770000000 1.0
C      1  0.5430450000000  0.4125180000000  0.5272490000000 1.0
C      1  0.4729190000000  0.4205190000000  0.5190810000000 1.0
C      1  0.4657030000000  0.4260430000000  0.4893140000000 1.0
C      1  0.5447240000000  0.5607100000000  0.5365230000000 1.0
C      1  0.4670980000000  0.5652840000000  0.5439750000000 1.0
C      1  0.4439010000000  0.5550400000000  0.4960050000000 1.0
C      1  0.4861970000000  0.5551770000000  0.4488700000000 1.0
C      1  0.5542640000000  0.5535170000000  0.4706840000000 1.0
C      1  0.5499880000000  0.4336970000000  0.5432490000000 1.0
C      1  0.4689870000000  0.4356740000000  0.5439900000000 1.0
C      1  0.4461030000000  0.4456130000000  0.4846990000000 1.0
C      1  0.4922450000000  0.4427250000000  0.4490880000000 1.0
C      1  0.5467540000000  0.4371900000000  0.4840200000000 1.0
C      1  0.5872980000000  0.4823740000000  0.5073120000000 1.0
C      1  0.5323180000000  0.4806990000000  0.5825980000000 1.0
C      1  0.4280450000000  0.4887380000000  0.5375070000000 1.0
C      1  0.4378700000000  0.4923100000000  0.4392920000000 1.0
C      1  0.5350410000000  0.4889030000000  0.4255670000000 1.0
C      1  0.5781490000000  0.5135720000000  0.5135480000000 1.0
C      1  0.5292870000000  0.5052550000000  0.5807010000000 1.0
C      1  0.4337080000000  0.5112690000000  0.5522030000000 1.0
C      1  0.4245040000000  0.5150970000000  0.4473970000000 1.0
C      1  0.5261440000000  0.5129140000000  0.4146660000000 1.0
C      1  0.5341140000000  0.4885520000000  0.4918260000000 1.0
C      1  0.5195890000000  0.4727230000000  0.5309320000000 1.0
C      1  0.4860570000000  0.4895630000000  0.5178290000000 1.0
C      1  0.4612010000000  0.4825040000000  0.4875720000000 1.0
C      1  0.4980790000000  0.4856990000000  0.4627360000000 1.0
C      1  0.5314520000000  0.5166040000000  0.4911510000000 1.0
C      1  0.5150690000000  0.4959480000000  0.5445120000000 1.0
C      1  0.4828330000000  0.5140660000000  0.5265250000000 1.0
C      1  0.4598310000000  0.5107120000000  0.4895980000000 1.0
C      1  0.4967940000000  0.5133370000000  0.4631790000000 1.0
C      1  0.5080550000000  0.5260730000000  0.5359130000000 1.0
C      1  0.4614140000000  0.5240180000000  0.5139910000000 1.0
C      1  0.4717010000000  0.5234280000000  0.4682140000000 1.0
C      1  0.5212420000000  0.5251420000000  0.4670970000000 1.0
C      1  0.5225070000000  0.5370240000000  0.5134150000000 1.0
C      1  0.4974360000000  0.4517960000000  0.5213810000000 1.0
C      1  0.4683340000000  0.4636420000000  0.5126120000000 1.0
C      1  0.4735900000000  0.4741560000000  0.4648460000000 1.0
C      1  0.5217440000000  0.4751830000000  0.4708040000000 1.0
C      1  0.5409130000000  0.4734480000000  0.5135020000000 1.0
C      1  0.5322440000000  0.4478530000000  0.4570840000000 1.0
C      1  0.5649560000000  0.4542270000000  0.5239830000000 1.0
C      1  0.4980290000000  0.4495640000000  0.5549790000000 1.0
C      1  0.4352970000000  0.4580240000000  0.5131000000000 1.0
C      1  0.4609530000000  0.4520470000000  0.4427330000000 1.0
C      1  0.5376310000000  0.5404620000000  0.4440540000000 1.0
C      1  0.5556450000000  0.5376820000000  0.5146290000000 1.0
C      1  0.5134060000000  0.5291940000000  0.5673870000000 1.0
C      1  0.4370990000000  0.5413780000000  0.5261010000000 1.0
C      1  0.4551980000000  0.5422560000000  0.4466800000000 1.0
C      1  0.4350230000000  0.4660150000000  0.4597570000000 1.0
C      1  0.5138730000000  0.4637880000000  0.4333070000000 1.0
C      1  0.5711290000000  0.4592580000000  0.4914820000000 1.0
C      1  0.5306470000000  0.4522480000000  0.5642230000000 1.0
C      1  0.4454820000000  0.4603940000000  0.5450690000000 1.0
C      1  0.4337080000000  0.5352420000000  0.4720900000000 1.0
C      1  0.5067160000000  0.5346250000000  0.4311030000000 1.0
C      1  0.5710430000000  0.5301030000000  0.4851930000000 1.0
C      1  0.5317400000000  0.5557140000000  0.5610230000000 1.0
C      1  0.4577370000000  0.5347400000000  0.5523220000000 1.0
C      1  0.4818180000000  0.4729020000000  0.4258300000000 1.0
C      1  0.5596990000000  0.4674430000000  0.4613960000000 1.0
C      1  0.5549390000000  0.4721870000000  0.5508010000000 1.0
C      1  0.4717410000000  0.4685470000000  0.5652500000000 1.0
C      1  0.4183710000000  0.4730830000000  0.4886830000000 1.0
C      1  0.4749360000000  0.5227500000000  0.4284430000000 1.0
C      1  0.5597230000000  0.5174080000000  0.4557830000000 1.0
C      1  0.5337200000000  0.5741690000000  0.5814300000000 1.0
C      1  0.4808300000000  0.5201730000000  0.5679720000000 1.0
C      1  0.4234340000000  0.5218670000000  0.5018310000000 1.0
C      1  0.4752730000000  0.4938600000000  0.5745940000000 1.0
C      1  0.5567160000000  0.4911250000000  0.4450690000000 1.0
C      1  0.5767240000000  0.4896740000000  0.5378700000000 1.0
C      1  0.4171380000000  0.4947330000000  0.5110490000000 1.0
C      1  0.4635960000000  0.4964030000000  0.4255210000000 1.0
C      1  0.5066380000000  0.5651590000000  0.5031570000000 1.0
C      1  0.5029560000000  0.4260190000000  0.5034020000000 1.0
END
