TITL C-2622966-9038-746 0.00376500934247044 125000 -544.484407184134 0 0 106 (C1) n - 1
REM
REM in /nfs/bkarasulu/CARBON/AIRSS/Generating-Clusters/AIREBO/with-SteepDescent/Higher-Symm/SD-CG/HFTN-CG
REM
REM
REM
REM
REM
REM ./C.cell (b20cbc046b6831c77cfcea5457e17084)
REM
REM compiler GCC version 9.2.1 20190827 (Red Hat 9.2.1-1)
REM options -cpp -mtune=generic -march=x86-64 -g -O0 -fpre-include=/usr/include/finclude/math-vector-fortran.h
REM seed -1291605541 -2043613845 -1577990032 1547626835 -1263550982 594385414 84240084 -400785251 1586069180 2113005584 1104051695 -1510134645 922783753 -176926524 1974608339 841215303 -1044608790 -1295028430 705394855 -1840081720 -698421336 -1237453802 1452578877 375084558 297996123 215563085 1630615837 232244350 -2127330836 -673950128 -1605871766 502709258 -1096315568
REM
CELL 1.54180   50.00000   50.00000   50.00000   90.00000   90.00000   90.00000
LATT -1
SFAC C  
C      1  0.4684280000000  0.5470230000000  0.5721400000000 1.0
C      1  0.5467810000000  0.5702140000000  0.4681410000000 1.0
C      1  0.5737340000000  0.4705320000000  0.5503500000000 1.0
C      1  0.5261560000000  0.4532470000000  0.5741380000000 1.0
C      1  0.4709210000000  0.4459590000000  0.4292700000000 1.0
C      1  0.5208970000000  0.5463150000000  0.4316230000000 1.0
C      1  0.4502850000000  0.4255580000000  0.4687910000000 1.0
C      1  0.5463710000000  0.4345860000000  0.5238490000000 1.0
C      1  0.4518880000000  0.5658530000000  0.5230150000000 1.0
C      1  0.4253660000000  0.5281550000000  0.5467710000000 1.0
C      1  0.5691750000000  0.5273330000000  0.4427440000000 1.0
C      1  0.4247970000000  0.4725010000000  0.4483340000000 1.0
C      1  0.4448320000000  0.4919170000000  0.4769750000000 1.0
C      1  0.4885370000000  0.4751480000000  0.4500700000000 1.0
C      1  0.4802110000000  0.4493710000000  0.4882450000000 1.0
C      1  0.5556060000000  0.5006230000000  0.4809820000000 1.0
C      1  0.4479020000000  0.5116590000000  0.5181440000000 1.0
C      1  0.5584150000000  0.4902680000000  0.5194610000000 1.0
C      1  0.5158820000000  0.5205970000000  0.4494870000000 1.0
C      1  0.4949820000000  0.5172250000000  0.5613650000000 1.0
C      1  0.4989930000000  0.4847590000000  0.5606670000000 1.0
C      1  0.5181090000000  0.5521540000000  0.4892730000000 1.0
C      1  0.4785090000000  0.5551880000000  0.5047450000000 1.0
C      1  0.5182700000000  0.4420350000000  0.5061980000000 1.0
C      1  0.4998620000000  0.4250020000000  0.4636720000000 1.0
C      1  0.4252380000000  0.4680520000000  0.5023350000000 1.0
C      1  0.4662840000000  0.5006120000000  0.4288050000000 1.0
C      1  0.4960490000000  0.5765720000000  0.4665530000000 1.0
C      1  0.5043770000000  0.5685720000000  0.5325740000000 1.0
C      1  0.4926660000000  0.4270700000000  0.5321520000000 1.0
C      1  0.5738420000000  0.5304690000000  0.5003280000000 1.0
C      1  0.4252400000000  0.5341510000000  0.4943220000000 1.0
C      1  0.5805600000000  0.4635080000000  0.5008400000000 1.0
C      1  0.5317350000000  0.4939640000000  0.4243930000000 1.0
C      1  0.4671120000000  0.4956850000000  0.5819590000000 1.0
C      1  0.5308720000000  0.5068340000000  0.5752630000000 1.0
C      1  0.4526190000000  0.4723290000000  0.4327310000000 1.0
C      1  0.4727520000000  0.4274900000000  0.4511930000000 1.0
C      1  0.4295370000000  0.4514860000000  0.4730230000000 1.0
C      1  0.5463090000000  0.5247340000000  0.4249080000000 1.0
C      1  0.4511480000000  0.5213760000000  0.5663730000000 1.0
C      1  0.5459930000000  0.4782350000000  0.5645490000000 1.0
C      1  0.5231440000000  0.5687860000000  0.4525490000000 1.0
C      1  0.4754740000000  0.5582070000000  0.5439900000000 1.0
C      1  0.5208720000000  0.4410710000000  0.5450550000000 1.0
C      1  0.5661180000000  0.5439040000000  0.4700040000000 1.0
C      1  0.4287510000000  0.5460010000000  0.5236580000000 1.0
C      1  0.5716170000000  0.4532530000000  0.5268820000000 1.0
C      1  0.4971040000000  0.5319740000000  0.5182800000000 1.0
C      1  0.5306740000000  0.5110570000000  0.5016290000000 1.0
C      1  0.5145920000000  0.5060430000000  0.5285640000000 1.0
C      1  0.4972720000000  0.4647560000000  0.5203650000000 1.0
C      1  0.5041700000000  0.4739660000000  0.4888360000000 1.0
C      1  0.4987110000000  0.5274080000000  0.4848960000000 1.0
C      1  0.4683290000000  0.4842010000000  0.4986000000000 1.0
C      1  0.5323060000000  0.4776210000000  0.5075860000000 1.0
C      1  0.4691490000000  0.5178650000000  0.4938820000000 1.0
C      1  0.4834570000000  0.4952720000000  0.5254090000000 1.0
C      1  0.5184410000000  0.4935610000000  0.4681910000000 1.0
C      1  0.4856870000000  0.5026830000000  0.4681720000000 1.0
C      1  0.5720190000000  0.5184960000000  0.5321260000000 1.0
C      1  0.5175150000000  0.5381080000000  0.5745800000000 1.0
C      1  0.5341460000000  0.5644090000000  0.5166380000000 1.0
C      1  0.4346820000000  0.4829310000000  0.5314290000000 1.0
C      1  0.5695090000000  0.4797960000000  0.4579280000000 1.0
C      1  0.4337510000000  0.5212980000000  0.4639210000000 1.0
C      1  0.4759140000000  0.4639060000000  0.5736090000000 1.0
C      1  0.5177510000000  0.4650410000000  0.4358800000000 1.0
C      1  0.4691700000000  0.5490350000000  0.4301320000000 1.0
C      1  0.4645060000000  0.4352050000000  0.5149180000000 1.0
C      1  0.5490820000000  0.4362550000000  0.4719580000000 1.0
C      1  0.4650420000000  0.5729460000000  0.4800730000000 1.0
C      1  0.5570820000000  0.5185610000000  0.5626770000000 1.0
C      1  0.5247150000000  0.5621260000000  0.5554280000000 1.0
C      1  0.5595330000000  0.5498730000000  0.5243160000000 1.0
C      1  0.4461840000000  0.4760390000000  0.5624050000000 1.0
C      1  0.5561330000000  0.4739170000000  0.4298940000000 1.0
C      1  0.4538840000000  0.5256800000000  0.4366520000000 1.0
C      1  0.4744990000000  0.4340970000000  0.5572060000000 1.0
C      1  0.5249770000000  0.4385430000000  0.4556250000000 1.0
C      1  0.4695720000000  0.5723360000000  0.4456340000000 1.0
C      1  0.4406210000000  0.4488790000000  0.5256270000000 1.0
C      1  0.5707620000000  0.4550410000000  0.4750680000000 1.0
C      1  0.4368760000000  0.5559630000000  0.4714520000000 1.0
C      1  0.5435290000000  0.5831420000000  0.4920650000000 1.0
C      1  0.5899090000000  0.4933630000000  0.5464350000000 1.0
C      1  0.4898940000000  0.5452050000000  0.5894560000000 1.0
C      1  0.4556740000000  0.4138300000000  0.4929610000000 1.0
C      1  0.5482770000000  0.4186340000000  0.4947860000000 1.0
C      1  0.4513020000000  0.5936210000000  0.5034000000000 1.0
C      1  0.4112010000000  0.5041940000000  0.5421710000000 1.0
C      1  0.5848790000000  0.5051070000000  0.4453780000000 1.0
C      1  0.4128080000000  0.4980350000000  0.4506370000000 1.0
C      1  0.5035170000000  0.4536340000000  0.5905980000000 1.0
C      1  0.4947560000000  0.4516560000000  0.4168580000000 1.0
C      1  0.4936650000000  0.5469270000000  0.4150670000000 1.0
C      1  0.5003250000000  0.5009810000000  0.5905280000000 1.0
C      1  0.5011020000000  0.5795410000000  0.5000790000000 1.0
C      1  0.4987610000000  0.4995950000000  0.4305360000000 1.0
C      1  0.4968150000000  0.4210760000000  0.4972190000000 1.0
C      1  0.5837520000000  0.4973690000000  0.4997850000000 1.0
C      1  0.4218490000000  0.5016870000000  0.4986910000000 1.0
C      1  0.4600990000000  0.4641060000000  0.4650880000000 1.0
C      1  0.5371220000000  0.5284170000000  0.4740540000000 1.0
C      1  0.4713190000000  0.5245660000000  0.5391840000000 1.0
C      1  0.5218940000000  0.4747990000000  0.5407700000000 1.0
END
