TITL C-2622957-9142-211 -0.000518237224716426 125000 -838.153787606793 0 0 148 (C1) n - 1
REM
REM in /nfs/bkarasulu/CARBON/AIRSS/Generating-Clusters/AIREBO/with-SteepDescent/Higher-Symm/SD-CG/HFTN-CG
REM
REM
REM
REM
REM
REM ./C.cell (b20cbc046b6831c77cfcea5457e17084)
REM
REM compiler GCC version 9.2.1 20190827 (Red Hat 9.2.1-1)
REM options -cpp -mtune=generic -march=x86-64 -g -O0 -fpre-include=/usr/include/finclude/math-vector-fortran.h
REM seed -1947525232 1958212960 -1153525792 -946260180 1003609655 1202355731 2088985231 220658396 -377432373 1749703184 750898640 -1839197011 2077400829 1816256426 1654286795 1338477053 1830673336 1897457325 -1856989666 -990947698 1378057877 1490129880 1814802790 696714239 2076858239 217898182 -141082865 -2020663257 795561598 92090830 -556022958 1543028806 42835600
REM
CELL 1.54180   50.00000   50.00000   50.00000   90.00000   90.00000   90.00000
LATT -1
SFAC C  
C      1  0.5192040000000  0.5779380000000  0.4273100000000 1.0
C      1  0.5530730000000  0.4591660000000  0.4264440000000 1.0
C      1  0.4278660000000  0.4675920000000  0.4361970000000 1.0
C      1  0.4472940000000  0.4836350000000  0.5444510000000 1.0
C      1  0.5123970000000  0.5514410000000  0.5443780000000 1.0
C      1  0.5377910000000  0.4630340000000  0.5450800000000 1.0
C      1  0.5838260000000  0.5175090000000  0.4912380000000 1.0
C      1  0.4759890000000  0.4198500000000  0.4891030000000 1.0
C      1  0.4440050000000  0.5568500000000  0.4870160000000 1.0
C      1  0.4570860000000  0.4778790000000  0.4209390000000 1.0
C      1  0.5047760000000  0.5501660000000  0.4140130000000 1.0
C      1  0.5394010000000  0.4789880000000  0.4084710000000 1.0
C      1  0.4810180000000  0.4493230000000  0.4798320000000 1.0
C      1  0.4686860000000  0.5361630000000  0.4779940000000 1.0
C      1  0.5568920000000  0.5088290000000  0.4783900000000 1.0
C      1  0.5794200000000  0.5608650000000  0.4652200000000 1.0
C      1  0.5117660000000  0.4109100000000  0.4568480000000 1.0
C      1  0.4063840000000  0.5275370000000  0.4707670000000 1.0
C      1  0.5112110000000  0.4785820000000  0.4087100000000 1.0
C      1  0.4661280000000  0.5093640000000  0.4126300000000 1.0
C      1  0.5271860000000  0.5287540000000  0.4044960000000 1.0
C      1  0.5022790000000  0.5935880000000  0.4827850000000 1.0
C      1  0.5793500000000  0.4525120000000  0.4838650000000 1.0
C      1  0.4157270000000  0.4469300000000  0.4889580000000 1.0
C      1  0.4549810000000  0.4391850000000  0.5730360000000 1.0
C      1  0.4654610000000  0.5754910000000  0.5648860000000 1.0
C      1  0.5811290000000  0.4895820000000  0.5705730000000 1.0
C      1  0.4469620000000  0.5111340000000  0.4406680000000 1.0
C      1  0.5505390000000  0.5414500000000  0.4245470000000 1.0
C      1  0.5001910000000  0.4509790000000  0.4188080000000 1.0
C      1  0.5470360000000  0.4360240000000  0.4394420000000 1.0
C      1  0.4104800000000  0.4824110000000  0.4518420000000 1.0
C      1  0.5410200000000  0.5839190000000  0.4436060000000 1.0
C      1  0.5287760000000  0.4910970000000  0.5186560000000 1.0
C      1  0.4792500000000  0.4825670000000  0.5141560000000 1.0
C      1  0.4990070000000  0.5253100000000  0.5179250000000 1.0
C      1  0.4410670000000  0.4281790000000  0.4506070000000 1.0
C      1  0.4724370000000  0.5821080000000  0.4459020000000 1.0
C      1  0.5882100000000  0.4853070000000  0.4507420000000 1.0
C      1  0.4820920000000  0.5099440000000  0.4941770000000 1.0
C      1  0.5331680000000  0.5178980000000  0.4981510000000 1.0
C      1  0.5033490000000  0.4659150000000  0.4968660000000 1.0
C      1  0.5004650000000  0.5772130000000  0.5117600000000 1.0
C      1  0.5705410000000  0.4580670000000  0.5162350000000 1.0
C      1  0.4318160000000  0.4553500000000  0.5164090000000 1.0
C      1  0.5198710000000  0.4279440000000  0.4342740000000 1.0
C      1  0.4171730000000  0.5094790000000  0.4489110000000 1.0
C      1  0.5614620000000  0.5651220000000  0.4397760000000 1.0
C      1  0.4752630000000  0.5948300000000  0.4711550000000 1.0
C      1  0.5962890000000  0.4734580000000  0.4743730000000 1.0
C      1  0.4288420000000  0.4247930000000  0.4759380000000 1.0
C      1  0.4042720000000  0.5757160000000  0.4666310000000 1.0
C      1  0.6227890000000  0.5389640000000  0.4707530000000 1.0
C      1  0.4782490000000  0.3753770000000  0.4676630000000 1.0
C      1  0.4816240000000  0.5788560000000  0.5356400000000 1.0
C      1  0.5802460000000  0.4740920000000  0.5403170000000 1.0
C      1  0.4435730000000  0.4417910000000  0.5412470000000 1.0
C      1  0.4808700000000  0.4797630000000  0.5983120000000 1.0
C      1  0.4850310000000  0.5324400000000  0.5983250000000 1.0
C      1  0.5298160000000  0.4900660000000  0.6014230000000 1.0
C      1  0.5795720000000  0.4998630000000  0.5199950000000 1.0
C      1  0.4635080000000  0.4311350000000  0.5185920000000 1.0
C      1  0.4628140000000  0.5640010000000  0.5142940000000 1.0
C      1  0.5009930000000  0.5566380000000  0.5918480000000 1.0
C      1  0.5445050000000  0.4655490000000  0.5942260000000 1.0
C      1  0.4493630000000  0.4801810000000  0.5871990000000 1.0
C      1  0.5788130000000  0.4555480000000  0.5687840000000 1.0
C      1  0.4234760000000  0.4491950000000  0.5665330000000 1.0
C      1  0.4964260000000  0.5897160000000  0.5642660000000 1.0
C      1  0.5499670000000  0.5049120000000  0.4085230000000 1.0
C      1  0.4695510000000  0.4480970000000  0.4112490000000 1.0
C      1  0.4744570000000  0.5423420000000  0.4131630000000 1.0
C      1  0.5349560000000  0.5931520000000  0.4733800000000 1.0
C      1  0.5601530000000  0.4280910000000  0.4699970000000 1.0
C      1  0.3994090000000  0.4740660000000  0.4803420000000 1.0
C      1  0.5209070000000  0.5207950000000  0.5435480000000 1.0
C      1  0.5081280000000  0.4754930000000  0.5407710000000 1.0
C      1  0.4716150000000  0.5040770000000  0.5393670000000 1.0
C      1  0.4491550000000  0.5488370000000  0.5697230000000 1.0
C      1  0.5650770000000  0.5161960000000  0.5785710000000 1.0
C      1  0.4852150000000  0.4366640000000  0.5789970000000 1.0
C      1  0.5416380000000  0.5506760000000  0.5016480000000 1.0
C      1  0.5236900000000  0.4397980000000  0.5022400000000 1.0
C      1  0.4274140000000  0.5028890000000  0.5106470000000 1.0
C      1  0.5482140000000  0.4818200000000  0.5670510000000 1.0
C      1  0.4681790000000  0.4686260000000  0.5622830000000 1.0
C      1  0.4885160000000  0.5505660000000  0.5630360000000 1.0
C      1  0.5970510000000  0.5391350000000  0.4755450000000 1.0
C      1  0.4874620000000  0.3994310000000  0.4714540000000 1.0
C      1  0.4173820000000  0.5545280000000  0.4748490000000 1.0
C      1  0.5239780000000  0.5293600000000  0.4691950000000 1.0
C      1  0.5137170000000  0.4694260000000  0.4666090000000 1.0
C      1  0.4650360000000  0.4951200000000  0.4597380000000 1.0
C      1  0.4580620000000  0.4575300000000  0.4481850000000 1.0
C      1  0.4968620000000  0.5628090000000  0.4446510000000 1.0
C      1  0.5546500000000  0.4841110000000  0.4453780000000 1.0
C      1  0.5244400000000  0.5052240000000  0.5713940000000 1.0
C      1  0.4944760000000  0.4893710000000  0.5686640000000 1.0
C      1  0.4785620000000  0.5194000000000  0.5675190000000 1.0
C      1  0.5569800000000  0.5316940000000  0.5568940000000 1.0
C      1  0.5003300000000  0.4369260000000  0.5557000000000 1.0
C      1  0.4449320000000  0.5328600000000  0.5470510000000 1.0
C      1  0.5251060000000  0.3881910000000  0.4788710000000 1.0
C      1  0.3765870000000  0.5229510000000  0.4865390000000 1.0
C      1  0.5841810000000  0.5879140000000  0.4852910000000 1.0
C      1  0.4919810000000  0.4524460000000  0.4491150000000 1.0
C      1  0.4511790000000  0.5386950000000  0.4522320000000 1.0
C      1  0.5523500000000  0.5256570000000  0.4520520000000 1.0
C      1  0.5518290000000  0.5119700000000  0.5324400000000 1.0
C      1  0.4851200000000  0.4529590000000  0.5298540000000 1.0
C      1  0.4681530000000  0.5348870000000  0.5254000000000 1.0
C      1  0.5089960000000  0.5495860000000  0.5002490000000 1.0
C      1  0.5424900000000  0.4666720000000  0.5047860000000 1.0
C      1  0.4466820000000  0.4795110000000  0.5048810000000 1.0
C      1  0.5236870000000  0.4944350000000  0.4497420000000 1.0
C      1  0.4938530000000  0.5038730000000  0.4642610000000 1.0
C      1  0.5103350000000  0.5200430000000  0.4394740000000 1.0
C      1  0.5557610000000  0.5716520000000  0.4857640000000 1.0
C      1  0.5311730000000  0.4201800000000  0.4815340000000 1.0
C      1  0.4035190000000  0.5033430000000  0.4933400000000 1.0
C      1  0.5628060000000  0.4270590000000  0.5046160000000 1.0
C      1  0.4008850000000  0.4692780000000  0.5140770000000 1.0
C      1  0.5296400000000  0.5928150000000  0.5072690000000 1.0
C      1  0.4553010000000  0.5370230000000  0.5947790000000 1.0
C      1  0.5489530000000  0.5136630000000  0.6017980000000 1.0
C      1  0.4910160000000  0.4527950000000  0.6020020000000 1.0
C      1  0.4195780000000  0.4798520000000  0.5756630000000 1.0
C      1  0.5161620000000  0.5802630000000  0.5844490000000 1.0
C      1  0.5592120000000  0.4421410000000  0.5862450000000 1.0
C      1  0.4563600000000  0.5869010000000  0.4899730000000 1.0
C      1  0.6015830000000  0.4914640000000  0.4951850000000 1.0
C      1  0.4456200000000  0.4136020000000  0.4954010000000 1.0
C      1  0.5406370000000  0.4351150000000  0.5291380000000 1.0
C      1  0.4153500000000  0.4813490000000  0.5417960000000 1.0
C      1  0.5350930000000  0.5669610000000  0.5287100000000 1.0
C      1  0.4977030000000  0.5468510000000  0.4699060000000 1.0
C      1  0.5460030000000  0.4776910000000  0.4776290000000 1.0
C      1  0.4574400000000  0.4716860000000  0.4780530000000 1.0
C      1  0.4037350000000  0.5083660000000  0.5678410000000 1.0
C      1  0.5431700000000  0.5756110000000  0.5765560000000 1.0
C      1  0.5429520000000  0.4211130000000  0.5759730000000 1.0
C      1  0.5502730000000  0.5584390000000  0.5549530000000 1.0
C      1  0.5254710000000  0.4261540000000  0.5541500000000 1.0
C      1  0.4225950000000  0.5145390000000  0.5402320000000 1.0
C      1  0.4543060000000  0.4273920000000  0.4222570000000 1.0
C      1  0.4591720000000  0.5572610000000  0.4329520000000 1.0
C      1  0.5727230000000  0.5090950000000  0.4310300000000 1.0
C      1  0.4994340000000  0.5103990000000  0.4117260000000 1.0
END
