TITL C-2622957-9142-609 0.00269933983395859 125000 -885.318491778117 0 0 165 (C1) n - 1
REM
REM in /nfs/bkarasulu/CARBON/AIRSS/Generating-Clusters/AIREBO/with-SteepDescent/Higher-Symm/SD-CG/HFTN-CG
REM
REM
REM
REM
REM
REM ./C.cell (b20cbc046b6831c77cfcea5457e17084)
REM
REM compiler GCC version 9.2.1 20190827 (Red Hat 9.2.1-1)
REM options -cpp -mtune=generic -march=x86-64 -g -O0 -fpre-include=/usr/include/finclude/math-vector-fortran.h
REM seed -151326425 1710982675 -1427882621 -2114546419 -1091468061 -1086894268 92902245 -810213723 -1203830934 1486470078 125285855 1667189879 -69679199 -1915705160 1996340570 -1871517509 -1406561915 1894748608 -987254146 1829539053 310810153 1565507957 902059048 -716991491 789155392 -329044418 -1025151677 -1453729618 1721415861 1996471547 -1676429225 88666310 1469924693
REM
CELL 1.54180   50.00000   50.00000   50.00000   90.00000   90.00000   90.00000
LATT -1
SFAC C  
C      1  0.4465670000000  0.4963720000000  0.5047910000000 1.0
C      1  0.4829050000000  0.5485400000000  0.4993490000000 1.0
C      1  0.5459080000000  0.5364600000000  0.4991040000000 1.0
C      1  0.5390720000000  0.4712520000000  0.5023810000000 1.0
C      1  0.4886410000000  0.4509280000000  0.5037640000000 1.0
C      1  0.5502800000000  0.5027450000000  0.4999410000000 1.0
C      1  0.5163480000000  0.5527340000000  0.4948320000000 1.0
C      1  0.4579530000000  0.5281370000000  0.4959450000000 1.0
C      1  0.4566920000000  0.4639320000000  0.5012110000000 1.0
C      1  0.5174710000000  0.4463820000000  0.5108730000000 1.0
C      1  0.5485010000000  0.4126890000000  0.5344530000000 1.0
C      1  0.4305410000000  0.4279160000000  0.5363080000000 1.0
C      1  0.4244420000000  0.5428200000000  0.5371730000000 1.0
C      1  0.5160730000000  0.5988010000000  0.5358500000000 1.0
C      1  0.5899050000000  0.5121300000000  0.5384970000000 1.0
C      1  0.4552920000000  0.4049270000000  0.5369230000000 1.0
C      1  0.5689150000000  0.4328220000000  0.5355380000000 1.0
C      1  0.5842700000000  0.5455400000000  0.5330380000000 1.0
C      1  0.4824020000000  0.5928460000000  0.5358220000000 1.0
C      1  0.4095320000000  0.5119690000000  0.5375580000000 1.0
C      1  0.6049680000000  0.4588340000000  0.5113140000000 1.0
C      1  0.4759790000000  0.3909600000000  0.5138360000000 1.0
C      1  0.3915380000000  0.4894370000000  0.5176510000000 1.0
C      1  0.4563770000000  0.5925010000000  0.5130050000000 1.0
C      1  0.5720300000000  0.5739360000000  0.5165910000000 1.0
C      1  0.4043240000000  0.4588540000000  0.5097570000000 1.0
C      1  0.5069950000000  0.3917080000000  0.5112470000000 1.0
C      1  0.6053560000000  0.4909630000000  0.5164820000000 1.0
C      1  0.5414000000000  0.5887220000000  0.5155150000000 1.0
C      1  0.4297840000000  0.5718800000000  0.5179900000000 1.0
C      1  0.5958670000000  0.4532200000000  0.4786250000000 1.0
C      1  0.4818070000000  0.3991770000000  0.4813590000000 1.0
C      1  0.3906330000000  0.4856310000000  0.4838680000000 1.0
C      1  0.4592110000000  0.5914690000000  0.4784520000000 1.0
C      1  0.5759730000000  0.6014620000000  0.5013020000000 1.0
C      1  0.3962560000000  0.4520050000000  0.4764610000000 1.0
C      1  0.5166810000000  0.3925800000000  0.4790120000000 1.0
C      1  0.6000280000000  0.4867710000000  0.4836380000000 1.0
C      1  0.5529790000000  0.5947130000000  0.4815540000000 1.0
C      1  0.4296340000000  0.5763380000000  0.4846590000000 1.0
C      1  0.4609710000000  0.5287150000000  0.5292490000000 1.0
C      1  0.5114420000000  0.5474300000000  0.5273560000000 1.0
C      1  0.5488280000000  0.5049160000000  0.5349140000000 1.0
C      1  0.5215040000000  0.4405310000000  0.5426060000000 1.0
C      1  0.4525650000000  0.4608790000000  0.5348240000000 1.0
C      1  0.5441300000000  0.5384200000000  0.5330050000000 1.0
C      1  0.4811040000000  0.5530460000000  0.5334650000000 1.0
C      1  0.4476850000000  0.5003280000000  0.5385840000000 1.0
C      1  0.4763990000000  0.4380600000000  0.5299140000000 1.0
C      1  0.5447440000000  0.4645060000000  0.5331810000000 1.0
C      1  0.4889870000000  0.5962700000000  0.5041430000000 1.0
C      1  0.5790550000000  0.5454240000000  0.4994320000000 1.0
C      1  0.5840130000000  0.4367620000000  0.5128140000000 1.0
C      1  0.4516810000000  0.4123570000000  0.5038390000000 1.0
C      1  0.4152810000000  0.5096770000000  0.5041180000000 1.0
C      1  0.5168070000000  0.5850730000000  0.4951840000000 1.0
C      1  0.4274700000000  0.5412690000000  0.5033360000000 1.0
C      1  0.4324220000000  0.4403670000000  0.5047230000000 1.0
C      1  0.5288610000000  0.4156500000000  0.5093240000000 1.0
C      1  0.5813020000000  0.5128210000000  0.5072160000000 1.0
C      1  0.5716240000000  0.4928210000000  0.5560590000000 1.0
C      1  0.5198750000000  0.4101740000000  0.5529050000000 1.0
C      1  0.4267990000000  0.4548750000000  0.5566250000000 1.0
C      1  0.4400970000000  0.5574780000000  0.5620790000000 1.0
C      1  0.5408650000000  0.5859670000000  0.5552790000000 1.0
C      1  0.4227100000000  0.4886620000000  0.5577910000000 1.0
C      1  0.4860650000000  0.4120110000000  0.5495510000000 1.0
C      1  0.5671480000000  0.4591040000000  0.5570390000000 1.0
C      1  0.5608530000000  0.5607600000000  0.5524520000000 1.0
C      1  0.4693240000000  0.5707540000000  0.5568690000000 1.0
C      1  0.5557790000000  0.5006540000000  0.4664250000000 1.0
C      1  0.5100930000000  0.4655040000000  0.4590800000000 1.0
C      1  0.4602580000000  0.4675150000000  0.4675800000000 1.0
C      1  0.4558980000000  0.5283960000000  0.4626490000000 1.0
C      1  0.5125590000000  0.5485370000000  0.4609670000000 1.0
C      1  0.4405900000000  0.4925870000000  0.4715290000000 1.0
C      1  0.4874520000000  0.4495800000000  0.4713060000000 1.0
C      1  0.5367920000000  0.4656630000000  0.4712800000000 1.0
C      1  0.5454570000000  0.5450200000000  0.4676310000000 1.0
C      1  0.4876610000000  0.5649100000000  0.4699630000000 1.0
C      1  0.4316250000000  0.4589470000000  0.4233450000000 1.0
C      1  0.4416020000000  0.5519530000000  0.4212970000000 1.0
C      1  0.5300550000000  0.5775590000000  0.4277860000000 1.0
C      1  0.5782380000000  0.4920350000000  0.4238580000000 1.0
C      1  0.5167160000000  0.4180920000000  0.4248940000000 1.0
C      1  0.5627730000000  0.4626050000000  0.4314190000000 1.0
C      1  0.5581840000000  0.5752770000000  0.4324680000000 1.0
C      1  0.4699640000000  0.5697110000000  0.4212410000000 1.0
C      1  0.4239010000000  0.4906420000000  0.4228150000000 1.0
C      1  0.4867120000000  0.4243920000000  0.4235230000000 1.0
C      1  0.4686870000000  0.4385210000000  0.3989300000000 1.0
C      1  0.4414200000000  0.5070780000000  0.4041830000000 1.0
C      1  0.4929840000000  0.5597100000000  0.3978970000000 1.0
C      1  0.5442860000000  0.5283300000000  0.3884980000000 1.0
C      1  0.5460050000000  0.4502660000000  0.4060490000000 1.0
C      1  0.5334000000000  0.4262310000000  0.4048960000000 1.0
C      1  0.5578450000000  0.5119650000000  0.4044250000000 1.0
C      1  0.5208030000000  0.5424850000000  0.3943010000000 1.0
C      1  0.4378340000000  0.5349500000000  0.3998230000000 1.0
C      1  0.4413100000000  0.4439640000000  0.3970210000000 1.0
C      1  0.4397250000000  0.4391150000000  0.4468820000000 1.0
C      1  0.4284600000000  0.5400220000000  0.4476080000000 1.0
C      1  0.5131430000000  0.5955550000000  0.4414950000000 1.0
C      1  0.5794460000000  0.5163980000000  0.4476950000000 1.0
C      1  0.5284340000000  0.4201450000000  0.4526210000000 1.0
C      1  0.5541680000000  0.4423660000000  0.4570120000000 1.0
C      1  0.5773800000000  0.5495720000000  0.4441600000000 1.0
C      1  0.4809470000000  0.5855790000000  0.4454960000000 1.0
C      1  0.4254390000000  0.5064620000000  0.4487590000000 1.0
C      1  0.4702520000000  0.4287900000000  0.4506110000000 1.0
C      1  0.5464660000000  0.4990470000000  0.4337530000000 1.0
C      1  0.5073390000000  0.4687810000000  0.4331080000000 1.0
C      1  0.4593030000000  0.4720870000000  0.4356570000000 1.0
C      1  0.4725440000000  0.5201730000000  0.4392900000000 1.0
C      1  0.5176670000000  0.5486610000000  0.4272360000000 1.0
C      1  0.4627030000000  0.4995410000000  0.4240220000000 1.0
C      1  0.4827410000000  0.4577000000000  0.4222390000000 1.0
C      1  0.5308660000000  0.4754790000000  0.4195690000000 1.0
C      1  0.5404070000000  0.5297320000000  0.4397840000000 1.0
C      1  0.4858300000000  0.5408680000000  0.4252890000000 1.0
C      1  0.4240480000000  0.4323830000000  0.4730580000000 1.0
C      1  0.4117100000000  0.5489520000000  0.4741980000000 1.0
C      1  0.5237850000000  0.6050500000000  0.4700070000000 1.0
C      1  0.6043380000000  0.5120140000000  0.4680080000000 1.0
C      1  0.5444730000000  0.4126150000000  0.4816420000000 1.0
C      1  0.5722010000000  0.4291370000000  0.4826230000000 1.0
C      1  0.5946360000000  0.5430620000000  0.4727240000000 1.0
C      1  0.4893130000000  0.6057220000000  0.4715940000000 1.0
C      1  0.4044090000000  0.5149400000000  0.4724640000000 1.0
C      1  0.4507410000000  0.4095340000000  0.4707680000000 1.0
C      1  0.5690800000000  0.5099840000000  0.5829940000000 1.0
C      1  0.5310010000000  0.4267150000000  0.5788830000000 1.0
C      1  0.4480820000000  0.4473740000000  0.5820590000000 1.0
C      1  0.4411360000000  0.5328980000000  0.5830510000000 1.0
C      1  0.5155150000000  0.5774480000000  0.5692000000000 1.0
C      1  0.4229360000000  0.5043420000000  0.5861010000000 1.0
C      1  0.4724530000000  0.4233290000000  0.5789720000000 1.0
C      1  0.5521230000000  0.4488800000000  0.5822960000000 1.0
C      1  0.5624200000000  0.5434400000000  0.5820030000000 1.0
C      1  0.4882730000000  0.5736070000000  0.5829440000000 1.0
C      1  0.5368430000000  0.5317460000000  0.5651580000000 1.0
C      1  0.5236860000000  0.4789470000000  0.5517050000000 1.0
C      1  0.4813070000000  0.4498510000000  0.5601170000000 1.0
C      1  0.4589850000000  0.4994340000000  0.5706570000000 1.0
C      1  0.4912000000000  0.5356290000000  0.5720720000000 1.0
C      1  0.4663250000000  0.5275750000000  0.5608370000000 1.0
C      1  0.4617510000000  0.4722940000000  0.5633950000000 1.0
C      1  0.5084530000000  0.4572350000000  0.5662340000000 1.0
C      1  0.5340780000000  0.5023560000000  0.5656610000000 1.0
C      1  0.5132440000000  0.5482960000000  0.5585400000000 1.0
C      1  0.4893290000000  0.5454280000000  0.6019770000000 1.0
C      1  0.5414110000000  0.5286650000000  0.6046460000000 1.0
C      1  0.5422560000000  0.4681320000000  0.6037530000000 1.0
C      1  0.4837320000000  0.4479360000000  0.5999140000000 1.0
C      1  0.4531120000000  0.5000870000000  0.6020280000000 1.0
C      1  0.5179040000000  0.5396930000000  0.6142870000000 1.0
C      1  0.4623430000000  0.5318590000000  0.6096070000000 1.0
C      1  0.4622600000000  0.4698470000000  0.6032720000000 1.0
C      1  0.5149720000000  0.4516270000000  0.5964450000000 1.0
C      1  0.5425730000000  0.4965120000000  0.5971020000000 1.0
C      1  0.5024740000000  0.4217960000000  0.4744700000000 1.0
C      1  0.4216780000000  0.4729100000000  0.4841170000000 1.0
C      1  0.5623120000000  0.5718870000000  0.4649240000000 1.0
C      1  0.5695030000000  0.4735880000000  0.4765270000000 1.0
C      1  0.4553120000000  0.5598790000000  0.4693860000000 1.0
END
