TITL C-2622955-8511-182 9.91901150430592e-07 125000 -116.75283153315 0 0 21 (C1) n - 1
REM
REM in /nfs/bkarasulu/CARBON/AIRSS/Generating-Clusters/AIREBO/with-SteepDescent/Higher-Symm/SD-CG/HFTN-CG
REM
REM
REM
REM
REM
REM ./C.cell (b20cbc046b6831c77cfcea5457e17084)
REM
REM compiler GCC version 9.2.1 20190827 (Red Hat 9.2.1-1)
REM options -cpp -mtune=generic -march=x86-64 -g -O0 -fpre-include=/usr/include/finclude/math-vector-fortran.h
REM seed 1216014721 733767742 1078193227 628002666 983826523 -439402529 1309134395 -38255012 -2094140521 2096182283 257131717 1314977104 1405103704 1842619481 848336799 -49749506 -536396641 1460647731 1447886573 -724017713 -1777831082 1560811221 -406763846 1876242724 -1360567328 -819841594 -1886627084 -126341249 -2053412471 -2126171781 -861585359 239770320 -557981355
REM
CELL 1.54180   50.00000   50.00000   50.00000   90.00000   90.00000   90.00000
LATT -1
SFAC C  
C      1  0.5292100000000  0.5032720000000  0.5510700000000 1.0
C      1  0.4630700000000  0.4867640000000  0.5695820000000 1.0
C      1  0.5051880000000  0.4110020000000  0.4931670000000 1.0
C      1  0.5078930000000  0.5182080000000  0.3930790000000 1.0
C      1  0.4840390000000  0.5596370000000  0.5083640000000 1.0
C      1  0.4851300000000  0.4758380000000  0.5566030000000 1.0
C      1  0.5524350000000  0.5095840000000  0.5595620000000 1.0
C      1  0.4964880000000  0.5555830000000  0.4843660000000 1.0
C      1  0.5054410000000  0.5233820000000  0.4190960000000 1.0
C      1  0.5042050000000  0.4372790000000  0.4974250000000 1.0
C      1  0.4808200000000  0.5221280000000  0.5450530000000 1.0
C      1  0.4605900000000  0.5138120000000  0.5632320000000 1.0
C      1  0.5036580000000  0.3852670000000  0.4884360000000 1.0
C      1  0.5077630000000  0.5128510000000  0.3674210000000 1.0
C      1  0.4841600000000  0.5459810000000  0.5317490000000 1.0
C      1  0.5029020000000  0.4898800000000  0.5098760000000 1.0
C      1  0.5054900000000  0.5099030000000  0.4910810000000 1.0
C      1  0.5023050000000  0.5306030000000  0.4726960000000 1.0
C      1  0.5052180000000  0.5271960000000  0.4454580000000 1.0
C      1  0.5049010000000  0.4631650000000  0.5036750000000 1.0
C      1  0.5015690000000  0.4979930000000  0.5389970000000 1.0
END
