TITL C-2622959-7779-224 -0.000717676655830275 125000 -478.287006537214 0 0 97 (C1) n - 1
REM
REM in /nfs/bkarasulu/CARBON/AIRSS/Generating-Clusters/AIREBO/with-SteepDescent/Higher-Symm/SD-CG/HFTN-CG
REM
REM
REM
REM
REM
REM ./C.cell (b20cbc046b6831c77cfcea5457e17084)
REM
REM compiler GCC version 9.2.1 20190827 (Red Hat 9.2.1-1)
REM options -cpp -mtune=generic -march=x86-64 -g -O0 -fpre-include=/usr/include/finclude/math-vector-fortran.h
REM seed 1182862507 825013214 -1762224438 -1872076809 2043632838 356435397 775642622 2025675518 2081480395 672487398 -819302123 -1563312771 669663649 1540508424 801877751 771073659 -320759042 -2087364162 377517613 -145197075 815672204 1869631700 -2003180223 -258737380 28463676 -477354088 1613927768 -1752476303 719343653 297150605 1137115958 689676338 -674977838
REM
CELL 1.54180   50.00000   50.00000   50.00000   90.00000   90.00000   90.00000
LATT -1
SFAC C  
C      1  0.4978930000000  0.4213950000000  0.5138930000000 1.0
C      1  0.5016080000000  0.4231200000000  0.4855790000000 1.0
C      1  0.4985820000000  0.5770040000000  0.4837650000000 1.0
C      1  0.5023520000000  0.5768430000000  0.5120720000000 1.0
C      1  0.5084150000000  0.5397970000000  0.4412450000000 1.0
C      1  0.4935310000000  0.5405030000000  0.5569440000000 1.0
C      1  0.5075970000000  0.4580290000000  0.5567960000000 1.0
C      1  0.4936740000000  0.4608030000000  0.4416540000000 1.0
C      1  0.5342280000000  0.4456760000000  0.4893270000000 1.0
C      1  0.4674130000000  0.4464230000000  0.5087150000000 1.0
C      1  0.5360820000000  0.5553520000000  0.5101990000000 1.0
C      1  0.4660570000000  0.5538970000000  0.4862750000000 1.0
C      1  0.5152920000000  0.5576460000000  0.5370420000000 1.0
C      1  0.4861480000000  0.5571710000000  0.4590390000000 1.0
C      1  0.5150190000000  0.4429870000000  0.4613820000000 1.0
C      1  0.4845410000000  0.4417450000000  0.5377200000000 1.0
C      1  0.4162510000000  0.4576700000000  0.5285880000000 1.0
C      1  0.5835030000000  0.4577120000000  0.4728690000000 1.0
C      1  0.4096460000000  0.5358980000000  0.4737820000000 1.0
C      1  0.5848720000000  0.5366110000000  0.5279380000000 1.0
C      1  0.5238010000000  0.5100260000000  0.5542720000000 1.0
C      1  0.4744290000000  0.5204310000000  0.4486070000000 1.0
C      1  0.5268980000000  0.4903290000000  0.4449090000000 1.0
C      1  0.4762440000000  0.4819300000000  0.5520560000000 1.0
C      1  0.5850560000000  0.4818480000000  0.5322070000000 1.0
C      1  0.4175140000000  0.4820640000000  0.4684970000000 1.0
C      1  0.5845990000000  0.5149150000000  0.4728010000000 1.0
C      1  0.4184650000000  0.5157010000000  0.5288150000000 1.0
C      1  0.5329090000000  0.4821240000000  0.5174730000000 1.0
C      1  0.4643210000000  0.4830360000000  0.4786400000000 1.0
C      1  0.5342090000000  0.5166040000000  0.4805360000000 1.0
C      1  0.4634490000000  0.5168320000000  0.5194280000000 1.0
C      1  0.5120320000000  0.4585810000000  0.5116250000000 1.0
C      1  0.4889270000000  0.4610220000000  0.4867820000000 1.0
C      1  0.5133920000000  0.5404710000000  0.4897050000000 1.0
C      1  0.4861820000000  0.5403510000000  0.5101220000000 1.0
C      1  0.5141400000000  0.4805410000000  0.4749110000000 1.0
C      1  0.4874240000000  0.4789030000000  0.5233800000000 1.0
C      1  0.5087420000000  0.5199920000000  0.5254280000000 1.0
C      1  0.4895550000000  0.5208800000000  0.4753950000000 1.0
C      1  0.4410650000000  0.4425340000000  0.4886640000000 1.0
C      1  0.5562370000000  0.4454320000000  0.5144010000000 1.0
C      1  0.4416310000000  0.5579350000000  0.5096300000000 1.0
C      1  0.5585550000000  0.5556980000000  0.4846800000000 1.0
C      1  0.4556760000000  0.5478550000000  0.4471650000000 1.0
C      1  0.5376280000000  0.5410140000000  0.5565550000000 1.0
C      1  0.4601130000000  0.4536980000000  0.5582440000000 1.0
C      1  0.5386160000000  0.4584990000000  0.4424310000000 1.0
C      1  0.4452850000000  0.5187970000000  0.4314510000000 1.0
C      1  0.5527400000000  0.5140760000000  0.5716840000000 1.0
C      1  0.4472710000000  0.4836650000000  0.5693410000000 1.0
C      1  0.5560560000000  0.4847320000000  0.4283160000000 1.0
C      1  0.4409570000000  0.5126260000000  0.5521750000000 1.0
C      1  0.5685410000000  0.5119500000000  0.4453390000000 1.0
C      1  0.4410660000000  0.4881800000000  0.4465260000000 1.0
C      1  0.5659740000000  0.4863920000000  0.5563700000000 1.0
C      1  0.4578110000000  0.5149900000000  0.4859480000000 1.0
C      1  0.5402770000000  0.5152350000000  0.5136230000000 1.0
C      1  0.4560320000000  0.4845040000000  0.5115810000000 1.0
C      1  0.5454280000000  0.4857410000000  0.4872100000000 1.0
C      1  0.5617850000000  0.5145320000000  0.5389110000000 1.0
C      1  0.4351610000000  0.5172030000000  0.4623310000000 1.0
C      1  0.5646880000000  0.4824410000000  0.4610320000000 1.0
C      1  0.4375170000000  0.4819680000000  0.5380020000000 1.0
C      1  0.5021100000000  0.5156860000000  0.5786110000000 1.0
C      1  0.4928750000000  0.5151570000000  0.4235010000000 1.0
C      1  0.5035670000000  0.4881940000000  0.4238190000000 1.0
C      1  0.4981880000000  0.4862710000000  0.5737310000000 1.0
C      1  0.4972440000000  0.5456780000000  0.5891280000000 1.0
C      1  0.5040520000000  0.5417400000000  0.4087410000000 1.0
C      1  0.4990680000000  0.4594380000000  0.4095480000000 1.0
C      1  0.5051910000000  0.4584490000000  0.5894330000000 1.0
C      1  0.5221350000000  0.4319660000000  0.5302400000000 1.0
C      1  0.4775060000000  0.4337120000000  0.4700390000000 1.0
C      1  0.5233680000000  0.5656090000000  0.4690860000000 1.0
C      1  0.4779150000000  0.5673320000000  0.5280990000000 1.0
C      1  0.4270500000000  0.4707460000000  0.4991090000000 1.0
C      1  0.5728340000000  0.4712890000000  0.5021690000000 1.0
C      1  0.4302600000000  0.5294800000000  0.5000560000000 1.0
C      1  0.5682550000000  0.5287010000000  0.4993400000000 1.0
C      1  0.5365440000000  0.5226110000000  0.4496550000000 1.0
C      1  0.4647230000000  0.5349210000000  0.5472640000000 1.0
C      1  0.5340310000000  0.4779980000000  0.5491010000000 1.0
C      1  0.4646410000000  0.4660810000000  0.4506200000000 1.0
C      1  0.5561880000000  0.5536360000000  0.5345280000000 1.0
C      1  0.4356330000000  0.5561910000000  0.4705170000000 1.0
C      1  0.5547680000000  0.4441330000000  0.4652810000000 1.0
C      1  0.4449990000000  0.4431700000000  0.5328700000000 1.0
C      1  0.5451750000000  0.4465560000000  0.5425070000000 1.0
C      1  0.4498250000000  0.4383830000000  0.4604030000000 1.0
C      1  0.5471750000000  0.5543150000000  0.4558360000000 1.0
C      1  0.4502110000000  0.5629520000000  0.5377520000000 1.0
C      1  0.5968470000000  0.4875910000000  0.4844420000000 1.0
C      1  0.4040670000000  0.4880860000000  0.5172690000000 1.0
C      1  0.5901550000000  0.5060780000000  0.5121810000000 1.0
C      1  0.4089260000000  0.5050970000000  0.4896720000000 1.0
C      1  0.5002810000000  0.4995270000000  0.4995930000000 1.0
END
