TITL C-2622954-8726-55 -0.000683829710268949 125000 -591.783819746926 0 0 119 (C1) n - 1
REM
REM in /nfs/bkarasulu/CARBON/AIRSS/Generating-Clusters/AIREBO/with-SteepDescent/Higher-Symm/SD-CG/HFTN-CG
REM
REM
REM
REM
REM
REM ./C.cell (b20cbc046b6831c77cfcea5457e17084)
REM
REM compiler GCC version 9.2.1 20190827 (Red Hat 9.2.1-1)
REM options -cpp -mtune=generic -march=x86-64 -g -O0 -fpre-include=/usr/include/finclude/math-vector-fortran.h
REM seed 1749205052 1259142565 989838647 -753614128 -1222990933 -1843025705 490979265 -377213436 1127442422 -1021702584 -1411280567 1354549130 -394708282 -1181826408 -155558301 -5357591 -1905996319 1919623779 -1961914942 711615651 -1561433982 1804122895 19982782 -98877767 -259835924 1063541523 -1067926483 336023853 146799220 -547897735 -1492335395 -107288479 1868347923
REM
CELL 1.54180   50.00000   50.00000   50.00000   90.00000   90.00000   90.00000
LATT -1
SFAC C  
C      1  0.5503930000000  0.4342170000000  0.4595670000000 1.0
C      1  0.5086850000000  0.4323850000000  0.5621940000000 1.0
C      1  0.4412210000000  0.4345040000000  0.4781000000000 1.0
C      1  0.5285430000000  0.5284530000000  0.5097550000000 1.0
C      1  0.4811040000000  0.5281840000000  0.5201550000000 1.0
C      1  0.4956200000000  0.5285440000000  0.4743080000000 1.0
C      1  0.5024110000000  0.5823630000000  0.4783940000000 1.0
C      1  0.5193640000000  0.5837110000000  0.5082150000000 1.0
C      1  0.4853670000000  0.5840990000000  0.5077710000000 1.0
C      1  0.5255960000000  0.4893580000000  0.4241360000000 1.0
C      1  0.5478960000000  0.4888050000000  0.5638490000000 1.0
C      1  0.4232290000000  0.4905770000000  0.5141110000000 1.0
C      1  0.5802950000000  0.4932100000000  0.4878760000000 1.0
C      1  0.4712090000000  0.4992470000000  0.5793500000000 1.0
C      1  0.4485320000000  0.4931440000000  0.4405930000000 1.0
C      1  0.5296310000000  0.4523250000000  0.4381710000000 1.0
C      1  0.5351050000000  0.4517100000000  0.5563110000000 1.0
C      1  0.4343370000000  0.4529100000000  0.5065330000000 1.0
C      1  0.5766530000000  0.4624740000000  0.4924500000000 1.0
C      1  0.4732850000000  0.4708010000000  0.5665430000000 1.0
C      1  0.4547180000000  0.4631570000000  0.4406480000000 1.0
C      1  0.4719700000000  0.5872140000000  0.4703140000000 1.0
C      1  0.5431280000000  0.5947930000000  0.4932410000000 1.0
C      1  0.4934610000000  0.5908840000000  0.5376850000000 1.0
C      1  0.5181040000000  0.4995410000000  0.5179550000000 1.0
C      1  0.4725630000000  0.5024390000000  0.5038980000000 1.0
C      1  0.5122010000000  0.5011790000000  0.4692990000000 1.0
C      1  0.5430760000000  0.5263950000000  0.4614750000000 1.0
C      1  0.5191790000000  0.5236480000000  0.5539590000000 1.0
C      1  0.4423290000000  0.5251460000000  0.4908660000000 1.0
C      1  0.5628220000000  0.5658420000000  0.5195420000000 1.0
C      1  0.4596450000000  0.5670210000000  0.5423620000000 1.0
C      1  0.4799060000000  0.5649110000000  0.4367360000000 1.0
C      1  0.4318360000000  0.4442300000000  0.4503240000000 1.0
C      1  0.5787750000000  0.4446770000000  0.4665430000000 1.0
C      1  0.4881560000000  0.4451840000000  0.5801530000000 1.0
C      1  0.4831770000000  0.5076490000000  0.4273260000000 1.0
C      1  0.5713220000000  0.5025400000000  0.5256990000000 1.0
C      1  0.4452170000000  0.5054510000000  0.5489990000000 1.0
C      1  0.4073590000000  0.5029190000000  0.5375890000000 1.0
C      1  0.5142080000000  0.5070120000000  0.4023180000000 1.0
C      1  0.5753740000000  0.5023770000000  0.5652340000000 1.0
C      1  0.4158640000000  0.4916930000000  0.4749760000000 1.0
C      1  0.5619170000000  0.4945910000000  0.4400190000000 1.0
C      1  0.5164940000000  0.4898610000000  0.5885670000000 1.0
C      1  0.5015520000000  0.4864120000000  0.4465110000000 1.0
C      1  0.5441550000000  0.4826860000000  0.5306100000000 1.0
C      1  0.4537450000000  0.4859780000000  0.5226120000000 1.0
C      1  0.5806790000000  0.4760740000000  0.5454150000000 1.0
C      1  0.4255540000000  0.4777920000000  0.5515080000000 1.0
C      1  0.4912690000000  0.4821960000000  0.4060690000000 1.0
C      1  0.5257060000000  0.4103540000000  0.4863440000000 1.0
C      1  0.4993070000000  0.4076280000000  0.5271330000000 1.0
C      1  0.4769760000000  0.4091190000000  0.4835850000000 1.0
C      1  0.4914020000000  0.5475600000000  0.5810910000000 1.0
C      1  0.4354720000000  0.5428590000000  0.4500240000000 1.0
C      1  0.5770010000000  0.5515000000000  0.4695380000000 1.0
C      1  0.5047670000000  0.5559730000000  0.4316950000000 1.0
C      1  0.5554530000000  0.5511550000000  0.5429680000000 1.0
C      1  0.4357770000000  0.5545910000000  0.5252800000000 1.0
C      1  0.5342020000000  0.4620770000000  0.4704450000000 1.0
C      1  0.5132430000000  0.4717010000000  0.5395780000000 1.0
C      1  0.4582960000000  0.4631790000000  0.4846690000000 1.0
C      1  0.5392870000000  0.4198380000000  0.5219620000000 1.0
C      1  0.4638140000000  0.4238640000000  0.5207830000000 1.0
C      1  0.5003930000000  0.4201330000000  0.4533940000000 1.0
C      1  0.4756130000000  0.4495690000000  0.5097640000000 1.0
C      1  0.5041820000000  0.4461420000000  0.4714570000000 1.0
C      1  0.5217050000000  0.4459170000000  0.5190820000000 1.0
C      1  0.4427920000000  0.5697310000000  0.4707090000000 1.0
C      1  0.5539840000000  0.5784300000000  0.4694470000000 1.0
C      1  0.5057820000000  0.5739240000000  0.5644620000000 1.0
C      1  0.5242640000000  0.5680840000000  0.4563440000000 1.0
C      1  0.5279230000000  0.5706090000000  0.5384120000000 1.0
C      1  0.4558980000000  0.5701340000000  0.5026800000000 1.0
C      1  0.4716850000000  0.5096150000000  0.4592740000000 1.0
C      1  0.5522990000000  0.5074590000000  0.4993620000000 1.0
C      1  0.4775690000000  0.5125170000000  0.5486950000000 1.0
C      1  0.5509110000000  0.4729660000000  0.4235910000000 1.0
C      1  0.5381130000000  0.4681480000000  0.5847680000000 1.0
C      1  0.4086000000000  0.4697900000000  0.4959460000000 1.0
C      1  0.5113520000000  0.5037160000000  0.6193010000000 1.0
C      1  0.3919160000000  0.5051550000000  0.4547800000000 1.0
C      1  0.5727040000000  0.5195660000000  0.4323480000000 1.0
C      1  0.5484160000000  0.5631470000000  0.4329040000000 1.0
C      1  0.5446750000000  0.5976590000000  0.5485170000000 1.0
C      1  0.4290260000000  0.5870530000000  0.5148430000000 1.0
C      1  0.4689510000000  0.5411870000000  0.4911940000000 1.0
C      1  0.5251030000000  0.5434420000000  0.4797620000000 1.0
C      1  0.5093860000000  0.5428110000000  0.5320890000000 1.0
C      1  0.4490620000000  0.4956320000000  0.4804720000000 1.0
C      1  0.5445310000000  0.4944390000000  0.4689240000000 1.0
C      1  0.5060870000000  0.4978740000000  0.5600750000000 1.0
C      1  0.4575580000000  0.4441230000000  0.5544620000000 1.0
C      1  0.4783650000000  0.4420000000000  0.4284330000000 1.0
C      1  0.5732300000000  0.4396190000000  0.5173920000000 1.0
C      1  0.4675610000000  0.4280030000000  0.4574810000000 1.0
C      1  0.5549010000000  0.4257330000000  0.4923290000000 1.0
C      1  0.4790990000000  0.4197290000000  0.5508710000000 1.0
C      1  0.5050810000000  0.5320500000000  0.4183080000000 1.0
C      1  0.5680030000000  0.5277960000000  0.5481000000000 1.0
C      1  0.4252930000000  0.5298660000000  0.5370960000000 1.0
C      1  0.4657240000000  0.5497440000000  0.4584400000000 1.0
C      1  0.5540120000000  0.5556610000000  0.4928510000000 1.0
C      1  0.4830040000000  0.5544950000000  0.5500860000000 1.0
C      1  0.4967460000000  0.5170160000000  0.5939130000000 1.0
C      1  0.4227270000000  0.5130480000000  0.4502920000000 1.0
C      1  0.5694570000000  0.5467300000000  0.4397680000000 1.0
C      1  0.5661490000000  0.4515950000000  0.5423620000000 1.0
C      1  0.4355550000000  0.4541080000000  0.5389940000000 1.0
C      1  0.5012000000000  0.4567990000000  0.4197780000000 1.0
C      1  0.4800470000000  0.4692110000000  0.5332500000000 1.0
C      1  0.4822290000000  0.4650800000000  0.4605610000000 1.0
C      1  0.5443230000000  0.4627750000000  0.5028970000000 1.0
C      1  0.5866500000000  0.5222290000000  0.4828290000000 1.0
C      1  0.4625720000000  0.5311660000000  0.5807370000000 1.0
C      1  0.4527020000000  0.5241410000000  0.4272410000000 1.0
C      1  0.4996240000000  0.4951030000000  0.4958520000000 1.0
C      1  0.5000250000000  0.4280310000000  0.4999340000000 1.0
END
