TITL C-2622959-7779-27 -0.00237319425285899 125000 -854.86473756125 0 0 147 (C1) n - 1
REM
REM in /nfs/bkarasulu/CARBON/AIRSS/Generating-Clusters/AIREBO/with-SteepDescent/Higher-Symm/SD-CG/HFTN-CG
REM
REM
REM
REM
REM
REM ./C.cell (b20cbc046b6831c77cfcea5457e17084)
REM
REM compiler GCC version 9.2.1 20190827 (Red Hat 9.2.1-1)
REM options -cpp -mtune=generic -march=x86-64 -g -O0 -fpre-include=/usr/include/finclude/math-vector-fortran.h
REM seed -752489508 -955766778 -574698044 30802522 -821919568 -1718766434 -300417305 1422857585 -419324100 -529322659 1726917445 -1163620926 756450877 1397645092 -506803020 -1717136047 -328897801 279880488 1033317443 -837723407 1873581464 -956832732 -927413028 -1731021007 -185378415 1679711817 1976486938 1557293992 1335628002 -162763444 87833550 2029492259 -1122306112
REM
CELL 1.54180   50.00000   50.00000   50.00000   90.00000   90.00000   90.00000
LATT -1
SFAC C  
C      1  0.5334780000000  0.5653200000000  0.4340340000000 1.0
C      1  0.5306700000000  0.5821650000000  0.5455090000000 1.0
C      1  0.5337220000000  0.4902350000000  0.5994150000000 1.0
C      1  0.5387180000000  0.4076680000000  0.5138610000000 1.0
C      1  0.5246140000000  0.4459580000000  0.4014880000000 1.0
C      1  0.4375160000000  0.5288880000000  0.5668570000000 1.0
C      1  0.4417330000000  0.4482310000000  0.5586200000000 1.0
C      1  0.4333760000000  0.4363130000000  0.4709190000000 1.0
C      1  0.4477870000000  0.5091220000000  0.4152860000000 1.0
C      1  0.4321080000000  0.5776120000000  0.4831570000000 1.0
C      1  0.4407560000000  0.4173280000000  0.5333930000000 1.0
C      1  0.4335790000000  0.4473270000000  0.4326350000000 1.0
C      1  0.4503080000000  0.5598420000000  0.4248670000000 1.0
C      1  0.4215660000000  0.5948050000000  0.5175050000000 1.0
C      1  0.4449630000000  0.4970370000000  0.5917670000000 1.0
C      1  0.5195070000000  0.5822150000000  0.5212770000000 1.0
C      1  0.5178550000000  0.5132630000000  0.5957240000000 1.0
C      1  0.5253260000000  0.4195760000000  0.5342340000000 1.0
C      1  0.5150680000000  0.4322340000000  0.4251150000000 1.0
C      1  0.5171270000000  0.5437960000000  0.4265600000000 1.0
C      1  0.4623480000000  0.5556180000000  0.4006630000000 1.0
C      1  0.4436590000000  0.6077680000000  0.5181910000000 1.0
C      1  0.4518610000000  0.5181360000000  0.6079720000000 1.0
C      1  0.4555380000000  0.4079310000000  0.5560270000000 1.0
C      1  0.4431580000000  0.4209030000000  0.4327000000000 1.0
C      1  0.4004650000000  0.4701980000000  0.5378840000000 1.0
C      1  0.4095860000000  0.4629950000000  0.4884390000000 1.0
C      1  0.4163440000000  0.5088240000000  0.4429230000000 1.0
C      1  0.4163760000000  0.5411120000000  0.4819430000000 1.0
C      1  0.4099300000000  0.5181330000000  0.5400670000000 1.0
C      1  0.4808230000000  0.4233140000000  0.5634400000000 1.0
C      1  0.4718170000000  0.4195170000000  0.4476660000000 1.0
C      1  0.4772770000000  0.5319370000000  0.4012710000000 1.0
C      1  0.4724220000000  0.5962740000000  0.5041300000000 1.0
C      1  0.4727200000000  0.5367150000000  0.5969040000000 1.0
C      1  0.4595410000000  0.4667070000000  0.4331690000000 1.0
C      1  0.4632230000000  0.5771140000000  0.4456800000000 1.0
C      1  0.4538090000000  0.5515870000000  0.5277370000000 1.0
C      1  0.4649770000000  0.4726930000000  0.5922660000000 1.0
C      1  0.4524460000000  0.4144340000000  0.5084460000000 1.0
C      1  0.4871180000000  0.4847670000000  0.3960030000000 1.0
C      1  0.4937540000000  0.5906940000000  0.4519700000000 1.0
C      1  0.4912110000000  0.5702900000000  0.5690690000000 1.0
C      1  0.4959120000000  0.4585600000000  0.5934020000000 1.0
C      1  0.4976210000000  0.4044180000000  0.4884460000000 1.0
C      1  0.5502120000000  0.4492070000000  0.4167490000000 1.0
C      1  0.5597570000000  0.5554740000000  0.4478070000000 1.0
C      1  0.5551540000000  0.5618770000000  0.5484200000000 1.0
C      1  0.5516260000000  0.4868230000000  0.5748280000000 1.0
C      1  0.5664940000000  0.4231340000000  0.5075710000000 1.0
C      1  0.4469860000000  0.4908070000000  0.4737540000000 1.0
C      1  0.4648520000000  0.5247420000000  0.4840130000000 1.0
C      1  0.4523500000000  0.5223740000000  0.5124020000000 1.0
C      1  0.4622190000000  0.4931520000000  0.5267300000000 1.0
C      1  0.4569590000000  0.4752220000000  0.4983190000000 1.0
C      1  0.5148260000000  0.5228750000000  0.4780210000000 1.0
C      1  0.5005310000000  0.5332990000000  0.5255760000000 1.0
C      1  0.5088660000000  0.4792940000000  0.5120530000000 1.0
C      1  0.5099610000000  0.4671300000000  0.4809540000000 1.0
C      1  0.5133060000000  0.4938420000000  0.4601190000000 1.0
C      1  0.5200390000000  0.4205580000000  0.4518160000000 1.0
C      1  0.5208440000000  0.5183290000000  0.4145050000000 1.0
C      1  0.5216170000000  0.5848660000000  0.4927800000000 1.0
C      1  0.5195740000000  0.5421180000000  0.5923440000000 1.0
C      1  0.5237660000000  0.4385440000000  0.5582550000000 1.0
C      1  0.5808650000000  0.4469460000000  0.4878390000000 1.0
C      1  0.5860390000000  0.4941680000000  0.4512530000000 1.0
C      1  0.5784300000000  0.5523140000000  0.4760500000000 1.0
C      1  0.5725640000000  0.5390480000000  0.5301990000000 1.0
C      1  0.5741910000000  0.4829320000000  0.5495500000000 1.0
C      1  0.5202210000000  0.5892520000000  0.4354900000000 1.0
C      1  0.5125860000000  0.5884250000000  0.5657180000000 1.0
C      1  0.5201190000000  0.4688460000000  0.6096470000000 1.0
C      1  0.5209110000000  0.3920160000000  0.4988770000000 1.0
C      1  0.5054210000000  0.4635130000000  0.3896880000000 1.0
C      1  0.5575580000000  0.4693950000000  0.4802770000000 1.0
C      1  0.5674380000000  0.4726090000000  0.4518990000000 1.0
C      1  0.5657560000000  0.5215030000000  0.4844510000000 1.0
C      1  0.5458640000000  0.5229710000000  0.5189700000000 1.0
C      1  0.5528690000000  0.4904870000000  0.5247560000000 1.0
C      1  0.4976900000000  0.5945600000000  0.4826530000000 1.0
C      1  0.4937960000000  0.5544190000000  0.5926610000000 1.0
C      1  0.5031630000000  0.4346170000000  0.5758280000000 1.0
C      1  0.4970930000000  0.4081320000000  0.4613550000000 1.0
C      1  0.4984100000000  0.5110860000000  0.3989720000000 1.0
C      1  0.4327480000000  0.5500490000000  0.5512370000000 1.0
C      1  0.4420120000000  0.4526050000000  0.5851930000000 1.0
C      1  0.4356060000000  0.4143320000000  0.4859950000000 1.0
C      1  0.4606130000000  0.4836170000000  0.4085890000000 1.0
C      1  0.4411660000000  0.5905120000000  0.4619450000000 1.0
C      1  0.4871640000000  0.4747950000000  0.4495980000000 1.0
C      1  0.4863700000000  0.5606650000000  0.4647370000000 1.0
C      1  0.4819980000000  0.5560910000000  0.5427030000000 1.0
C      1  0.4885970000000  0.4787820000000  0.5684770000000 1.0
C      1  0.4812820000000  0.4257240000000  0.5041060000000 1.0
C      1  0.5289610000000  0.4590480000000  0.5310720000000 1.0
C      1  0.5304970000000  0.4413510000000  0.4725420000000 1.0
C      1  0.5341870000000  0.4991090000000  0.4337220000000 1.0
C      1  0.5432630000000  0.5698680000000  0.4834280000000 1.0
C      1  0.5211660000000  0.5204480000000  0.5498730000000 1.0
C      1  0.5506620000000  0.4730720000000  0.4300300000000 1.0
C      1  0.5407850000000  0.5402450000000  0.4715710000000 1.0
C      1  0.5317610000000  0.5481590000000  0.5665180000000 1.0
C      1  0.5315100000000  0.4880590000000  0.5486540000000 1.0
C      1  0.5438100000000  0.4477350000000  0.5026020000000 1.0
C      1  0.5004510000000  0.4412220000000  0.5259380000000 1.0
C      1  0.4913940000000  0.4439350000000  0.4369480000000 1.0
C      1  0.4925620000000  0.5441380000000  0.4389960000000 1.0
C      1  0.4908140000000  0.5701950000000  0.5136150000000 1.0
C      1  0.4993500000000  0.5069060000000  0.5715440000000 1.0
C      1  0.5990830000000  0.5276800000000  0.4871350000000 1.0
C      1  0.5944750000000  0.5209230000000  0.5180400000000 1.0
C      1  0.5925090000000  0.4919600000000  0.5223560000000 1.0
C      1  0.5927670000000  0.4774710000000  0.4971860000000 1.0
C      1  0.5977520000000  0.4971600000000  0.4762230000000 1.0
C      1  0.4859530000000  0.4704400000000  0.5355760000000 1.0
C      1  0.4788620000000  0.4548820000000  0.4872890000000 1.0
C      1  0.4714180000000  0.5035500000000  0.4582150000000 1.0
C      1  0.4920290000000  0.5429480000000  0.4933010000000 1.0
C      1  0.4802700000000  0.5152450000000  0.5452640000000 1.0
C      1  0.4282430000000  0.4649130000000  0.5099710000000 1.0
C      1  0.4233030000000  0.4880300000000  0.4588720000000 1.0
C      1  0.4380970000000  0.5318890000000  0.4671070000000 1.0
C      1  0.4204510000000  0.5321340000000  0.5176670000000 1.0
C      1  0.4313310000000  0.4844550000000  0.5382050000000 1.0
C      1  0.4138190000000  0.4582000000000  0.4556040000000 1.0
C      1  0.4370740000000  0.5346090000000  0.4350860000000 1.0
C      1  0.4127890000000  0.5635760000000  0.5072120000000 1.0
C      1  0.4238810000000  0.5007000000000  0.5657340000000 1.0
C      1  0.4223160000000  0.4442300000000  0.5358270000000 1.0
C      1  0.5669290000000  0.5091980000000  0.4335100000000 1.0
C      1  0.5692850000000  0.5740070000000  0.4970540000000 1.0
C      1  0.5551640000000  0.5200960000000  0.5514840000000 1.0
C      1  0.5603740000000  0.4553330000000  0.5435700000000 1.0
C      1  0.5620400000000  0.4343880000000  0.4623440000000 1.0
C      1  0.5632660000000  0.4301710000000  0.4347590000000 1.0
C      1  0.5721500000000  0.5351820000000  0.4281160000000 1.0
C      1  0.5705470000000  0.5783430000000  0.5234650000000 1.0
C      1  0.5720740000000  0.5131590000000  0.5754030000000 1.0
C      1  0.5739890000000  0.4324120000000  0.5368180000000 1.0
C      1  0.4607180000000  0.4474630000000  0.4618310000000 1.0
C      1  0.4743360000000  0.5205650000000  0.4331830000000 1.0
C      1  0.4518060000000  0.5711820000000  0.5050030000000 1.0
C      1  0.4644400000000  0.5260050000000  0.5708910000000 1.0
C      1  0.4673180000000  0.4454270000000  0.5490340000000 1.0
C      1  0.5245540000000  0.5040350000000  0.5004240000000 1.0
C      1  0.5552520000000  0.4947780000000  0.4928770000000 1.0
END
