TITL C-2622965-4321-615 -0.000827783967526975 125000 -605.406682840956 0 0 106 (C1) n - 1
REM
REM in /nfs/bkarasulu/CARBON/AIRSS/Generating-Clusters/AIREBO/with-SteepDescent/Higher-Symm/SD-CG/HFTN-CG
REM
REM
REM
REM
REM
REM ./C.cell (b20cbc046b6831c77cfcea5457e17084)
REM
REM compiler GCC version 9.2.1 20190827 (Red Hat 9.2.1-1)
REM options -cpp -mtune=generic -march=x86-64 -g -O0 -fpre-include=/usr/include/finclude/math-vector-fortran.h
REM seed 1369952595 279784801 1712019277 -50083344 2137502919 -1208744693 -1388347109 -1426501043 76614745 934958893 1390663787 1654154872 935780480 -429535958 1078096096 885162383 836032039 440610150 1705398479 -296644929 -48008205 -632549037 -773856493 -113067869 950764378 -391144114 383869276 -1542383376 170757100 -886637369 -379717752 -1987087459 -140314527
REM
CELL 1.54180   50.00000   50.00000   50.00000   90.00000   90.00000   90.00000
LATT -1
SFAC C  
C      1  0.4319500000000  0.4764240000000  0.4591890000000 1.0
C      1  0.5175630000000  0.4769280000000  0.4195790000000 1.0
C      1  0.5821240000000  0.4772280000000  0.4900130000000 1.0
C      1  0.5319460000000  0.4769500000000  0.5728030000000 1.0
C      1  0.4402670000000  0.4776290000000  0.5581320000000 1.0
C      1  0.4304940000000  0.5237420000000  0.4593120000000 1.0
C      1  0.5175510000000  0.5243270000000  0.4187920000000 1.0
C      1  0.5808240000000  0.5244680000000  0.4922170000000 1.0
C      1  0.5325670000000  0.5244740000000  0.5734380000000 1.0
C      1  0.4371460000000  0.5249320000000  0.5532950000000 1.0
C      1  0.5384610000000  0.5814170000000  0.5250840000000 1.0
C      1  0.4869330000000  0.5819600000000  0.5451340000000 1.0
C      1  0.4527040000000  0.5819960000000  0.5023650000000 1.0
C      1  0.4838780000000  0.5814970000000  0.4566170000000 1.0
C      1  0.5370540000000  0.5816330000000  0.4698860000000 1.0
C      1  0.5396730000000  0.4189240000000  0.5276860000000 1.0
C      1  0.4879870000000  0.4225700000000  0.5435300000000 1.0
C      1  0.4544190000000  0.4209190000000  0.5011610000000 1.0
C      1  0.4830460000000  0.4178070000000  0.4547290000000 1.0
C      1  0.5348290000000  0.4206230000000  0.4718180000000 1.0
C      1  0.5636360000000  0.4802050000000  0.4435610000000 1.0
C      1  0.5715770000000  0.4784010000000  0.5420770000000 1.0
C      1  0.4804170000000  0.4811860000000  0.5790120000000 1.0
C      1  0.4165900000000  0.4773790000000  0.5071380000000 1.0
C      1  0.4669610000000  0.4790400000000  0.4218880000000 1.0
C      1  0.5650520000000  0.5209580000000  0.4414930000000 1.0
C      1  0.5743930000000  0.5210070000000  0.5433800000000 1.0
C      1  0.4817550000000  0.5219390000000  0.5858120000000 1.0
C      1  0.4146690000000  0.5212550000000  0.5074060000000 1.0
C      1  0.4665470000000  0.5220380000000  0.4216140000000 1.0
C      1  0.4695180000000  0.5167730000000  0.4550810000000 1.0
C      1  0.5338700000000  0.5163670000000  0.4542440000000 1.0
C      1  0.5523040000000  0.5146030000000  0.5183280000000 1.0
C      1  0.4975300000000  0.5162050000000  0.5561880000000 1.0
C      1  0.4474230000000  0.5171320000000  0.5155660000000 1.0
C      1  0.4707600000000  0.4845530000000  0.4552320000000 1.0
C      1  0.5321510000000  0.4829540000000  0.4561150000000 1.0
C      1  0.5513550000000  0.4823150000000  0.5150130000000 1.0
C      1  0.4993900000000  0.4834060000000  0.5508820000000 1.0
C      1  0.4488670000000  0.4854240000000  0.5142070000000 1.0
C      1  0.4090430000000  0.5513380000000  0.5046650000000 1.0
C      1  0.4671820000000  0.5521280000000  0.4158680000000 1.0
C      1  0.5706540000000  0.5513150000000  0.4417440000000 1.0
C      1  0.5756260000000  0.5511570000000  0.5488280000000 1.0
C      1  0.4779010000000  0.5523740000000  0.5889790000000 1.0
C      1  0.4112060000000  0.4472180000000  0.5037770000000 1.0
C      1  0.4674960000000  0.4493840000000  0.4146550000000 1.0
C      1  0.5698380000000  0.4499840000000  0.4439210000000 1.0
C      1  0.5747910000000  0.4483140000000  0.5491800000000 1.0
C      1  0.4749040000000  0.4515770000000  0.5853430000000 1.0
C      1  0.4618880000000  0.5747890000000  0.4775760000000 1.0
C      1  0.5103630000000  0.5744210000000  0.4557270000000 1.0
C      1  0.5445830000000  0.5745130000000  0.4953230000000 1.0
C      1  0.5166750000000  0.5747200000000  0.5402980000000 1.0
C      1  0.4652960000000  0.5751580000000  0.5297360000000 1.0
C      1  0.4618130000000  0.4256750000000  0.4757360000000 1.0
C      1  0.5094920000000  0.4252370000000  0.4553540000000 1.0
C      1  0.5381220000000  0.4317990000000  0.4987180000000 1.0
C      1  0.5185250000000  0.4248030000000  0.5434370000000 1.0
C      1  0.4715030000000  0.4366250000000  0.5238150000000 1.0
C      1  0.5445330000000  0.5145630000000  0.4158170000000 1.0
C      1  0.5921770000000  0.5141890000000  0.5167330000000 1.0
C      1  0.5134890000000  0.5148300000000  0.5927420000000 1.0
C      1  0.4154080000000  0.5128030000000  0.5389700000000 1.0
C      1  0.4365210000000  0.5141170000000  0.4327910000000 1.0
C      1  0.5444980000000  0.4868640000000  0.4183250000000 1.0
C      1  0.5909720000000  0.4864480000000  0.5167380000000 1.0
C      1  0.5105560000000  0.4873850000000  0.5890460000000 1.0
C      1  0.4177090000000  0.4850490000000  0.5391040000000 1.0
C      1  0.4376540000000  0.4865930000000  0.4329750000000 1.0
C      1  0.4916680000000  0.4360790000000  0.5705360000000 1.0
C      1  0.4325590000000  0.4343970000000  0.5160500000000 1.0
C      1  0.4642900000000  0.4348710000000  0.4373600000000 1.0
C      1  0.5470420000000  0.4359980000000  0.4486300000000 1.0
C      1  0.5656290000000  0.4333110000000  0.5275710000000 1.0
C      1  0.4925780000000  0.5654340000000  0.5702550000000 1.0
C      1  0.4299780000000  0.5655300000000  0.5146830000000 1.0
C      1  0.4641860000000  0.5657540000000  0.4391870000000 1.0
C      1  0.5476220000000  0.5649610000000  0.4464890000000 1.0
C      1  0.5635590000000  0.5644930000000  0.5285270000000 1.0
C      1  0.5203770000000  0.5452140000000  0.4422320000000 1.0
C      1  0.5581640000000  0.5440950000000  0.5023580000000 1.0
C      1  0.5156750000000  0.5449850000000  0.5561850000000 1.0
C      1  0.4497620000000  0.5458730000000  0.5336500000000 1.0
C      1  0.4532180000000  0.5453060000000  0.4639450000000 1.0
C      1  0.5192570000000  0.4546780000000  0.4422660000000 1.0
C      1  0.5657490000000  0.4538310000000  0.5032670000000 1.0
C      1  0.5165470000000  0.4546040000000  0.5566510000000 1.0
C      1  0.4464410000000  0.4577330000000  0.5338020000000 1.0
C      1  0.4552200000000  0.4553360000000  0.4631640000000 1.0
C      1  0.5242820000000  0.5256480000000  0.5120120000000 1.0
C      1  0.4961440000000  0.5263360000000  0.5268690000000 1.0
C      1  0.4756230000000  0.5274590000000  0.5096300000000 1.0
C      1  0.4851170000000  0.5274110000000  0.4794280000000 1.0
C      1  0.5192940000000  0.5293670000000  0.4784500000000 1.0
C      1  0.5269460000000  0.4618100000000  0.5055830000000 1.0
C      1  0.5014830000000  0.4693910000000  0.5227500000000 1.0
C      1  0.4741230000000  0.4657580000000  0.5064450000000 1.0
C      1  0.4876510000000  0.4724670000000  0.4790310000000 1.0
C      1  0.5142140000000  0.4702590000000  0.4786060000000 1.0
C      1  0.4250090000000  0.4997970000000  0.4829450000000 1.0
C      1  0.5712580000000  0.5015650000000  0.4689460000000 1.0
C      1  0.4579680000000  0.5045730000000  0.5687380000000 1.0
C      1  0.4932180000000  0.5006860000000  0.4218600000000 1.0
C      1  0.5507180000000  0.5006600000000  0.5571810000000 1.0
C      1  0.5047010000000  0.5052490000000  0.4943160000000 1.0
END
