TITL C-2622968-4806-269 0.00209044009550228 125000 -962.770259831833 0 0 181 (C1) n - 1
REM
REM in /nfs/bkarasulu/CARBON/AIRSS/Generating-Clusters/AIREBO/with-SteepDescent/Higher-Symm/SD-CG/HFTN-CG
REM
REM
REM
REM
REM
REM ./C.cell (b20cbc046b6831c77cfcea5457e17084)
REM
REM compiler GCC version 9.2.1 20190827 (Red Hat 9.2.1-1)
REM options -cpp -mtune=generic -march=x86-64 -g -O0 -fpre-include=/usr/include/finclude/math-vector-fortran.h
REM seed -1510786785 1660168200 821297160 -1966080950 -1504319393 -1444700207 -856223425 -2042651668 256341940 688531998 -999840669 1793417924 -840388680 642337178 1258891266 -494451826 1673045658 651401727 -1830167106 450737392 -824794805 -830862850 1302255600 -936029993 -460870849 1197326937 -472533189 1631408567 -22530968 1965922158 -268752056 126628152 262123656
REM
CELL 1.54180   50.00000   50.00000   50.00000   90.00000   90.00000   90.00000
LATT -1
SFAC C  
C      1  0.4355360000000  0.5385900000000  0.5356030000000 1.0
C      1  0.4170770000000  0.4627370000000  0.4682270000000 1.0
C      1  0.6016140000000  0.4173840000000  0.4862410000000 1.0
C      1  0.5736860000000  0.5826230000000  0.5193540000000 1.0
C      1  0.4822290000000  0.4766370000000  0.3983340000000 1.0
C      1  0.4772290000000  0.5306980000000  0.6064740000000 1.0
C      1  0.5241310000000  0.5535070000000  0.5889180000000 1.0
C      1  0.5236340000000  0.4436690000000  0.4124410000000 1.0
C      1  0.4650840000000  0.6111250000000  0.4916220000000 1.0
C      1  0.4583860000000  0.3862230000000  0.5144640000000 1.0
C      1  0.4448400000000  0.5558780000000  0.5851000000000 1.0
C      1  0.4446050000000  0.4473460000000  0.4160190000000 1.0
C      1  0.5627200000000  0.5684920000000  0.4400900000000 1.0
C      1  0.5620530000000  0.4394450000000  0.5539450000000 1.0
C      1  0.5203280000000  0.4673930000000  0.4365900000000 1.0
C      1  0.5164400000000  0.5272250000000  0.5687520000000 1.0
C      1  0.5779400000000  0.5891460000000  0.4957730000000 1.0
C      1  0.5845830000000  0.4367850000000  0.4911670000000 1.0
C      1  0.4731940000000  0.4272250000000  0.4622060000000 1.0
C      1  0.4803790000000  0.5640060000000  0.5544480000000 1.0
C      1  0.5094090000000  0.3970150000000  0.5079430000000 1.0
C      1  0.5127790000000  0.5985000000000  0.4954580000000 1.0
C      1  0.5396690000000  0.5303570000000  0.4505220000000 1.0
C      1  0.5420880000000  0.4671570000000  0.5338420000000 1.0
C      1  0.5033430000000  0.5212540000000  0.4997670000000 1.0
C      1  0.4933410000000  0.4723260000000  0.5096910000000 1.0
C      1  0.5066930000000  0.4577310000000  0.3889600000000 1.0
C      1  0.5019050000000  0.5513440000000  0.6108050000000 1.0
C      1  0.5784970000000  0.5733930000000  0.4674330000000 1.0
C      1  0.5672410000000  0.4392090000000  0.5203300000000 1.0
C      1  0.4299680000000  0.5820520000000  0.5195920000000 1.0
C      1  0.4252250000000  0.4174450000000  0.4807120000000 1.0
C      1  0.4225010000000  0.4626810000000  0.5131980000000 1.0
C      1  0.4211940000000  0.5350180000000  0.4934700000000 1.0
C      1  0.3863270000000  0.4772860000000  0.4701940000000 1.0
C      1  0.3825610000000  0.5363090000000  0.5401310000000 1.0
C      1  0.4686010000000  0.5065380000000  0.3979780000000 1.0
C      1  0.4575470000000  0.4904890000000  0.5945600000000 1.0
C      1  0.5518300000000  0.4813100000000  0.4348970000000 1.0
C      1  0.5479920000000  0.5153970000000  0.5639780000000 1.0
C      1  0.5245230000000  0.5099100000000  0.5238420000000 1.0
C      1  0.5258020000000  0.4792510000000  0.4766110000000 1.0
C      1  0.4006840000000  0.4735740000000  0.5369130000000 1.0
C      1  0.4133720000000  0.5231830000000  0.4643760000000 1.0
C      1  0.4277780000000  0.4155390000000  0.5392210000000 1.0
C      1  0.4302740000000  0.5769750000000  0.4627330000000 1.0
C      1  0.5745380000000  0.5183750000000  0.4358480000000 1.0
C      1  0.5729790000000  0.4918400000000  0.5649130000000 1.0
C      1  0.5224260000000  0.4605330000000  0.5007570000000 1.0
C      1  0.5327790000000  0.5348490000000  0.4894920000000 1.0
C      1  0.4966390000000  0.5941480000000  0.4447420000000 1.0
C      1  0.4935230000000  0.4030190000000  0.5585850000000 1.0
C      1  0.4890340000000  0.4284340000000  0.5282770000000 1.0
C      1  0.4973200000000  0.5706960000000  0.4693520000000 1.0
C      1  0.6067060000000  0.4806350000000  0.4713950000000 1.0
C      1  0.6006930000000  0.5332320000000  0.5233620000000 1.0
C      1  0.4937870000000  0.5110580000000  0.5491910000000 1.0
C      1  0.4964910000000  0.4880850000000  0.4516490000000 1.0
C      1  0.5315970000000  0.4721620000000  0.5799870000000 1.0
C      1  0.5354830000000  0.5345250000000  0.4169560000000 1.0
C      1  0.4076850000000  0.4851160000000  0.4449220000000 1.0
C      1  0.4128060000000  0.5239480000000  0.5500620000000 1.0
C      1  0.5520990000000  0.5139740000000  0.5969030000000 1.0
C      1  0.5543740000000  0.4883110000000  0.4048460000000 1.0
C      1  0.4779930000000  0.5082050000000  0.5183220000000 1.0
C      1  0.4834690000000  0.4904280000000  0.4829780000000 1.0
C      1  0.6192050000000  0.5510670000000  0.5281620000000 1.0
C      1  0.6280940000000  0.4633790000000  0.4652610000000 1.0
C      1  0.4285540000000  0.5650930000000  0.4916020000000 1.0
C      1  0.4214590000000  0.4312090000000  0.5109830000000 1.0
C      1  0.5585930000000  0.6007340000000  0.4632500000000 1.0
C      1  0.5533470000000  0.4088220000000  0.5267370000000 1.0
C      1  0.5741350000000  0.4577790000000  0.4688530000000 1.0
C      1  0.5639270000000  0.5296970000000  0.5384070000000 1.0
C      1  0.5847390000000  0.5314250000000  0.4962410000000 1.0
C      1  0.5984610000000  0.4809330000000  0.5033170000000 1.0
C      1  0.5966630000000  0.5497970000000  0.4742650000000 1.0
C      1  0.5986930000000  0.4512540000000  0.5250560000000 1.0
C      1  0.4251020000000  0.5662420000000  0.5420920000000 1.0
C      1  0.4193910000000  0.4347570000000  0.4589700000000 1.0
C      1  0.5054130000000  0.4243890000000  0.4585060000000 1.0
C      1  0.5275890000000  0.5702570000000  0.5428650000000 1.0
C      1  0.4649530000000  0.5740600000000  0.5898240000000 1.0
C      1  0.4701260000000  0.4360990000000  0.4217760000000 1.0
C      1  0.4704510000000  0.4672820000000  0.5915680000000 1.0
C      1  0.4827540000000  0.5309110000000  0.4018460000000 1.0
C      1  0.4892990000000  0.4599500000000  0.4248150000000 1.0
C      1  0.4863260000000  0.5414940000000  0.5755140000000 1.0
C      1  0.4897640000000  0.5499050000000  0.5120940000000 1.0
C      1  0.4834070000000  0.4420220000000  0.4978880000000 1.0
C      1  0.5522720000000  0.4370440000000  0.4680570000000 1.0
C      1  0.5578070000000  0.5583730000000  0.5327490000000 1.0
C      1  0.4830150000000  0.4605470000000  0.5618180000000 1.0
C      1  0.4891760000000  0.5372440000000  0.4490100000000 1.0
C      1  0.5500960000000  0.4373230000000  0.4054760000000 1.0
C      1  0.5504070000000  0.5527760000000  0.5992960000000 1.0
C      1  0.4841610000000  0.3963580000000  0.5280500000000 1.0
C      1  0.4871370000000  0.6025730000000  0.4761800000000 1.0
C      1  0.4773870000000  0.3943410000000  0.4667990000000 1.0
C      1  0.4821040000000  0.5939020000000  0.5383170000000 1.0
C      1  0.3892420000000  0.5027230000000  0.5379460000000 1.0
C      1  0.3947460000000  0.5062740000000  0.4850140000000 1.0
C      1  0.4559460000000  0.5399960000000  0.4422310000000 1.0
C      1  0.4495810000000  0.4545530000000  0.5599620000000 1.0
C      1  0.5080600000000  0.4203690000000  0.4260380000000 1.0
C      1  0.5174010000000  0.5769160000000  0.5699030000000 1.0
C      1  0.4781040000000  0.4071320000000  0.4351770000000 1.0
C      1  0.4881340000000  0.5911610000000  0.5717780000000 1.0
C      1  0.5595120000000  0.5216430000000  0.4768430000000 1.0
C      1  0.5680160000000  0.4729870000000  0.5162920000000 1.0
C      1  0.5361800000000  0.4264670000000  0.5580560000000 1.0
C      1  0.5359530000000  0.5785810000000  0.4390450000000 1.0
C      1  0.4485720000000  0.5707020000000  0.4438230000000 1.0
C      1  0.4466280000000  0.4225020000000  0.5574250000000 1.0
C      1  0.4749210000000  0.4367900000000  0.5928970000000 1.0
C      1  0.4715670000000  0.5525120000000  0.4166390000000 1.0
C      1  0.6182510000000  0.4683310000000  0.5356410000000 1.0
C      1  0.6137010000000  0.5355420000000  0.4587470000000 1.0
C      1  0.5234970000000  0.5385830000000  0.5377880000000 1.0
C      1  0.5242250000000  0.4486300000000  0.4627170000000 1.0
C      1  0.4970920000000  0.4801330000000  0.5425700000000 1.0
C      1  0.5060170000000  0.5163810000000  0.4661980000000 1.0
C      1  0.5669490000000  0.5444620000000  0.4251900000000 1.0
C      1  0.5625260000000  0.4646980000000  0.5679870000000 1.0
C      1  0.4717180000000  0.4166640000000  0.5723230000000 1.0
C      1  0.4714990000000  0.5832200000000  0.4282690000000 1.0
C      1  0.4599850000000  0.5628540000000  0.5019180000000 1.0
C      1  0.4546460000000  0.4252040000000  0.5063770000000 1.0
C      1  0.5217030000000  0.5531400000000  0.4659960000000 1.0
C      1  0.5151290000000  0.4465950000000  0.5309140000000 1.0
C      1  0.4698220000000  0.4721560000000  0.4490960000000 1.0
C      1  0.4630870000000  0.5167180000000  0.5543490000000 1.0
C      1  0.4652110000000  0.4540790000000  0.4724580000000 1.0
C      1  0.4681350000000  0.5429600000000  0.5355570000000 1.0
C      1  0.5392770000000  0.5582700000000  0.5069720000000 1.0
C      1  0.5415160000000  0.4356500000000  0.4983630000000 1.0
C      1  0.4241430000000  0.4961380000000  0.4192080000000 1.0
C      1  0.4243470000000  0.5073760000000  0.5729280000000 1.0
C      1  0.5511180000000  0.5120810000000  0.3975080000000 1.0
C      1  0.5475780000000  0.4898200000000  0.6042570000000 1.0
C      1  0.5035640000000  0.6086380000000  0.5238860000000 1.0
C      1  0.5001180000000  0.3848650000000  0.4816600000000 1.0
C      1  0.4462190000000  0.4959300000000  0.5414890000000 1.0
C      1  0.4481130000000  0.4912100000000  0.4416900000000 1.0
C      1  0.5174090000000  0.5350140000000  0.3677240000000 1.0
C      1  0.4691390000000  0.5194600000000  0.6309460000000 1.0
C      1  0.5110930000000  0.4235520000000  0.4908770000000 1.0
C      1  0.5116880000000  0.5712750000000  0.5130330000000 1.0
C      1  0.5101660000000  0.5336150000000  0.3942520000000 1.0
C      1  0.5081270000000  0.4741340000000  0.6011470000000 1.0
C      1  0.4229210000000  0.5664130000000  0.5703160000000 1.0
C      1  0.4236290000000  0.4347930000000  0.4306990000000 1.0
C      1  0.5216190000000  0.4043480000000  0.5388440000000 1.0
C      1  0.5246310000000  0.5990720000000  0.4634480000000 1.0
C      1  0.6126080000000  0.4958810000000  0.5288890000000 1.0
C      1  0.6087260000000  0.5098590000000  0.4547370000000 1.0
C      1  0.5135080000000  0.5548850000000  0.4330440000000 1.0
C      1  0.5145630000000  0.4487160000000  0.5647860000000 1.0
C      1  0.5281010000000  0.4907030000000  0.5516750000000 1.0
C      1  0.5337880000000  0.5000830000000  0.4552060000000 1.0
C      1  0.4430240000000  0.4724950000000  0.4879240000000 1.0
C      1  0.4476880000000  0.5207620000000  0.5093240000000 1.0
C      1  0.4744940000000  0.5516760000000  0.4755790000000 1.0
C      1  0.4614020000000  0.4481140000000  0.5305800000000 1.0
C      1  0.4523400000000  0.5226400000000  0.5847510000000 1.0
C      1  0.4487490000000  0.4789070000000  0.4038120000000 1.0
C      1  0.5913510000000  0.5111340000000  0.5461220000000 1.0
C      1  0.5819480000000  0.4879980000000  0.4492490000000 1.0
C      1  0.4265700000000  0.4764230000000  0.5590320000000 1.0
C      1  0.4328540000000  0.5206460000000  0.4418500000000 1.0
C      1  0.4465860000000  0.4991220000000  0.4723390000000 1.0
C      1  0.4253350000000  0.4964760000000  0.5158400000000 1.0
C      1  0.4596750000000  0.5932440000000  0.5170230000000 1.0
C      1  0.4520670000000  0.3991350000000  0.4852130000000 1.0
C      1  0.3935230000000  0.4771480000000  0.5028390000000 1.0
C      1  0.3952680000000  0.5233630000000  0.5116080000000 1.0
C      1  0.4610060000000  0.4788170000000  0.5160940000000 1.0
C      1  0.4675930000000  0.5205120000000  0.4817560000000 1.0
C      1  0.5643730000000  0.4887720000000  0.4783460000000 1.0
C      1  0.5687120000000  0.5069000000000  0.5135120000000 1.0
C      1  0.5398860000000  0.4965000000000  0.5006340000000 1.0
END
