TITL C-2622959-7779-726 -0.00101779120463404 125000 -963.305553925372 0 0 182 (C1) n - 1
REM
REM in /nfs/bkarasulu/CARBON/AIRSS/Generating-Clusters/AIREBO/with-SteepDescent/Higher-Symm/SD-CG/HFTN-CG
REM
REM
REM
REM
REM
REM ./C.cell (b20cbc046b6831c77cfcea5457e17084)
REM
REM compiler GCC version 9.2.1 20190827 (Red Hat 9.2.1-1)
REM options -cpp -mtune=generic -march=x86-64 -g -O0 -fpre-include=/usr/include/finclude/math-vector-fortran.h
REM seed 1672086849 -1566199542 1176240606 568784040 -1220326143 -808983120 -790092356 1605869272 -1150606291 -1492381169 -1707217077 61065860 -157541271 -1535861 1092460835 578953159 278105006 -849669893 -295288941 1152593502 -404964453 1919136519 -82407663 -2100064264 727181190 66228955 1196419566 323584769 -1143035318 2146752192 1659564647 -1564767563 -1300980086
REM
CELL 1.54180   50.00000   50.00000   50.00000   90.00000   90.00000   90.00000
LATT -1
SFAC C  
C      1  0.5132210000000  0.4549260000000  0.3992530000000 1.0
C      1  0.4950790000000  0.5463330000000  0.4060490000000 1.0
C      1  0.4963750000000  0.5648370000000  0.6124760000000 1.0
C      1  0.4932020000000  0.4476420000000  0.6034050000000 1.0
C      1  0.4595370000000  0.5155580000000  0.3965040000000 1.0
C      1  0.5466020000000  0.5008850000000  0.3889570000000 1.0
C      1  0.5552280000000  0.5071970000000  0.6071540000000 1.0
C      1  0.4515890000000  0.4922890000000  0.5997360000000 1.0
C      1  0.4269100000000  0.4875820000000  0.4185770000000 1.0
C      1  0.5713870000000  0.5227430000000  0.4231280000000 1.0
C      1  0.4344680000000  0.5126210000000  0.5776210000000 1.0
C      1  0.5665240000000  0.4825760000000  0.5854230000000 1.0
C      1  0.4755520000000  0.4255590000000  0.4195030000000 1.0
C      1  0.5160110000000  0.5649180000000  0.4256410000000 1.0
C      1  0.5148420000000  0.4291010000000  0.5820470000000 1.0
C      1  0.4813370000000  0.5710840000000  0.5826280000000 1.0
C      1  0.4316640000000  0.5053700000000  0.5057530000000 1.0
C      1  0.5698800000000  0.5129570000000  0.5217310000000 1.0
C      1  0.4399870000000  0.5049380000000  0.4727770000000 1.0
C      1  0.5657510000000  0.4965500000000  0.4922350000000 1.0
C      1  0.5029220000000  0.4486420000000  0.5121700000000 1.0
C      1  0.5002810000000  0.5641230000000  0.5130580000000 1.0
C      1  0.4971350000000  0.4361960000000  0.4810580000000 1.0
C      1  0.4927140000000  0.5684400000000  0.4811700000000 1.0
C      1  0.4599720000000  0.5195650000000  0.4486320000000 1.0
C      1  0.5553940000000  0.4862880000000  0.4616000000000 1.0
C      1  0.4649340000000  0.4840640000000  0.5365260000000 1.0
C      1  0.5501590000000  0.5083690000000  0.5464620000000 1.0
C      1  0.5179760000000  0.4509600000000  0.4503870000000 1.0
C      1  0.4810060000000  0.5424570000000  0.4625520000000 1.0
C      1  0.4851210000000  0.4582570000000  0.5395460000000 1.0
C      1  0.5187710000000  0.5506830000000  0.5376790000000 1.0
C      1  0.4637270000000  0.4860290000000  0.4031550000000 1.0
C      1  0.5317930000000  0.4939540000000  0.4187940000000 1.0
C      1  0.4756550000000  0.4947050000000  0.5771240000000 1.0
C      1  0.5266730000000  0.4962620000000  0.5816970000000 1.0
C      1  0.4857540000000  0.4628850000000  0.4103070000000 1.0
C      1  0.5037910000000  0.5122540000000  0.4249140000000 1.0
C      1  0.5096660000000  0.4678050000000  0.5822870000000 1.0
C      1  0.5012200000000  0.5377010000000  0.5918500000000 1.0
C      1  0.5114750000000  0.5337530000000  0.4501220000000 1.0
C      1  0.4874140000000  0.4606120000000  0.4417280000000 1.0
C      1  0.5156840000000  0.4580850000000  0.5513360000000 1.0
C      1  0.4848240000000  0.5374690000000  0.5620540000000 1.0
C      1  0.5364990000000  0.5102760000000  0.4465020000000 1.0
C      1  0.4720420000000  0.4904480000000  0.4358320000000 1.0
C      1  0.4652370000000  0.5141320000000  0.5524060000000 1.0
C      1  0.5376310000000  0.4788500000000  0.5553510000000 1.0
C      1  0.4855650000000  0.4370100000000  0.5661310000000 1.0
C      1  0.5113240000000  0.5668440000000  0.5666960000000 1.0
C      1  0.4844220000000  0.5660360000000  0.4382790000000 1.0
C      1  0.5081980000000  0.4263950000000  0.4289820000000 1.0
C      1  0.4410540000000  0.4838160000000  0.5607440000000 1.0
C      1  0.5721980000000  0.5132660000000  0.5719020000000 1.0
C      1  0.5736040000000  0.4987560000000  0.4358230000000 1.0
C      1  0.4337440000000  0.5122370000000  0.4282330000000 1.0
C      1  0.5179690000000  0.4787660000000  0.5073290000000 1.0
C      1  0.5012900000000  0.5215290000000  0.5369250000000 1.0
C      1  0.4986560000000  0.5269380000000  0.4871360000000 1.0
C      1  0.5067490000000  0.4680390000000  0.4775720000000 1.0
C      1  0.4789990000000  0.5069630000000  0.5156680000000 1.0
C      1  0.5252890000000  0.5040950000000  0.5272310000000 1.0
C      1  0.5251300000000  0.5085850000000  0.4956960000000 1.0
C      1  0.4886650000000  0.4953890000000  0.4865770000000 1.0
C      1  0.4779730000000  0.5947560000000  0.4502550000000 1.0
C      1  0.5191890000000  0.3952700000000  0.4507440000000 1.0
C      1  0.4800710000000  0.4138780000000  0.5442990000000 1.0
C      1  0.5175990000000  0.6010190000000  0.5429000000000 1.0
C      1  0.5960620000000  0.4831700000000  0.4508960000000 1.0
C      1  0.3945070000000  0.5216740000000  0.4640050000000 1.0
C      1  0.4071780000000  0.4865950000000  0.5598920000000 1.0
C      1  0.6044290000000  0.5114480000000  0.5627050000000 1.0
C      1  0.5640420000000  0.4545580000000  0.4705770000000 1.0
C      1  0.4318570000000  0.5420980000000  0.4849540000000 1.0
C      1  0.5719820000000  0.5468810000000  0.5191780000000 1.0
C      1  0.4401160000000  0.4739450000000  0.5156050000000 1.0
C      1  0.4546640000000  0.5599260000000  0.4751280000000 1.0
C      1  0.5382040000000  0.4354850000000  0.4730690000000 1.0
C      1  0.5441380000000  0.5635090000000  0.5188350000000 1.0
C      1  0.4483690000000  0.4408120000000  0.5151840000000 1.0
C      1  0.4123610000000  0.4692390000000  0.5321730000000 1.0
C      1  0.5908310000000  0.5368530000000  0.5456470000000 1.0
C      1  0.4137590000000  0.5408100000000  0.4615370000000 1.0
C      1  0.5776250000000  0.4588600000000  0.4429490000000 1.0
C      1  0.4549550000000  0.4306290000000  0.5416540000000 1.0
C      1  0.5333060000000  0.5957000000000  0.5209040000000 1.0
C      1  0.5323250000000  0.4042160000000  0.4747280000000 1.0
C      1  0.4533810000000  0.5886870000000  0.4629990000000 1.0
C      1  0.4508870000000  0.5710560000000  0.5672850000000 1.0
C      1  0.5452510000000  0.4316950000000  0.5667120000000 1.0
C      1  0.4470110000000  0.4326850000000  0.4365790000000 1.0
C      1  0.5481770000000  0.5640690000000  0.4368490000000 1.0
C      1  0.5692160000000  0.4561730000000  0.5642970000000 1.0
C      1  0.4284560000000  0.5448790000000  0.5682280000000 1.0
C      1  0.4230980000000  0.4571800000000  0.4333560000000 1.0
C      1  0.5754260000000  0.5465480000000  0.4428090000000 1.0
C      1  0.5919500000000  0.5624190000000  0.4990990000000 1.0
C      1  0.4233010000000  0.4453060000000  0.4844380000000 1.0
C      1  0.5850450000000  0.4524070000000  0.4952420000000 1.0
C      1  0.4228900000000  0.5435390000000  0.5131990000000 1.0
C      1  0.5459170000000  0.5819200000000  0.4827350000000 1.0
C      1  0.4409700000000  0.4177390000000  0.4936020000000 1.0
C      1  0.4462940000000  0.5882240000000  0.5133430000000 1.0
C      1  0.5529330000000  0.4122360000000  0.5101610000000 1.0
C      1  0.5409210000000  0.4763910000000  0.6056000000000 1.0
C      1  0.4497670000000  0.5259530000000  0.6041440000000 1.0
C      1  0.5515460000000  0.5253150000000  0.4040430000000 1.0
C      1  0.4374160000000  0.4662190000000  0.3972170000000 1.0
C      1  0.4699210000000  0.5458400000000  0.6023450000000 1.0
C      1  0.5269970000000  0.4487800000000  0.6069770000000 1.0
C      1  0.5257290000000  0.5352770000000  0.4128790000000 1.0
C      1  0.4597040000000  0.4464550000000  0.3997480000000 1.0
C      1  0.5356080000000  0.4411010000000  0.5065090000000 1.0
C      1  0.4600500000000  0.5587360000000  0.5078620000000 1.0
C      1  0.5247040000000  0.5484610000000  0.4953300000000 1.0
C      1  0.4690700000000  0.4519390000000  0.4911610000000 1.0
C      1  0.4570400000000  0.5263460000000  0.5015550000000 1.0
C      1  0.5577670000000  0.4668590000000  0.5078610000000 1.0
C      1  0.5497920000000  0.5264320000000  0.4893010000000 1.0
C      1  0.4433650000000  0.4721550000000  0.4818020000000 1.0
C      1  0.6056250000000  0.4711330000000  0.5136150000000 1.0
C      1  0.3932970000000  0.5270540000000  0.5149070000000 1.0
C      1  0.6132490000000  0.5421040000000  0.4989410000000 1.0
C      1  0.3921150000000  0.4558660000000  0.4913020000000 1.0
C      1  0.4726600000000  0.6035210000000  0.5162050000000 1.0
C      1  0.5358420000000  0.3903020000000  0.5246290000000 1.0
C      1  0.5373310000000  0.6125490000000  0.4751460000000 1.0
C      1  0.4665890000000  0.4044890000000  0.4836020000000 1.0
C      1  0.5772340000000  0.4139870000000  0.5279370000000 1.0
C      1  0.4205470000000  0.5896350000000  0.5249850000000 1.0
C      1  0.5689970000000  0.5856820000000  0.4633660000000 1.0
C      1  0.4126110000000  0.4075790000000  0.4784300000000 1.0
C      1  0.4083980000000  0.5660970000000  0.5306560000000 1.0
C      1  0.5932350000000  0.4354120000000  0.5226630000000 1.0
C      1  0.5902350000000  0.5708800000000  0.4706160000000 1.0
C      1  0.3993580000000  0.4319950000000  0.4642870000000 1.0
C      1  0.5585180000000  0.5261070000000  0.4608090000000 1.0
C      1  0.4476940000000  0.4708880000000  0.4482290000000 1.0
C      1  0.5614800000000  0.4718500000000  0.5362420000000 1.0
C      1  0.4420940000000  0.5335980000000  0.5394450000000 1.0
C      1  0.5275800000000  0.5605570000000  0.4636720000000 1.0
C      1  0.4654470000000  0.4471890000000  0.4598230000000 1.0
C      1  0.4669440000000  0.5570620000000  0.5407810000000 1.0
C      1  0.5271110000000  0.4313510000000  0.5384140000000 1.0
C      1  0.3916360000000  0.4752850000000  0.5114350000000 1.0
C      1  0.6083340000000  0.5235180000000  0.5196480000000 1.0
C      1  0.3920770000000  0.5022450000000  0.5011300000000 1.0
C      1  0.6057380000000  0.4983300000000  0.5068310000000 1.0
C      1  0.4900030000000  0.3988840000000  0.4980610000000 1.0
C      1  0.5202200000000  0.6078440000000  0.4986270000000 1.0
C      1  0.5203040000000  0.3925110000000  0.4980870000000 1.0
C      1  0.4931590000000  0.5991860000000  0.4957790000000 1.0
C      1  0.5546730000000  0.4048040000000  0.5490410000000 1.0
C      1  0.4632780000000  0.5970170000000  0.5482540000000 1.0
C      1  0.5400380000000  0.5952950000000  0.4459710000000 1.0
C      1  0.4642360000000  0.4081870000000  0.4527890000000 1.0
C      1  0.4029230000000  0.5364730000000  0.5464420000000 1.0
C      1  0.5978530000000  0.4598370000000  0.5447950000000 1.0
C      1  0.5959600000000  0.5374200000000  0.4683990000000 1.0
C      1  0.4019810000000  0.4652170000000  0.4575220000000 1.0
C      1  0.5378510000000  0.5487100000000  0.5727730000000 1.0
C      1  0.4530770000000  0.4466870000000  0.5694170000000 1.0
C      1  0.5412000000000  0.4257520000000  0.4210240000000 1.0
C      1  0.4522340000000  0.5565710000000  0.4326050000000 1.0
C      1  0.5611890000000  0.5435920000000  0.5611340000000 1.0
C      1  0.4221490000000  0.4555890000000  0.5621280000000 1.0
C      1  0.4282110000000  0.5409800000000  0.4374400000000 1.0
C      1  0.5601340000000  0.4491980000000  0.4235280000000 1.0
C      1  0.4078740000000  0.4936640000000  0.4722680000000 1.0
C      1  0.5949700000000  0.5043780000000  0.4767010000000 1.0
C      1  0.4195920000000  0.5081760000000  0.5375660000000 1.0
C      1  0.5877090000000  0.4921890000000  0.5419920000000 1.0
C      1  0.4942300000000  0.4172620000000  0.4577750000000 1.0
C      1  0.5092080000000  0.5888860000000  0.4595700000000 1.0
C      1  0.5006530000000  0.4165030000000  0.5230440000000 1.0
C      1  0.4920320000000  0.5799910000000  0.5419760000000 1.0
C      1  0.4704760000000  0.5337000000000  0.4194980000000 1.0
C      1  0.4689350000000  0.4647640000000  0.5896020000000 1.0
C      1  0.5322310000000  0.4645240000000  0.4226560000000 1.0
C      1  0.5305490000000  0.5262020000000  0.5935080000000 1.0
C      1  0.5015520000000  0.5016380000000  0.5631840000000 1.0
C      1  0.4987300000000  0.4981560000000  0.4554410000000 1.0
END
