TITL C-2622962-9663-167 0.00222684410764925 125000 -827.754191782671 0 0 152 (C1) n - 1
REM
REM in /nfs/bkarasulu/CARBON/AIRSS/Generating-Clusters/AIREBO/with-SteepDescent/Higher-Symm/SD-CG/HFTN-CG
REM
REM
REM
REM
REM
REM ./C.cell (b20cbc046b6831c77cfcea5457e17084)
REM
REM compiler GCC version 9.2.1 20190827 (Red Hat 9.2.1-1)
REM options -cpp -mtune=generic -march=x86-64 -g -O0 -fpre-include=/usr/include/finclude/math-vector-fortran.h
REM seed -852927716 -1337641783 -1856548679 -1983220461 1973180897 1169772517 -554462155 -567648680 -1109227238 1762546440 729426581 -958209570 386614829 948051408 -1800684619 -236039700 -1752803220 -574313639 1147381957 683598586 861752080 -1030532997 868086862 -205295648 2086375624 2044882195 1743288510 679684242 1051389009 -1245318392 -1428754489 1460396305 -1552143852
REM
CELL 1.54180   50.00000   50.00000   50.00000   90.00000   90.00000   90.00000
LATT -1
SFAC C  
C      1  0.5019690000000  0.6040580000000  0.4872370000000 1.0
C      1  0.5480750000000  0.5237750000000  0.4357070000000 1.0
C      1  0.5284560000000  0.5454670000000  0.5649270000000 1.0
C      1  0.4844210000000  0.5348970000000  0.4626580000000 1.0
C      1  0.5074360000000  0.5202490000000  0.4829880000000 1.0
C      1  0.5220810000000  0.5554260000000  0.4703190000000 1.0
C      1  0.4457780000000  0.4879080000000  0.5546170000000 1.0
C      1  0.5644480000000  0.5731500000000  0.5377220000000 1.0
C      1  0.5530040000000  0.4986210000000  0.4763850000000 1.0
C      1  0.4632470000000  0.4196730000000  0.4736010000000 1.0
C      1  0.4261410000000  0.5824510000000  0.4443730000000 1.0
C      1  0.4045320000000  0.4490750000000  0.5053900000000 1.0
C      1  0.5189790000000  0.5688590000000  0.4417760000000 1.0
C      1  0.5657010000000  0.5233450000000  0.6045820000000 1.0
C      1  0.5288150000000  0.3836850000000  0.4762910000000 1.0
C      1  0.5317910000000  0.4670440000000  0.5176260000000 1.0
C      1  0.6074120000000  0.4879540000000  0.4908910000000 1.0
C      1  0.4492750000000  0.4672970000000  0.5018640000000 1.0
C      1  0.4698050000000  0.6034270000000  0.4857350000000 1.0
C      1  0.5138650000000  0.5914990000000  0.5334620000000 1.0
C      1  0.4537940000000  0.5375190000000  0.4518490000000 1.0
C      1  0.4302470000000  0.5686850000000  0.5728370000000 1.0
C      1  0.5004030000000  0.5334740000000  0.4369850000000 1.0
C      1  0.5408820000000  0.5080640000000  0.5240200000000 1.0
C      1  0.5472470000000  0.3882490000000  0.5006690000000 1.0
C      1  0.4902320000000  0.5718460000000  0.5729460000000 1.0
C      1  0.5173170000000  0.5236530000000  0.5420130000000 1.0
C      1  0.4576480000000  0.5080140000000  0.5298820000000 1.0
C      1  0.5481990000000  0.4238460000000  0.5387400000000 1.0
C      1  0.4431870000000  0.4240680000000  0.5446890000000 1.0
C      1  0.4245530000000  0.5145260000000  0.5254720000000 1.0
C      1  0.4883140000000  0.4328280000000  0.4598030000000 1.0
C      1  0.4986480000000  0.5876360000000  0.4438370000000 1.0
C      1  0.4534360000000  0.5683400000000  0.4523490000000 1.0
C      1  0.5430000000000  0.4967900000000  0.5560450000000 1.0
C      1  0.5147860000000  0.4838120000000  0.5418760000000 1.0
C      1  0.3931380000000  0.5088970000000  0.5645350000000 1.0
C      1  0.5645010000000  0.4766590000000  0.5877700000000 1.0
C      1  0.6050520000000  0.5178900000000  0.5169500000000 1.0
C      1  0.5173100000000  0.3889580000000  0.5416390000000 1.0
C      1  0.5505300000000  0.5012990000000  0.4102980000000 1.0
C      1  0.5369550000000  0.5273100000000  0.4676520000000 1.0
C      1  0.3953010000000  0.4904740000000  0.4647750000000 1.0
C      1  0.4380650000000  0.5728340000000  0.5168340000000 1.0
C      1  0.5069750000000  0.5651860000000  0.5474330000000 1.0
C      1  0.4917610000000  0.4309140000000  0.4283160000000 1.0
C      1  0.4338540000000  0.4563300000000  0.5497310000000 1.0
C      1  0.4601780000000  0.5947170000000  0.5133970000000 1.0
C      1  0.4944600000000  0.5519930000000  0.5980390000000 1.0
C      1  0.5599400000000  0.5223560000000  0.4997560000000 1.0
C      1  0.4596220000000  0.5059940000000  0.5750670000000 1.0
C      1  0.5073290000000  0.5467270000000  0.4106470000000 1.0
C      1  0.5741460000000  0.5217920000000  0.5567100000000 1.0
C      1  0.4068110000000  0.5376100000000  0.4897230000000 1.0
C      1  0.4834250000000  0.5029770000000  0.4172250000000 1.0
C      1  0.4795810000000  0.4928470000000  0.5897150000000 1.0
C      1  0.5170870000000  0.5099180000000  0.4376600000000 1.0
C      1  0.4778580000000  0.5799070000000  0.4664440000000 1.0
C      1  0.4585620000000  0.4857390000000  0.4137740000000 1.0
C      1  0.5088310000000  0.4311670000000  0.4862230000000 1.0
C      1  0.4739580000000  0.4984760000000  0.5016070000000 1.0
C      1  0.5409260000000  0.5941680000000  0.5296540000000 1.0
C      1  0.4508030000000  0.4509260000000  0.4738070000000 1.0
C      1  0.4356320000000  0.5012720000000  0.4108590000000 1.0
C      1  0.5201720000000  0.3820350000000  0.5148660000000 1.0
C      1  0.4322910000000  0.4237460000000  0.4649580000000 1.0
C      1  0.5605880000000  0.4124530000000  0.5102090000000 1.0
C      1  0.4601860000000  0.4682360000000  0.5329040000000 1.0
C      1  0.6005320000000  0.4847580000000  0.5231740000000 1.0
C      1  0.5382700000000  0.5521220000000  0.4206950000000 1.0
C      1  0.4351320000000  0.5249390000000  0.4744470000000 1.0
C      1  0.6141720000000  0.5039480000000  0.4676420000000 1.0
C      1  0.3817670000000  0.4920090000000  0.5211550000000 1.0
C      1  0.4555490000000  0.5411670000000  0.5371560000000 1.0
C      1  0.4265520000000  0.4405080000000  0.5205100000000 1.0
C      1  0.4544500000000  0.4680100000000  0.4493820000000 1.0
C      1  0.4570320000000  0.5017330000000  0.4757230000000 1.0
C      1  0.5003920000000  0.4370720000000  0.5452600000000 1.0
C      1  0.5208470000000  0.4385320000000  0.4185390000000 1.0
C      1  0.5884380000000  0.4543600000000  0.5138710000000 1.0
C      1  0.4951730000000  0.4738480000000  0.4979280000000 1.0
C      1  0.5357050000000  0.4454490000000  0.4795690000000 1.0
C      1  0.5440320000000  0.5474640000000  0.5150800000000 1.0
C      1  0.3908840000000  0.4751030000000  0.4950320000000 1.0
C      1  0.4910820000000  0.5259650000000  0.5119690000000 1.0
C      1  0.5565530000000  0.5774930000000  0.5052000000000 1.0
C      1  0.4177380000000  0.5600530000000  0.4681500000000 1.0
C      1  0.5593600000000  0.4547550000000  0.5438290000000 1.0
C      1  0.5576770000000  0.5760740000000  0.4295260000000 1.0
C      1  0.5553290000000  0.4752250000000  0.4244930000000 1.0
C      1  0.5113300000000  0.5529970000000  0.5159230000000 1.0
C      1  0.5995540000000  0.5289890000000  0.4704360000000 1.0
C      1  0.4270520000000  0.4716650000000  0.4362210000000 1.0
C      1  0.5312230000000  0.4745550000000  0.4655200000000 1.0
C      1  0.5220130000000  0.5889120000000  0.4762300000000 1.0
C      1  0.5552590000000  0.4456790000000  0.5052590000000 1.0
C      1  0.4942370000000  0.5218100000000  0.3993800000000 1.0
C      1  0.4126860000000  0.4937990000000  0.4429080000000 1.0
C      1  0.5199000000000  0.4941250000000  0.5008510000000 1.0
C      1  0.5805910000000  0.5302200000000  0.4493820000000 1.0
C      1  0.4738510000000  0.4959340000000  0.4490910000000 1.0
C      1  0.5533880000000  0.4372690000000  0.4541450000000 1.0
C      1  0.4918170000000  0.4434850000000  0.5128500000000 1.0
C      1  0.4930580000000  0.4630770000000  0.4682210000000 1.0
C      1  0.5037410000000  0.3997600000000  0.4929670000000 1.0
C      1  0.5224430000000  0.4148170000000  0.5472690000000 1.0
C      1  0.4184450000000  0.5450410000000  0.5179400000000 1.0
C      1  0.5908170000000  0.4609270000000  0.4666590000000 1.0
C      1  0.4737730000000  0.4066490000000  0.5003380000000 1.0
C      1  0.5686210000000  0.4985910000000  0.4457430000000 1.0
C      1  0.5894080000000  0.5293030000000  0.4972410000000 1.0
C      1  0.5966210000000  0.5102260000000  0.5456550000000 1.0
C      1  0.5054400000000  0.5035200000000  0.5917380000000 1.0
C      1  0.5607750000000  0.4811230000000  0.5223920000000 1.0
C      1  0.5110830000000  0.4635500000000  0.4393910000000 1.0
C      1  0.4588210000000  0.4356650000000  0.5098930000000 1.0
C      1  0.4429930000000  0.5545010000000  0.4884200000000 1.0
C      1  0.5565830000000  0.5438110000000  0.5465870000000 1.0
C      1  0.5799980000000  0.4301960000000  0.5323720000000 1.0
C      1  0.4733920000000  0.4203470000000  0.5564710000000 1.0
C      1  0.4173440000000  0.4987210000000  0.3906160000000 1.0
C      1  0.5806110000000  0.4364720000000  0.4596280000000 1.0
C      1  0.5468320000000  0.4491500000000  0.4292650000000 1.0
C      1  0.5625060000000  0.5077020000000  0.5817470000000 1.0
C      1  0.5040340000000  0.4947740000000  0.4626410000000 1.0
C      1  0.5472560000000  0.4599810000000  0.5707610000000 1.0
C      1  0.4108870000000  0.4135980000000  0.4560590000000 1.0
C      1  0.4868060000000  0.4680310000000  0.5484360000000 1.0
C      1  0.5644710000000  0.5855910000000  0.4540360000000 1.0
C      1  0.5247200000000  0.4841590000000  0.5805440000000 1.0
C      1  0.4785980000000  0.4622660000000  0.4281520000000 1.0
C      1  0.5110580000000  0.5301420000000  0.5895410000000 1.0
C      1  0.3994450000000  0.5033710000000  0.5384110000000 1.0
C      1  0.4188940000000  0.5503660000000  0.4372070000000 1.0
C      1  0.4050430000000  0.5056390000000  0.4917440000000 1.0
C      1  0.4657820000000  0.5545580000000  0.5844260000000 1.0
C      1  0.4933170000000  0.6012360000000  0.5174430000000 1.0
C      1  0.4289440000000  0.5212530000000  0.4351230000000 1.0
C      1  0.4346430000000  0.5639540000000  0.5480640000000 1.0
C      1  0.4583790000000  0.5327890000000  0.5685250000000 1.0
C      1  0.5973920000000  0.4848710000000  0.4517560000000 1.0
C      1  0.4830570000000  0.4636580000000  0.5814520000000 1.0
C      1  0.5141670000000  0.4528050000000  0.5730500000000 1.0
C      1  0.5391690000000  0.5675400000000  0.5838730000000 1.0
C      1  0.5750070000000  0.4776640000000  0.4916950000000 1.0
C      1  0.4343190000000  0.4943480000000  0.4999230000000 1.0
C      1  0.4632330000000  0.4015350000000  0.5301390000000 1.0
C      1  0.4745990000000  0.4330200000000  0.5853910000000 1.0
C      1  0.4670710000000  0.5474780000000  0.5074340000000 1.0
C      1  0.4925340000000  0.5571440000000  0.4870700000000 1.0
C      1  0.4901980000000  0.5072640000000  0.5403540000000 1.0
C      1  0.5511550000000  0.5867660000000  0.4783210000000 1.0
END
