TITL C-2622967-6265-607 7.13124953419192e-05 125000 -796.17910022368 0 0 142 (C1) n - 1
REM
REM in /nfs/bkarasulu/CARBON/AIRSS/Generating-Clusters/AIREBO/with-SteepDescent/Higher-Symm/SD-CG/HFTN-CG
REM
REM
REM
REM
REM
REM ./C.cell (b20cbc046b6831c77cfcea5457e17084)
REM
REM compiler GCC version 9.2.1 20190827 (Red Hat 9.2.1-1)
REM options -cpp -mtune=generic -march=x86-64 -g -O0 -fpre-include=/usr/include/finclude/math-vector-fortran.h
REM seed 510303986 -1403554550 1401557355 787623922 1606202381 931537732 1106778818 1684779338 1179052185 -1132827556 -1351605091 -166834045 -1308575847 42692488 646183636 86388363 -2036193700 187174567 1533144272 1523307271 1985377455 979211846 2038408691 1164159602 -1447532509 1372206794 -960142881 -1436525735 876838093 -497917736 1102210645 -1880028232 1692762409
REM
CELL 1.54180   50.00000   50.00000   50.00000   90.00000   90.00000   90.00000
LATT -1
SFAC C  
C      1  0.5546110000000  0.4820590000000  0.5708700000000 1.0
C      1  0.5415610000000  0.4224200000000  0.5068240000000 1.0
C      1  0.5434970000000  0.4833650000000  0.4258860000000 1.0
C      1  0.5509100000000  0.5697430000000  0.4468670000000 1.0
C      1  0.5501330000000  0.5740700000000  0.5391950000000 1.0
C      1  0.4478960000000  0.4967210000000  0.5864810000000 1.0
C      1  0.4497760000000  0.4190240000000  0.5219260000000 1.0
C      1  0.4426580000000  0.4548030000000  0.4261560000000 1.0
C      1  0.4569380000000  0.5450990000000  0.4372610000000 1.0
C      1  0.4474890000000  0.5759620000000  0.5305010000000 1.0
C      1  0.4846760000000  0.5488380000000  0.4328850000000 1.0
C      1  0.4770100000000  0.5852590000000  0.5230330000000 1.0
C      1  0.4801460000000  0.5012190000000  0.5890730000000 1.0
C      1  0.4794900000000  0.4185260000000  0.5241950000000 1.0
C      1  0.4710170000000  0.4464700000000  0.4258130000000 1.0
C      1  0.4345460000000  0.4828340000000  0.4191830000000 1.0
C      1  0.4488370000000  0.5610100000000  0.4580770000000 1.0
C      1  0.4480360000000  0.5587820000000  0.5524680000000 1.0
C      1  0.4398190000000  0.4709490000000  0.5799990000000 1.0
C      1  0.4396650000000  0.4212050000000  0.4960940000000 1.0
C      1  0.6057720000000  0.4770020000000  0.4748580000000 1.0
C      1  0.5902670000000  0.4754350000000  0.4455280000000 1.0
C      1  0.6031950000000  0.5262750000000  0.4797290000000 1.0
C      1  0.5940420000000  0.5368990000000  0.5275260000000 1.0
C      1  0.5950160000000  0.5035580000000  0.5330490000000 1.0
C      1  0.5006910000000  0.5009660000000  0.4159500000000 1.0
C      1  0.5214720000000  0.5555990000000  0.4694240000000 1.0
C      1  0.5180460000000  0.5504950000000  0.5364050000000 1.0
C      1  0.5079270000000  0.4631110000000  0.5803250000000 1.0
C      1  0.5028780000000  0.4164290000000  0.4829170000000 1.0
C      1  0.5329060000000  0.5301880000000  0.4346000000000 1.0
C      1  0.5467190000000  0.5870880000000  0.5017220000000 1.0
C      1  0.5490120000000  0.5229030000000  0.5715910000000 1.0
C      1  0.5313090000000  0.4501830000000  0.5423110000000 1.0
C      1  0.5336240000000  0.4488560000000  0.4594940000000 1.0
C      1  0.6151540000000  0.5517340000000  0.5241170000000 1.0
C      1  0.5771160000000  0.5172720000000  0.5571150000000 1.0
C      1  0.5845280000000  0.4510580000000  0.5324780000000 1.0
C      1  0.5858020000000  0.4538960000000  0.4676070000000 1.0
C      1  0.5807950000000  0.5318280000000  0.4654550000000 1.0
C      1  0.5334430000000  0.4601710000000  0.5685490000000 1.0
C      1  0.5295480000000  0.4227400000000  0.4809440000000 1.0
C      1  0.5292700000000  0.5066140000000  0.4195200000000 1.0
C      1  0.5398540000000  0.5839730000000  0.4730610000000 1.0
C      1  0.5408170000000  0.5517350000000  0.5606870000000 1.0
C      1  0.4539450000000  0.5146810000000  0.4376270000000 1.0
C      1  0.4544070000000  0.5613870000000  0.5002470000000 1.0
C      1  0.4551590000000  0.5221750000000  0.5662330000000 1.0
C      1  0.4543520000000  0.4475290000000  0.5398850000000 1.0
C      1  0.4497760000000  0.4512930000000  0.4592310000000 1.0
C      1  0.4278870000000  0.4667430000000  0.5148950000000 1.0
C      1  0.4266770000000  0.4815890000000  0.4708350000000 1.0
C      1  0.4233070000000  0.5215540000000  0.4612980000000 1.0
C      1  0.4271600000000  0.5289490000000  0.5104250000000 1.0
C      1  0.4303950000000  0.4988430000000  0.5457940000000 1.0
C      1  0.4833100000000  0.4107050000000  0.4378910000000 1.0
C      1  0.4871280000000  0.5246780000000  0.4011150000000 1.0
C      1  0.5024300000000  0.5901420000000  0.4831400000000 1.0
C      1  0.5063600000000  0.5409030000000  0.5803100000000 1.0
C      1  0.4948660000000  0.4278340000000  0.5667550000000 1.0
C      1  0.4976960000000  0.5063440000000  0.5425860000000 1.0
C      1  0.4963900000000  0.4668310000000  0.5130370000000 1.0
C      1  0.5023730000000  0.4691270000000  0.4737000000000 1.0
C      1  0.4996300000000  0.5082980000000  0.4663190000000 1.0
C      1  0.4981500000000  0.5417550000000  0.5031320000000 1.0
C      1  0.5305030000000  0.5225410000000  0.4670590000000 1.0
C      1  0.5308580000000  0.5379770000000  0.5072100000000 1.0
C      1  0.5241930000000  0.5035740000000  0.5285230000000 1.0
C      1  0.5261140000000  0.4724760000000  0.5211960000000 1.0
C      1  0.5321450000000  0.4762140000000  0.4800890000000 1.0
C      1  0.4555380000000  0.4844290000000  0.4530770000000 1.0
C      1  0.4548110000000  0.5198360000000  0.4712410000000 1.0
C      1  0.4593270000000  0.5305850000000  0.5164060000000 1.0
C      1  0.4560100000000  0.4907240000000  0.5300330000000 1.0
C      1  0.4578380000000  0.4577910000000  0.5076570000000 1.0
C      1  0.5590840000000  0.4554560000000  0.4804660000000 1.0
C      1  0.5614020000000  0.5084780000000  0.4634890000000 1.0
C      1  0.5553620000000  0.5567830000000  0.4977070000000 1.0
C      1  0.5487160000000  0.5199340000000  0.5381110000000 1.0
C      1  0.5575720000000  0.4746960000000  0.5154370000000 1.0
C      1  0.4955900000000  0.5399420000000  0.4591540000000 1.0
C      1  0.4865900000000  0.5563690000000  0.5291440000000 1.0
C      1  0.4918930000000  0.4840080000000  0.5653890000000 1.0
C      1  0.4902920000000  0.4351660000000  0.5021760000000 1.0
C      1  0.4872190000000  0.4612860000000  0.4465820000000 1.0
C      1  0.4888580000000  0.4444040000000  0.5956890000000 1.0
C      1  0.4844780000000  0.4022890000000  0.4679730000000 1.0
C      1  0.4974850000000  0.4699460000000  0.4090650000000 1.0
C      1  0.5027860000000  0.5784940000000  0.4525710000000 1.0
C      1  0.5039290000000  0.5653870000000  0.5635460000000 1.0
C      1  0.5092730000000  0.5153690000000  0.5961150000000 1.0
C      1  0.5008720000000  0.4147010000000  0.5424250000000 1.0
C      1  0.4994950000000  0.4322650000000  0.4224640000000 1.0
C      1  0.5000570000000  0.5504530000000  0.4071370000000 1.0
C      1  0.5029450000000  0.5999470000000  0.5120110000000 1.0
C      1  0.5262370000000  0.4242620000000  0.5313070000000 1.0
C      1  0.5222870000000  0.4567980000000  0.4283560000000 1.0
C      1  0.5224020000000  0.5617520000000  0.4301450000000 1.0
C      1  0.5262760000000  0.5879300000000  0.5249900000000 1.0
C      1  0.5309890000000  0.5001540000000  0.5846660000000 1.0
C      1  0.4191100000000  0.4957510000000  0.4413550000000 1.0
C      1  0.4287700000000  0.5480430000000  0.4823200000000 1.0
C      1  0.4308440000000  0.5315150000000  0.5443400000000 1.0
C      1  0.4270680000000  0.4660100000000  0.5488840000000 1.0
C      1  0.4266240000000  0.4502840000000  0.4841200000000 1.0
C      1  0.4745740000000  0.5346090000000  0.5912250000000 1.0
C      1  0.4647700000000  0.4336770000000  0.5661430000000 1.0
C      1  0.4539270000000  0.4190520000000  0.4492420000000 1.0
C      1  0.4624140000000  0.5094670000000  0.4087950000000 1.0
C      1  0.4694480000000  0.5906740000000  0.4917310000000 1.0
C      1  0.4726680000000  0.5579950000000  0.5672610000000 1.0
C      1  0.4563130000000  0.4498810000000  0.5895390000000 1.0
C      1  0.4525610000000  0.4050700000000  0.4766180000000 1.0
C      1  0.4651400000000  0.4798200000000  0.4045810000000 1.0
C      1  0.4703260000000  0.5793310000000  0.4627660000000 1.0
C      1  0.4869830000000  0.4930520000000  0.4433880000000 1.0
C      1  0.4749130000000  0.5417930000000  0.4814840000000 1.0
C      1  0.4753550000000  0.5270850000000  0.5419420000000 1.0
C      1  0.4782290000000  0.4717250000000  0.5389780000000 1.0
C      1  0.4732370000000  0.4542990000000  0.4824950000000 1.0
C      1  0.5641130000000  0.4421560000000  0.5084120000000 1.0
C      1  0.5663060000000  0.4890900000000  0.4407660000000 1.0
C      1  0.5667030000000  0.5548700000000  0.4692150000000 1.0
C      1  0.5647850000000  0.5458900000000  0.5268000000000 1.0
C      1  0.5734870000000  0.4800040000000  0.5448000000000 1.0
C      1  0.3634880000000  0.4996360000000  0.5018110000000 1.0
C      1  0.2837480000000  0.4983330000000  0.4987870000000 1.0
C      1  0.6873780000000  0.5010000000000  0.5098970000000 1.0
C      1  0.7397710000000  0.5060290000000  0.5139260000000 1.0
C      1  0.5679730000000  0.4973200000000  0.4949270000000 1.0
C      1  0.3897990000000  0.4977260000000  0.5023800000000 1.0
C      1  0.3368620000000  0.4990350000000  0.5019660000000 1.0
C      1  0.2577230000000  0.4983820000000  0.4956630000000 1.0
C      1  0.4560550000000  0.5023520000000  0.4989010000000 1.0
C      1  0.7136520000000  0.5039820000000  0.5131290000000 1.0
C      1  0.4855420000000  0.4910580000000  0.4920420000000 1.0
C      1  0.6608130000000  0.5001770000000  0.5081440000000 1.0
C      1  0.6348070000000  0.4985550000000  0.5039480000000 1.0
C      1  0.4221730000000  0.4968890000000  0.5002440000000 1.0
C      1  0.5351270000000  0.5059970000000  0.4964130000000 1.0
C      1  0.6015370000000  0.4995540000000  0.4999050000000 1.0
C      1  0.3103140000000  0.4999320000000  0.4999560000000 1.0
END
