TITL C-2622968-4806-3 0.00177123590562253 125000 -891.670814628174 0 0 153 (C1) n - 1
REM
REM in /nfs/bkarasulu/CARBON/AIRSS/Generating-Clusters/AIREBO/with-SteepDescent/Higher-Symm/SD-CG/HFTN-CG
REM
REM
REM
REM
REM
REM ./C.cell (b20cbc046b6831c77cfcea5457e17084)
REM
REM compiler GCC version 9.2.1 20190827 (Red Hat 9.2.1-1)
REM options -cpp -mtune=generic -march=x86-64 -g -O0 -fpre-include=/usr/include/finclude/math-vector-fortran.h
REM seed 1437313411 1388980541 1773493100 814901613 1918545173 147571889 -894450865 2018774616 -1968109477 712860056 1534916100 -73320005 1705333577 43774609 2093804022 -800684863 1145830629 2011773777 2138366480 221331585 -973625011 2056979628 1878418614 -1513113367 -1304406002 -1124717186 -92081949 1460985165 98338449 1838573244 -246134784 248122256 -729441970
REM
CELL 1.54180   50.00000   50.00000   50.00000   90.00000   90.00000   90.00000
LATT -1
SFAC C  
C      1  0.5397570000000  0.5702710000000  0.5211610000000 1.0
C      1  0.4904780000000  0.5821790000000  0.5149610000000 1.0
C      1  0.4385830000000  0.5497750000000  0.5161610000000 1.0
C      1  0.4186540000000  0.4916370000000  0.5099730000000 1.0
C      1  0.4410410000000  0.4418260000000  0.5155390000000 1.0
C      1  0.4865270000000  0.4202470000000  0.5215910000000 1.0
C      1  0.5355460000000  0.4270200000000  0.5112420000000 1.0
C      1  0.5764550000000  0.4739680000000  0.5142200000000 1.0
C      1  0.5782140000000  0.5348210000000  0.5135700000000 1.0
C      1  0.4876070000000  0.4607530000000  0.4416410000000 1.0
C      1  0.5138770000000  0.4796810000000  0.4382000000000 1.0
C      1  0.5315130000000  0.5016280000000  0.4399500000000 1.0
C      1  0.5264910000000  0.5286640000000  0.4329800000000 1.0
C      1  0.5032090000000  0.5445530000000  0.4328790000000 1.0
C      1  0.4764150000000  0.5406920000000  0.4405700000000 1.0
C      1  0.4579850000000  0.5216000000000  0.4359980000000 1.0
C      1  0.4615450000000  0.4972730000000  0.4229880000000 1.0
C      1  0.4633730000000  0.4723960000000  0.4353660000000 1.0
C      1  0.5811010000000  0.5161310000000  0.4349880000000 1.0
C      1  0.5523040000000  0.5766670000000  0.4329790000000 1.0
C      1  0.4988920000000  0.5973690000000  0.4291230000000 1.0
C      1  0.4414970000000  0.5788490000000  0.4461450000000 1.0
C      1  0.4102080000000  0.5117380000000  0.4360540000000 1.0
C      1  0.4321670000000  0.4487940000000  0.4273060000000 1.0
C      1  0.4836270000000  0.4137680000000  0.4314610000000 1.0
C      1  0.5359050000000  0.4312570000000  0.4222450000000 1.0
C      1  0.5873010000000  0.4307950000000  0.4463310000000 1.0
C      1  0.5474840000000  0.4755120000000  0.5082110000000 1.0
C      1  0.5519110000000  0.5258560000000  0.5044240000000 1.0
C      1  0.5270810000000  0.5486770000000  0.5010020000000 1.0
C      1  0.4954290000000  0.5526470000000  0.5124030000000 1.0
C      1  0.4654570000000  0.5365560000000  0.5122520000000 1.0
C      1  0.4467810000000  0.4919220000000  0.5006240000000 1.0
C      1  0.4597630000000  0.4648450000000  0.5149090000000 1.0
C      1  0.4911870000000  0.4518800000000  0.5141520000000 1.0
C      1  0.5235420000000  0.4531870000000  0.5031950000000 1.0
C      1  0.5111480000000  0.5329690000000  0.5339080000000 1.0
C      1  0.4912290000000  0.5204170000000  0.5486910000000 1.0
C      1  0.4691770000000  0.5132500000000  0.5326830000000 1.0
C      1  0.4602920000000  0.4879140000000  0.5378950000000 1.0
C      1  0.4758400000000  0.4729420000000  0.5565650000000 1.0
C      1  0.4975800000000  0.4628800000000  0.5434190000000 1.0
C      1  0.5210830000000  0.4758730000000  0.5470110000000 1.0
C      1  0.5335390000000  0.4913050000000  0.5289920000000 1.0
C      1  0.5320490000000  0.5176750000000  0.5257030000000 1.0
C      1  0.5400790000000  0.5000810000000  0.5951450000000 1.0
C      1  0.5403270000000  0.5335860000000  0.5976190000000 1.0
C      1  0.5098350000000  0.5458460000000  0.5931790000000 1.0
C      1  0.4768420000000  0.5460470000000  0.6014070000000 1.0
C      1  0.4609430000000  0.5162600000000  0.5971800000000 1.0
C      1  0.4493420000000  0.4850820000000  0.5985270000000 1.0
C      1  0.4736840000000  0.4647790000000  0.5862090000000 1.0
C      1  0.5052510000000  0.4562280000000  0.5955530000000 1.0
C      1  0.5369340000000  0.4668250000000  0.5990690000000 1.0
C      1  0.4317430000000  0.5076270000000  0.5816240000000 1.0
C      1  0.4402080000000  0.4550280000000  0.5854710000000 1.0
C      1  0.4814490000000  0.4319610000000  0.5905830000000 1.0
C      1  0.5308350000000  0.4372800000000  0.5834800000000 1.0
C      1  0.5648930000000  0.4789960000000  0.5853100000000 1.0
C      1  0.5647380000000  0.5186840000000  0.5808460000000 1.0
C      1  0.5369780000000  0.5645710000000  0.5848480000000 1.0
C      1  0.4905060000000  0.5706870000000  0.5829530000000 1.0
C      1  0.4465980000000  0.5448940000000  0.5874440000000 1.0
C      1  0.5086310000000  0.6058940000000  0.4052170000000 1.0
C      1  0.4425180000000  0.5973140000000  0.4260740000000 1.0
C      1  0.4048900000000  0.5246590000000  0.4125630000000 1.0
C      1  0.4263060000000  0.4542190000000  0.4017430000000 1.0
C      1  0.4722070000000  0.4112270000000  0.4073470000000 1.0
C      1  0.5351660000000  0.4304360000000  0.3954110000000 1.0
C      1  0.5924740000000  0.4052870000000  0.4400740000000 1.0
C      1  0.5886880000000  0.5087340000000  0.4097380000000 1.0
C      1  0.5641630000000  0.5800830000000  0.4085550000000 1.0
C      1  0.5429570000000  0.4146870000000  0.5354480000000 1.0
C      1  0.5906510000000  0.4719310000000  0.5389930000000 1.0
C      1  0.5914610000000  0.5364570000000  0.5387400000000 1.0
C      1  0.5498580000000  0.5897140000000  0.5408790000000 1.0
C      1  0.4842580000000  0.5973210000000  0.5377160000000 1.0
C      1  0.4284950000000  0.5611400000000  0.5405190000000 1.0
C      1  0.4058500000000  0.4962840000000  0.5354390000000 1.0
C      1  0.4271410000000  0.4319630000000  0.5389050000000 1.0
C      1  0.4806650000000  0.4057290000000  0.5458690000000 1.0
C      1  0.6202380000000  0.4827520000000  0.5043400000000 1.0
C      1  0.6158810000000  0.5596820000000  0.5062820000000 1.0
C      1  0.5437650000000  0.5971970000000  0.4919670000000 1.0
C      1  0.4883970000000  0.6276390000000  0.5028580000000 1.0
C      1  0.3935750000000  0.5596390000000  0.5100500000000 1.0
C      1  0.3757970000000  0.4755890000000  0.5059500000000 1.0
C      1  0.4212700000000  0.4023970000000  0.5029280000000 1.0
C      1  0.4854960000000  0.3752580000000  0.5111160000000 1.0
C      1  0.5454240000000  0.3830560000000  0.5012910000000 1.0
C      1  0.5634790000000  0.4976920000000  0.4508950000000 1.0
C      1  0.5503720000000  0.5487820000000  0.4449220000000 1.0
C      1  0.5097710000000  0.5740920000000  0.4469900000000 1.0
C      1  0.4660960000000  0.5634560000000  0.4603010000000 1.0
C      1  0.4316780000000  0.5222640000000  0.4549790000000 1.0
C      1  0.4372420000000  0.4652470000000  0.4554320000000 1.0
C      1  0.4847250000000  0.4324770000000  0.4603320000000 1.0
C      1  0.5259620000000  0.4510750000000  0.4378610000000 1.0
C      1  0.5652280000000  0.4487080000000  0.4650310000000 1.0
C      1  0.4099200000000  0.4745390000000  0.4656950000000 1.0
C      1  0.4525380000000  0.4253990000000  0.4687350000000 1.0
C      1  0.5048020000000  0.4104920000000  0.4767950000000 1.0
C      1  0.5531950000000  0.4195080000000  0.4638280000000 1.0
C      1  0.5822030000000  0.4774100000000  0.4660410000000 1.0
C      1  0.5717460000000  0.5547680000000  0.4706800000000 1.0
C      1  0.5187000000000  0.5944500000000  0.4727650000000 1.0
C      1  0.4722590000000  0.5936970000000  0.4667520000000 1.0
C      1  0.4191870000000  0.5452360000000  0.4700200000000 1.0
C      1  0.5349400000000  0.4093150000000  0.4850660000000 1.0
C      1  0.5940070000000  0.4802040000000  0.4930300000000 1.0
C      1  0.5919360000000  0.5499210000000  0.4940960000000 1.0
C      1  0.5583940000000  0.5715770000000  0.4927140000000 1.0
C      1  0.4927310000000  0.5992310000000  0.4882150000000 1.0
C      1  0.4168980000000  0.5478190000000  0.4974000000000 1.0
C      1  0.4010530000000  0.4778180000000  0.4919660000000 1.0
C      1  0.4393180000000  0.4232530000000  0.4935480000000 1.0
C      1  0.4902590000000  0.4015280000000  0.5009220000000 1.0
C      1  0.5428000000000  0.5963020000000  0.4491360000000 1.0
C      1  0.4768560000000  0.6078670000000  0.4436060000000 1.0
C      1  0.4172300000000  0.5685220000000  0.4549530000000 1.0
C      1  0.3966370000000  0.4896700000000  0.4461450000000 1.0
C      1  0.4362920000000  0.4264270000000  0.4458610000000 1.0
C      1  0.4970640000000  0.3960150000000  0.4496370000000 1.0
C      1  0.5488160000000  0.4117160000000  0.4380050000000 1.0
C      1  0.5987700000000  0.4577650000000  0.4457690000000 1.0
C      1  0.5887310000000  0.5384080000000  0.4479430000000 1.0
C      1  0.4754180000000  0.4151600000000  0.5712370000000 1.0
C      1  0.5382310000000  0.4271520000000  0.5601930000000 1.0
C      1  0.5774340000000  0.4722200000000  0.5633490000000 1.0
C      1  0.5808660000000  0.5258310000000  0.5619220000000 1.0
C      1  0.5468170000000  0.5817780000000  0.5676060000000 1.0
C      1  0.4879830000000  0.5871370000000  0.5631890000000 1.0
C      1  0.4395150000000  0.5563890000000  0.5651840000000 1.0
C      1  0.4194540000000  0.5034240000000  0.5587060000000 1.0
C      1  0.4291140000000  0.4446610000000  0.5637300000000 1.0
C      1  0.4745880000000  0.5374690000000  0.4805400000000 1.0
C      1  0.4566800000000  0.5114030000000  0.4745540000000 1.0
C      1  0.4613980000000  0.4775550000000  0.4748490000000 1.0
C      1  0.4851220000000  0.4591040000000  0.4814830000000 1.0
C      1  0.5161860000000  0.4557550000000  0.4700890000000 1.0
C      1  0.5436050000000  0.4729270000000  0.4751360000000 1.0
C      1  0.5448550000000  0.5068880000000  0.4772720000000 1.0
C      1  0.5331330000000  0.5369200000000  0.4712930000000 1.0
C      1  0.5026110000000  0.5518980000000  0.4717930000000 1.0
C      1  0.5467560000000  0.6094840000000  0.5177280000000 1.0
C      1  0.4816670000000  0.6245390000000  0.5297650000000 1.0
C      1  0.4011760000000  0.5692940000000  0.5355710000000 1.0
C      1  0.3783050000000  0.4876750000000  0.5316370000000 1.0
C      1  0.4139930000000  0.4076530000000  0.5299540000000 1.0
C      1  0.4799530000000  0.3775050000000  0.5388110000000 1.0
C      1  0.5506280000000  0.3880810000000  0.5283790000000 1.0
C      1  0.6186540000000  0.4762980000000  0.5321280000000 1.0
C      1  0.6157730000000  0.5517370000000  0.5337190000000 1.0
END
