TITL C-2622966-9038-142 -4.48036533987324 125000 -685.004715912881 0 0 117 (C1) n - 1
REM
REM in /nfs/bkarasulu/CARBON/AIRSS/Generating-Clusters/AIREBO/with-SteepDescent/Higher-Symm/SD-CG/HFTN-CG
REM
REM
REM
REM
REM
REM ./C.cell (b20cbc046b6831c77cfcea5457e17084)
REM
REM compiler GCC version 9.2.1 20190827 (Red Hat 9.2.1-1)
REM options -cpp -mtune=generic -march=x86-64 -g -O0 -fpre-include=/usr/include/finclude/math-vector-fortran.h
REM seed 2006333631 1069938566 -320099603 -1939267163 90594375 2041137477 -673684636 1897331303 987675558 -156060593 -2055064405 -275500651 -1305490538 1271360605 413916791 -472444978 -1330839536 -1839101710 664154511 -199819316 919268500 1935481347 -1821202090 1847748938 712283897 782113148 1968854447 -538619926 642848803 -1858057593 -1900961252 2019538245 581565992
REM
CELL 1.54180   50.00000   50.00000   50.00000   90.00000   90.00000   90.00000
LATT -1
SFAC C  
C      1  0.5438940000000  0.4452230000000  0.5502320000000 1.0
C      1  0.5571060000000  0.5614010000000  0.5159550000000 1.0
C      1  0.5569280000000  0.4866930000000  0.4295650000000 1.0
C      1  0.4451350000000  0.4413610000000  0.5439400000000 1.0
C      1  0.4432830000000  0.5600840000000  0.5229170000000 1.0
C      1  0.4466760000000  0.4811310000000  0.4364160000000 1.0
C      1  0.5595490000000  0.5543990000000  0.5481520000000 1.0
C      1  0.5465060000000  0.4295370000000  0.5264780000000 1.0
C      1  0.5564880000000  0.5174320000000  0.4408980000000 1.0
C      1  0.4498910000000  0.5504430000000  0.5515830000000 1.0
C      1  0.4388490000000  0.4356140000000  0.5130430000000 1.0
C      1  0.4412580000000  0.5127940000000  0.4398680000000 1.0
C      1  0.5110110000000  0.4712330000000  0.3924310000000 1.0
C      1  0.5013620000000  0.4329110000000  0.5868930000000 1.0
C      1  0.5096330000000  0.6016610000000  0.5299800000000 1.0
C      1  0.4859730000000  0.4694100000000  0.3963720000000 1.0
C      1  0.4751360000000  0.4241520000000  0.5828020000000 1.0
C      1  0.4853410000000  0.6020190000000  0.5230000000000 1.0
C      1  0.5109940000000  0.5298800000000  0.4006560000000 1.0
C      1  0.5208660000000  0.5735210000000  0.5805510000000 1.0
C      1  0.5016080000000  0.3899350000000  0.5196790000000 1.0
C      1  0.4857530000000  0.5332920000000  0.4029340000000 1.0
C      1  0.4932790000000  0.5704760000000  0.5810110000000 1.0
C      1  0.4765680000000  0.3943790000000  0.5171430000000 1.0
C      1  0.5666110000000  0.5481960000000  0.4537910000000 1.0
C      1  0.5581810000000  0.4309580000000  0.5005580000000 1.0
C      1  0.5700450000000  0.5278730000000  0.5539020000000 1.0
C      1  0.4328150000000  0.5456810000000  0.4417070000000 1.0
C      1  0.4408930000000  0.4368610000000  0.4789540000000 1.0
C      1  0.4383280000000  0.5262420000000  0.5608220000000 1.0
C      1  0.5636090000000  0.4629350000000  0.4441670000000 1.0
C      1  0.5590910000000  0.5685640000000  0.4821110000000 1.0
C      1  0.5571680000000  0.4690500000000  0.5567330000000 1.0
C      1  0.4361680000000  0.4502400000000  0.4470360000000 1.0
C      1  0.4356120000000  0.5742660000000  0.4924600000000 1.0
C      1  0.4398490000000  0.4671900000000  0.5524020000000 1.0
C      1  0.5112530000000  0.5148980000000  0.4727480000000 1.0
C      1  0.5307240000000  0.4704950000000  0.5025300000000 1.0
C      1  0.5274690000000  0.5112880000000  0.5352250000000 1.0
C      1  0.4779680000000  0.5112880000000  0.4666500000000 1.0
C      1  0.4832730000000  0.4711730000000  0.4955620000000 1.0
C      1  0.4764350000000  0.5175870000000  0.5224670000000 1.0
C      1  0.5306080000000  0.4877980000000  0.4731090000000 1.0
C      1  0.5175010000000  0.5313470000000  0.4971840000000 1.0
C      1  0.5150580000000  0.4848010000000  0.5275080000000 1.0
C      1  0.4837610000000  0.4811160000000  0.4704310000000 1.0
C      1  0.4907150000000  0.5416970000000  0.5091560000000 1.0
C      1  0.4878060000000  0.4891690000000  0.5160900000000 1.0
C      1  0.5670480000000  0.5109050000000  0.5319050000000 1.0
C      1  0.5736400000000  0.5198490000000  0.4701590000000 1.0
C      1  0.5769030000000  0.4528820000000  0.4934410000000 1.0
C      1  0.4285950000000  0.5119640000000  0.5383590000000 1.0
C      1  0.4279300000000  0.5268960000000  0.4685870000000 1.0
C      1  0.4238570000000  0.4607710000000  0.4961090000000 1.0
C      1  0.5668390000000  0.4829780000000  0.5342370000000 1.0
C      1  0.5783460000000  0.4674240000000  0.4691000000000 1.0
C      1  0.5639960000000  0.5380060000000  0.4922550000000 1.0
C      1  0.4237400000000  0.4832260000000  0.5365610000000 1.0
C      1  0.4380310000000  0.4751570000000  0.4687540000000 1.0
C      1  0.4366560000000  0.5419600000000  0.4949190000000 1.0
C      1  0.4942730000000  0.5001320000000  0.5989810000000 1.0
C      1  0.4791400000000  0.5905480000000  0.4766850000000 1.0
C      1  0.4897470000000  0.4362480000000  0.4431880000000 1.0
C      1  0.5215110000000  0.5020720000000  0.6011120000000 1.0
C      1  0.5029730000000  0.5939510000000  0.4616080000000 1.0
C      1  0.5183440000000  0.4195810000000  0.4418810000000 1.0
C      1  0.4676090000000  0.5122350000000  0.6031900000000 1.0
C      1  0.4919270000000  0.4054530000000  0.4589150000000 1.0
C      1  0.4761650000000  0.5661670000000  0.4331290000000 1.0
C      1  0.5329730000000  0.5249080000000  0.5863910000000 1.0
C      1  0.5234650000000  0.3979010000000  0.4675730000000 1.0
C      1  0.5065170000000  0.5669560000000  0.4425580000000 1.0
C      1  0.5599910000000  0.5155550000000  0.5775440000000 1.0
C      1  0.5378030000000  0.5573490000000  0.4502430000000 1.0
C      1  0.5374630000000  0.4255330000000  0.4763850000000 1.0
C      1  0.4505840000000  0.5088460000000  0.5803130000000 1.0
C      1  0.4490800000000  0.5680580000000  0.4457600000000 1.0
C      1  0.4711320000000  0.4244120000000  0.4763440000000 1.0
C      1  0.5407130000000  0.4875200000000  0.5757310000000 1.0
C      1  0.5399900000000  0.4427050000000  0.4484650000000 1.0
C      1  0.5295770000000  0.5802530000000  0.4721150000000 1.0
C      1  0.4572110000000  0.4815860000000  0.5681870000000 1.0
C      1  0.4587350000000  0.4275810000000  0.4448390000000 1.0
C      1  0.4502000000000  0.5835860000000  0.4702530000000 1.0
C      1  0.4782020000000  0.5439970000000  0.4588390000000 1.0
C      1  0.4886650000000  0.4423040000000  0.4964510000000 1.0
C      1  0.4872810000000  0.5222370000000  0.5533930000000 1.0
C      1  0.5157990000000  0.5346260000000  0.4489740000000 1.0
C      1  0.5192180000000  0.4396780000000  0.4991750000000 1.0
C      1  0.5182780000000  0.5297290000000  0.5581260000000 1.0
C      1  0.4937890000000  0.4654360000000  0.4465780000000 1.0
C      1  0.4770240000000  0.5581030000000  0.4852900000000 1.0
C      1  0.4867890000000  0.4941620000000  0.5686970000000 1.0
C      1  0.5241080000000  0.4707400000000  0.4458140000000 1.0
C      1  0.5223410000000  0.5624630000000  0.4964240000000 1.0
C      1  0.5131750000000  0.4772640000000  0.5585500000000 1.0
C      1  0.4664930000000  0.4284060000000  0.5559200000000 1.0
C      1  0.4700180000000  0.5757160000000  0.5126500000000 1.0
C      1  0.4758070000000  0.4784880000000  0.4241710000000 1.0
C      1  0.5135330000000  0.4456940000000  0.5605810000000 1.0
C      1  0.5272640000000  0.5753850000000  0.5244630000000 1.0
C      1  0.5295310000000  0.4818380000000  0.4140890000000 1.0
C      1  0.4806140000000  0.5544630000000  0.5576020000000 1.0
C      1  0.4690990000000  0.4253390000000  0.5162450000000 1.0
C      1  0.4694440000000  0.5270400000000  0.4310620000000 1.0
C      1  0.5353980000000  0.5569430000000  0.5628180000000 1.0
C      1  0.5185010000000  0.4159710000000  0.5235890000000 1.0
C      1  0.5255470000000  0.5132700000000  0.4264270000000 1.0
C      1  0.5619250000000  0.4921330000000  0.4713430000000 1.0
C      1  0.5603560000000  0.4694290000000  0.5110830000000 1.0
C      1  0.4467210000000  0.5199760000000  0.5147030000000 1.0
C      1  0.4344790000000  0.4899130000000  0.5055610000000 1.0
C      1  0.5440520000000  0.5239750000000  0.5120420000000 1.0
C      1  0.4487030000000  0.5041100000000  0.4780690000000 1.0
C      1  0.4928270000000  0.5046150000000  0.4298480000000 1.0
C      1  0.4938290000000  0.4314620000000  0.5387780000000 1.0
C      1  0.4956230000000  0.5642450000000  0.5310650000000 1.0
END
