TITL C-2622955-8511-241 -0.00124724102615386 125000 -924.703465791186 0 0 172 (C1) n - 1
REM
REM in /nfs/bkarasulu/CARBON/AIRSS/Generating-Clusters/AIREBO/with-SteepDescent/Higher-Symm/SD-CG/HFTN-CG
REM
REM
REM
REM
REM
REM ./C.cell (b20cbc046b6831c77cfcea5457e17084)
REM
REM compiler GCC version 9.2.1 20190827 (Red Hat 9.2.1-1)
REM options -cpp -mtune=generic -march=x86-64 -g -O0 -fpre-include=/usr/include/finclude/math-vector-fortran.h
REM seed 975538238 89388484 1463616584 -132385599 -1343201036 592424100 794053509 -4666832 -1990614709 1539566468 777441670 203838473 1768672303 -2111628312 -285517173 1437746744 -375508415 -1016051750 1084817575 -1031973551 -1832120478 519093617 326001907 -768812737 1009024442 1362055817 1543232834 555479447 -918486250 -1239674009 905160344 744244763 941498690
REM
CELL 1.54180   50.00000   50.00000   50.00000   90.00000   90.00000   90.00000
LATT -1
SFAC C  
C      1  0.4471330000000  0.4177140000000  0.5603370000000 1.0
C      1  0.5549100000000  0.4471860000000  0.4184960000000 1.0
C      1  0.4188310000000  0.5657110000000  0.4563100000000 1.0
C      1  0.4560660000000  0.5637630000000  0.4420120000000 1.0
C      1  0.5438800000000  0.5785970000000  0.5563700000000 1.0
C      1  0.5438270000000  0.4228370000000  0.4400390000000 1.0
C      1  0.5554890000000  0.5492810000000  0.5675820000000 1.0
C      1  0.4290670000000  0.5537830000000  0.4283240000000 1.0
C      1  0.4285080000000  0.4450870000000  0.5681320000000 1.0
C      1  0.4163600000000  0.4206750000000  0.5501060000000 1.0
C      1  0.5706490000000  0.4401730000000  0.4472690000000 1.0
C      1  0.5755370000000  0.5673070000000  0.5502000000000 1.0
C      1  0.5508510000000  0.4585380000000  0.5071210000000 1.0
C      1  0.5145330000000  0.5508840000000  0.4554750000000 1.0
C      1  0.4670200000000  0.5053350000000  0.5486470000000 1.0
C      1  0.5557200000000  0.5429770000000  0.4903090000000 1.0
C      1  0.4511450000000  0.5336520000000  0.5117890000000 1.0
C      1  0.4505330000000  0.4668440000000  0.4921580000000 1.0
C      1  0.5148160000000  0.4446290000000  0.5431790000000 1.0
C      1  0.4967260000000  0.4513040000000  0.4687970000000 1.0
C      1  0.4872740000000  0.5502220000000  0.5342070000000 1.0
C      1  0.4702340000000  0.4943920000000  0.4493800000000 1.0
C      1  0.5394350000000  0.4930910000000  0.5500470000000 1.0
C      1  0.5447530000000  0.5079520000000  0.4519540000000 1.0
C      1  0.4387290000000  0.5005910000000  0.4384740000000 1.0
C      1  0.4272880000000  0.4510950000000  0.5102200000000 1.0
C      1  0.4965100000000  0.4264860000000  0.4455410000000 1.0
C      1  0.4412750000000  0.4953190000000  0.5682530000000 1.0
C      1  0.5620200000000  0.4889420000000  0.4296700000000 1.0
C      1  0.5448680000000  0.5055830000000  0.5795630000000 1.0
C      1  0.4376490000000  0.5635900000000  0.5066110000000 1.0
C      1  0.5767340000000  0.5643900000000  0.5003210000000 1.0
C      1  0.5746930000000  0.4442370000000  0.4905880000000 1.0
C      1  0.5049260000000  0.5695910000000  0.5558700000000 1.0
C      1  0.5048190000000  0.5782900000000  0.4443270000000 1.0
C      1  0.4960250000000  0.4228430000000  0.5520930000000 1.0
C      1  0.5214180000000  0.4960250000000  0.4701180000000 1.0
C      1  0.4737420000000  0.5194690000000  0.4995880000000 1.0
C      1  0.5027790000000  0.4610360000000  0.5179560000000 1.0
C      1  0.5192630000000  0.5067730000000  0.5267350000000 1.0
C      1  0.4945550000000  0.5095920000000  0.4604970000000 1.0
C      1  0.4912180000000  0.4882410000000  0.5319460000000 1.0
C      1  0.4672100000000  0.4902200000000  0.5079510000000 1.0
C      1  0.5380790000000  0.4872800000000  0.4975640000000 1.0
C      1  0.5453380000000  0.5184940000000  0.5082140000000 1.0
C      1  0.4957350000000  0.5359470000000  0.4795540000000 1.0
C      1  0.5028920000000  0.5306590000000  0.5130480000000 1.0
C      1  0.5117190000000  0.4687140000000  0.4880570000000 1.0
C      1  0.5181330000000  0.4958400000000  0.3774130000000 1.0
C      1  0.3762660000000  0.5478420000000  0.4943180000000 1.0
C      1  0.4839550000000  0.3799970000000  0.5293000000000 1.0
C      1  0.5210340000000  0.4995310000000  0.6231060000000 1.0
C      1  0.4699140000000  0.5027660000000  0.3876800000000 1.0
C      1  0.4714990000000  0.4921020000000  0.6034980000000 1.0
C      1  0.3819460000000  0.4835100000000  0.4976700000000 1.0
C      1  0.6252850000000  0.4827490000000  0.5104120000000 1.0
C      1  0.6210650000000  0.5246400000000  0.5076340000000 1.0
C      1  0.4852580000000  0.6212770000000  0.4482390000000 1.0
C      1  0.4794270000000  0.6011210000000  0.5159250000000 1.0
C      1  0.5186300000000  0.3716510000000  0.4858430000000 1.0
C      1  0.4187650000000  0.5624740000000  0.5323310000000 1.0
C      1  0.5037430000000  0.3931770000000  0.5434830000000 1.0
C      1  0.5612510000000  0.5125370000000  0.4077580000000 1.0
C      1  0.4147350000000  0.4322600000000  0.4848070000000 1.0
C      1  0.5871580000000  0.4429290000000  0.5204260000000 1.0
C      1  0.5983710000000  0.5698480000000  0.4830240000000 1.0
C      1  0.5266980000000  0.5951110000000  0.4344200000000 1.0
C      1  0.4856330000000  0.5940250000000  0.5531100000000 1.0
C      1  0.4716720000000  0.4092030000000  0.4499940000000 1.0
C      1  0.5410080000000  0.4888300000000  0.6072360000000 1.0
C      1  0.4362380000000  0.4798280000000  0.4132920000000 1.0
C      1  0.4544870000000  0.5101680000000  0.5918200000000 1.0
C      1  0.6056370000000  0.5136630000000  0.5524380000000 1.0
C      1  0.5415720000000  0.6034480000000  0.5025060000000 1.0
C      1  0.5111060000000  0.5504560000000  0.6046170000000 1.0
C      1  0.6082280000000  0.4929940000000  0.4611390000000 1.0
C      1  0.4037980000000  0.5015230000000  0.5402310000000 1.0
C      1  0.3930620000000  0.5101220000000  0.4583460000000 1.0
C      1  0.5609310000000  0.3981780000000  0.4863230000000 1.0
C      1  0.4403060000000  0.3914640000000  0.5048510000000 1.0
C      1  0.4644870000000  0.6016140000000  0.4899470000000 1.0
C      1  0.4968470000000  0.4546560000000  0.4044980000000 1.0
C      1  0.4922950000000  0.4453960000000  0.5947100000000 1.0
C      1  0.4896530000000  0.5465870000000  0.3964390000000 1.0
C      1  0.5092740000000  0.4844130000000  0.4034240000000 1.0
C      1  0.3974250000000  0.5306970000000  0.4826160000000 1.0
C      1  0.4620970000000  0.3962080000000  0.5215300000000 1.0
C      1  0.5206800000000  0.5216930000000  0.5974160000000 1.0
C      1  0.4767720000000  0.5209620000000  0.4087890000000 1.0
C      1  0.4816260000000  0.4712200000000  0.5819390000000 1.0
C      1  0.4079460000000  0.4952460000000  0.5086540000000 1.0
C      1  0.6022600000000  0.4909640000000  0.4932840000000 1.0
C      1  0.5977300000000  0.5239680000000  0.5242280000000 1.0
C      1  0.4849230000000  0.5954920000000  0.4658890000000 1.0
C      1  0.5095500000000  0.6037090000000  0.5118260000000 1.0
C      1  0.5299250000000  0.3968200000000  0.4840550000000 1.0
C      1  0.5341570000000  0.4362870000000  0.5181980000000 1.0
C      1  0.5250710000000  0.5293600000000  0.4361830000000 1.0
C      1  0.4396330000000  0.5186920000000  0.5358480000000 1.0
C      1  0.5339580000000  0.5617130000000  0.4778550000000 1.0
C      1  0.4699190000000  0.5691040000000  0.5158170000000 1.0
C      1  0.4689880000000  0.4439610000000  0.4841810000000 1.0
C      1  0.5293880000000  0.4642720000000  0.5633070000000 1.0
C      1  0.4786940000000  0.4647600000000  0.4448620000000 1.0
C      1  0.4815830000000  0.5318060000000  0.5592690000000 1.0
C      1  0.4343850000000  0.4830770000000  0.4673070000000 1.0
C      1  0.5611240000000  0.4817280000000  0.5297700000000 1.0
C      1  0.5666600000000  0.5255490000000  0.4668950000000 1.0
C      1  0.5487200000000  0.4236120000000  0.5416270000000 1.0
C      1  0.5520960000000  0.5354230000000  0.4211090000000 1.0
C      1  0.4269880000000  0.5433310000000  0.5502860000000 1.0
C      1  0.5578890000000  0.5688710000000  0.4599460000000 1.0
C      1  0.4270550000000  0.5695120000000  0.5908510000000 1.0
C      1  0.4539520000000  0.4240640000000  0.4649800000000 1.0
C      1  0.5659100000000  0.4390910000000  0.5897050000000 1.0
C      1  0.4379930000000  0.4556490000000  0.4211070000000 1.0
C      1  0.4605280000000  0.5357480000000  0.5819260000000 1.0
C      1  0.4164310000000  0.4420900000000  0.4599680000000 1.0
C      1  0.5730490000000  0.4553080000000  0.5402310000000 1.0
C      1  0.5977840000000  0.5518450000000  0.4332270000000 1.0
C      1  0.4204480000000  0.5905840000000  0.4677720000000 1.0
C      1  0.4650240000000  0.4086160000000  0.5833840000000 1.0
C      1  0.5819050000000  0.4653280000000  0.4153700000000 1.0
C      1  0.4112140000000  0.4256700000000  0.5236610000000 1.0
C      1  0.5945410000000  0.4191440000000  0.4546780000000 1.0
C      1  0.5736340000000  0.5960400000000  0.5362190000000 1.0
C      1  0.4753470000000  0.5783690000000  0.4306150000000 1.0
C      1  0.5286460000000  0.5907660000000  0.5801300000000 1.0
C      1  0.5278490000000  0.4187210000000  0.4121530000000 1.0
C      1  0.5672120000000  0.5252300000000  0.5792180000000 1.0
C      1  0.4083330000000  0.5322420000000  0.4184040000000 1.0
C      1  0.4062320000000  0.4660660000000  0.5741800000000 1.0
C      1  0.4386400000000  0.5914540000000  0.4894960000000 1.0
C      1  0.4888100000000  0.4222970000000  0.5814400000000 1.0
C      1  0.5938240000000  0.4839340000000  0.4412140000000 1.0
C      1  0.4164470000000  0.4058410000000  0.5011380000000 1.0
C      1  0.5784120000000  0.4170550000000  0.4788360000000 1.0
C      1  0.5637800000000  0.5911680000000  0.5107510000000 1.0
C      1  0.4942550000000  0.5701910000000  0.4088570000000 1.0
C      1  0.5081990000000  0.5725980000000  0.5895900000000 1.0
C      1  0.5037380000000  0.4318410000000  0.4166990000000 1.0
C      1  0.5927130000000  0.5187060000000  0.5755930000000 1.0
C      1  0.4083240000000  0.5112450000000  0.4361690000000 1.0
C      1  0.4127120000000  0.4901280000000  0.5627030000000 1.0
C      1  0.5405810000000  0.4660830000000  0.4428610000000 1.0
C      1  0.4287020000000  0.5438610000000  0.4803790000000 1.0
C      1  0.4671990000000  0.4272040000000  0.5345660000000 1.0
C      1  0.5246290000000  0.5437030000000  0.5631740000000 1.0
C      1  0.4511960000000  0.5281680000000  0.4248370000000 1.0
C      1  0.4548770000000  0.4661210000000  0.5650980000000 1.0
C      1  0.4515020000000  0.4575350000000  0.5332320000000 1.0
C      1  0.5649260000000  0.4665130000000  0.4667870000000 1.0
C      1  0.5857160000000  0.5512510000000  0.5266940000000 1.0
C      1  0.4584000000000  0.5555130000000  0.4686200000000 1.0
C      1  0.5253720000000  0.5806460000000  0.5310470000000 1.0
C      1  0.5225310000000  0.4195610000000  0.4623630000000 1.0
C      1  0.5158640000000  0.4231040000000  0.4977710000000 1.0
C      1  0.5008510000000  0.5072710000000  0.4271560000000 1.0
C      1  0.4372940000000  0.4871750000000  0.5238290000000 1.0
C      1  0.5159930000000  0.5729150000000  0.4991150000000 1.0
C      1  0.4852390000000  0.5677400000000  0.4855490000000 1.0
C      1  0.4864860000000  0.4339100000000  0.5073720000000 1.0
C      1  0.5028960000000  0.4841900000000  0.5636220000000 1.0
C      1  0.5098700000000  0.4752880000000  0.4361770000000 1.0
C      1  0.5075580000000  0.5148480000000  0.5688470000000 1.0
C      1  0.4241770000000  0.5097250000000  0.4836910000000 1.0
C      1  0.5755900000000  0.5031290000000  0.5105320000000 1.0
C      1  0.5720340000000  0.4944780000000  0.4778340000000 1.0
C      1  0.5719520000000  0.5461130000000  0.4418740000000 1.0
C      1  0.4379290000000  0.5508990000000  0.5747720000000 1.0
C      1  0.5556980000000  0.4454280000000  0.5648990000000 1.0
C      1  0.4470370000000  0.4550400000000  0.4527710000000 1.0
END
