TITL C-2622965-4321-224 -0.000541829050849716 125000 -668.030793432246 0 0 128 (C1) n - 1
REM
REM in /nfs/bkarasulu/CARBON/AIRSS/Generating-Clusters/AIREBO/with-SteepDescent/Higher-Symm/SD-CG/HFTN-CG
REM
REM
REM
REM
REM
REM ./C.cell (b20cbc046b6831c77cfcea5457e17084)
REM
REM compiler GCC version 9.2.1 20190827 (Red Hat 9.2.1-1)
REM options -cpp -mtune=generic -march=x86-64 -g -O0 -fpre-include=/usr/include/finclude/math-vector-fortran.h
REM seed 273152027 1217850917 210154999 1474509045 -88989561 719619315 1243051280 1067579274 -555028880 762811706 -745007962 1188795298 -1731501032 1700637083 1266117356 -379792840 222033578 1938964348 -1031857202 121278846 229340305 -2146785500 -747657139 297573323 1625247259 497882351 -212312515 -990639840 -1551074628 2123188984 1211143750 -1234523492 610346027
REM
CELL 1.54180   50.00000   50.00000   50.00000   90.00000   90.00000   90.00000
LATT -1
SFAC C  
C      1  0.5263210000000  0.4456640000000  0.4984170000000 1.0
C      1  0.5633480000000  0.5147040000000  0.4877830000000 1.0
C      1  0.4661080000000  0.5497720000000  0.4982470000000 1.0
C      1  0.4399210000000  0.4677370000000  0.4897890000000 1.0
C      1  0.4715960000000  0.4622180000000  0.5009080000000 1.0
C      1  0.4466000000000  0.5235910000000  0.5039090000000 1.0
C      1  0.5092300000000  0.5559690000000  0.5094600000000 1.0
C      1  0.5464730000000  0.4715450000000  0.5098980000000 1.0
C      1  0.5127190000000  0.5262500000000  0.4933060000000 1.0
C      1  0.4631220000000  0.4998560000000  0.4904530000000 1.0
C      1  0.4979920000000  0.4682450000000  0.4814840000000 1.0
C      1  0.5370820000000  0.4857530000000  0.4826950000000 1.0
C      1  0.4854070000000  0.5280620000000  0.5108090000000 1.0
C      1  0.5356030000000  0.5097910000000  0.5068250000000 1.0
C      1  0.5125760000000  0.4734650000000  0.5117840000000 1.0
C      1  0.4644970000000  0.4864810000000  0.5217320000000 1.0
C      1  0.5569860000000  0.4946540000000  0.5822980000000 1.0
C      1  0.5006920000000  0.5521360000000  0.5869090000000 1.0
C      1  0.4452260000000  0.5119200000000  0.5945850000000 1.0
C      1  0.4934690000000  0.4552680000000  0.5923500000000 1.0
C      1  0.4531900000000  0.4908410000000  0.4065500000000 1.0
C      1  0.4971160000000  0.5497280000000  0.4221140000000 1.0
C      1  0.5543590000000  0.5086310000000  0.4071750000000 1.0
C      1  0.5099140000000  0.4544290000000  0.4051330000000 1.0
C      1  0.5116710000000  0.5665310000000  0.5592820000000 1.0
C      1  0.4362700000000  0.5042720000000  0.5659450000000 1.0
C      1  0.5018770000000  0.4366370000000  0.5693930000000 1.0
C      1  0.5732390000000  0.5013340000000  0.5604050000000 1.0
C      1  0.4907750000000  0.5758560000000  0.4407460000000 1.0
C      1  0.5740650000000  0.4995480000000  0.4288220000000 1.0
C      1  0.5100950000000  0.4380860000000  0.4298980000000 1.0
C      1  0.4377320000000  0.4979050000000  0.4319000000000 1.0
C      1  0.5390530000000  0.5653820000000  0.4983450000000 1.0
C      1  0.4264400000000  0.5474880000000  0.5013910000000 1.0
C      1  0.4452850000000  0.4250200000000  0.4960650000000 1.0
C      1  0.5739080000000  0.4429540000000  0.4970500000000 1.0
C      1  0.4494500000000  0.5745250000000  0.5105050000000 1.0
C      1  0.5614830000000  0.5444070000000  0.5033010000000 1.0
C      1  0.5488650000000  0.4210630000000  0.5028680000000 1.0
C      1  0.4182970000000  0.4447760000000  0.5022800000000 1.0
C      1  0.4003620000000  0.4966430000000  0.5235650000000 1.0
C      1  0.5045900000000  0.4211600000000  0.5325790000000 1.0
C      1  0.6030000000000  0.4902500000000  0.5276580000000 1.0
C      1  0.4959100000000  0.6093740000000  0.5239730000000 1.0
C      1  0.6028490000000  0.4827810000000  0.4787350000000 1.0
C      1  0.4898860000000  0.4033600000000  0.4828760000000 1.0
C      1  0.3988510000000  0.5062370000000  0.4745590000000 1.0
C      1  0.5074640000000  0.5812710000000  0.4787860000000 1.0
C      1  0.4714470000000  0.4951250000000  0.5823870000000 1.0
C      1  0.5129160000000  0.4742280000000  0.5770110000000 1.0
C      1  0.5257970000000  0.5055610000000  0.5741200000000 1.0
C      1  0.4960670000000  0.5185470000000  0.5843280000000 1.0
C      1  0.5212330000000  0.5020000000000  0.4118910000000 1.0
C      1  0.4933460000000  0.4828270000000  0.4152220000000 1.0
C      1  0.4759300000000  0.5096150000000  0.4018800000000 1.0
C      1  0.5166050000000  0.5272080000000  0.4333420000000 1.0
C      1  0.5003270000000  0.5798920000000  0.5319240000000 1.0
C      1  0.4337800000000  0.4961340000000  0.5172490000000 1.0
C      1  0.4805710000000  0.4419580000000  0.5266620000000 1.0
C      1  0.5695630000000  0.4870600000000  0.5294970000000 1.0
C      1  0.4780200000000  0.5662740000000  0.4707750000000 1.0
C      1  0.5710590000000  0.4857490000000  0.4812380000000 1.0
C      1  0.4968520000000  0.4362470000000  0.4840600000000 1.0
C      1  0.4317690000000  0.4981910000000  0.4773980000000 1.0
C      1  0.4730650000000  0.5357320000000  0.4101980000000 1.0
C      1  0.4656490000000  0.4641020000000  0.4089950000000 1.0
C      1  0.5319970000000  0.4733970000000  0.4039190000000 1.0
C      1  0.5425680000000  0.5352720000000  0.4142890000000 1.0
C      1  0.5309690000000  0.5377010000000  0.5863200000000 1.0
C      1  0.5420830000000  0.4698240000000  0.5882330000000 1.0
C      1  0.4679290000000  0.4661200000000  0.5908950000000 1.0
C      1  0.4667430000000  0.5327850000000  0.5940520000000 1.0
C      1  0.5278550000000  0.4291340000000  0.5639570000000 1.0
C      1  0.5704120000000  0.5307490000000  0.5536730000000 1.0
C      1  0.4824950000000  0.5765170000000  0.5698760000000 1.0
C      1  0.4302840000000  0.4783360000000  0.5578280000000 1.0
C      1  0.4865700000000  0.4292930000000  0.4418150000000 1.0
C      1  0.4333390000000  0.5241070000000  0.4399180000000 1.0
C      1  0.5232220000000  0.5682990000000  0.4339350000000 1.0
C      1  0.5785400000000  0.4704640000000  0.4362360000000 1.0
C      1  0.5522400000000  0.5637600000000  0.4198600000000 1.0
C      1  0.4567790000000  0.5386440000000  0.4340600000000 1.0
C      1  0.4621870000000  0.4497690000000  0.4369510000000 1.0
C      1  0.5539810000000  0.4658480000000  0.4212810000000 1.0
C      1  0.4589580000000  0.5560230000000  0.5743620000000 1.0
C      1  0.5463290000000  0.5470280000000  0.5593140000000 1.0
C      1  0.5503510000000  0.4450390000000  0.5777620000000 1.0
C      1  0.4518490000000  0.4553360000000  0.5663600000000 1.0
C      1  0.5538890000000  0.5484280000000  0.4501690000000 1.0
C      1  0.4263960000000  0.5635340000000  0.4630270000000 1.0
C      1  0.4393430000000  0.4341870000000  0.4513530000000 1.0
C      1  0.5467230000000  0.4445710000000  0.4597750000000 1.0
C      1  0.4400260000000  0.5558140000000  0.5465400000000 1.0
C      1  0.5488600000000  0.5761880000000  0.5476920000000 1.0
C      1  0.5581510000000  0.4475210000000  0.5458520000000 1.0
C      1  0.4352190000000  0.4416160000000  0.5429020000000 1.0
C      1  0.5799510000000  0.4551550000000  0.5239370000000 1.0
C      1  0.5336240000000  0.5832900000000  0.5252190000000 1.0
C      1  0.4187450000000  0.5562540000000  0.5282350000000 1.0
C      1  0.4529330000000  0.4292370000000  0.5241210000000 1.0
C      1  0.4217400000000  0.4478520000000  0.4693870000000 1.0
C      1  0.4465070000000  0.5775470000000  0.4767660000000 1.0
C      1  0.5743210000000  0.5411580000000  0.4724490000000 1.0
C      1  0.5421220000000  0.4205460000000  0.4716400000000 1.0
C      1  0.5302460000000  0.5655780000000  0.4658980000000 1.0
C      1  0.4237960000000  0.5308000000000  0.4718670000000 1.0
C      1  0.4670880000000  0.4277810000000  0.4699380000000 1.0
C      1  0.5746800000000  0.4574360000000  0.4662440000000 1.0
C      1  0.4672790000000  0.5747350000000  0.5394550000000 1.0
C      1  0.5696160000000  0.5208830000000  0.5259070000000 1.0
C      1  0.5373270000000  0.4262740000000  0.5316970000000 1.0
C      1  0.4189740000000  0.4673550000000  0.5277010000000 1.0
C      1  0.4643910000000  0.4831270000000  0.4440180000000 1.0
C      1  0.5275370000000  0.4643800000000  0.4426040000000 1.0
C      1  0.5549530000000  0.5150420000000  0.4464810000000 1.0
C      1  0.4734980000000  0.5368940000000  0.4567890000000 1.0
C      1  0.5434440000000  0.4772660000000  0.5490880000000 1.0
C      1  0.4831330000000  0.4605510000000  0.5541000000000 1.0
C      1  0.4567200000000  0.5276490000000  0.5557610000000 1.0
C      1  0.5157970000000  0.5354590000000  0.5497160000000 1.0
C      1  0.4960360000000  0.4757900000000  0.4484040000000 1.0
C      1  0.5316910000000  0.4961240000000  0.4541330000000 1.0
C      1  0.5074350000000  0.5167250000000  0.4631640000000 1.0
C      1  0.4773800000000  0.5064830000000  0.4650570000000 1.0
C      1  0.5130750000000  0.4722540000000  0.5430290000000 1.0
C      1  0.4772420000000  0.4938140000000  0.5500660000000 1.0
C      1  0.4864330000000  0.5234770000000  0.5406350000000 1.0
C      1  0.5310420000000  0.5077610000000  0.5405710000000 1.0
END
