TITL C-2622966-9038-455 -0.0661458441256908 125000 -591.829545404938 0 0 110 (C1) n - 1
REM
REM in /nfs/bkarasulu/CARBON/AIRSS/Generating-Clusters/AIREBO/with-SteepDescent/Higher-Symm/SD-CG/HFTN-CG
REM
REM
REM
REM
REM
REM ./C.cell (b20cbc046b6831c77cfcea5457e17084)
REM
REM compiler GCC version 9.2.1 20190827 (Red Hat 9.2.1-1)
REM options -cpp -mtune=generic -march=x86-64 -g -O0 -fpre-include=/usr/include/finclude/math-vector-fortran.h
REM seed 307991762 328658706 -351715495 221718551 -501671134 736567583 -1438830984 751162967 1504724230 -1845831354 53665196 -82546361 -370459473 142551418 1644171853 -443275022 2040845778 -1605705180 -51256566 510856401 -648978074 1571108012 -1611442776 -707169387 -692789910 1687310918 -294147567 -667598244 -1376718456 601228668 -2063873901 -2128276866 -643677752
REM
CELL 1.54180   50.00000   50.00000   50.00000   90.00000   90.00000   90.00000
LATT -1
SFAC C  
C      1  0.5075910000000  0.5059840000000  0.4458470000000 1.0
C      1  0.4580130000000  0.5395090000000  0.5561550000000 1.0
C      1  0.5477100000000  0.4784660000000  0.4708520000000 1.0
C      1  0.5403100000000  0.4624490000000  0.4122840000000 1.0
C      1  0.5430140000000  0.5239720000000  0.4279980000000 1.0
C      1  0.5758620000000  0.4963220000000  0.5634900000000 1.0
C      1  0.5706110000000  0.4476090000000  0.5123630000000 1.0
C      1  0.5826010000000  0.4871790000000  0.5346120000000 1.0
C      1  0.5373740000000  0.4526900000000  0.5072980000000 1.0
C      1  0.5497060000000  0.5955020000000  0.5128110000000 1.0
C      1  0.5299420000000  0.3963930000000  0.4845510000000 1.0
C      1  0.4666430000000  0.4630400000000  0.4467390000000 1.0
C      1  0.4120260000000  0.4424060000000  0.4948550000000 1.0
C      1  0.5127980000000  0.5511740000000  0.5375510000000 1.0
C      1  0.5420910000000  0.5166370000000  0.5582390000000 1.0
C      1  0.4802140000000  0.5234690000000  0.4990760000000 1.0
C      1  0.4856740000000  0.4477810000000  0.4929110000000 1.0
C      1  0.4772130000000  0.4933190000000  0.5145530000000 1.0
C      1  0.4550610000000  0.5767230000000  0.4988460000000 1.0
C      1  0.4779960000000  0.4130910000000  0.4562450000000 1.0
C      1  0.5119440000000  0.4518680000000  0.4529020000000 1.0
C      1  0.4041830000000  0.5028480000000  0.4923060000000 1.0
C      1  0.4214750000000  0.5130440000000  0.4393370000000 1.0
C      1  0.4615460000000  0.4154500000000  0.5431210000000 1.0
C      1  0.5324030000000  0.5310700000000  0.4881980000000 1.0
C      1  0.5812230000000  0.5396600000000  0.5085920000000 1.0
C      1  0.5269520000000  0.4535320000000  0.5782880000000 1.0
C      1  0.5261770000000  0.5747750000000  0.4793640000000 1.0
C      1  0.4875100000000  0.4761310000000  0.5422230000000 1.0
C      1  0.5640380000000  0.5525890000000  0.5416380000000 1.0
C      1  0.4300620000000  0.5469860000000  0.4899860000000 1.0
C      1  0.5382430000000  0.5410310000000  0.5822410000000 1.0
C      1  0.4952240000000  0.5370330000000  0.4395150000000 1.0
C      1  0.4696920000000  0.5025560000000  0.4744100000000 1.0
C      1  0.4417110000000  0.5151950000000  0.4864900000000 1.0
C      1  0.5450500000000  0.5575540000000  0.4493080000000 1.0
C      1  0.4802730000000  0.5147650000000  0.5492030000000 1.0
C      1  0.5342090000000  0.4495750000000  0.4735830000000 1.0
C      1  0.4846040000000  0.4420630000000  0.4630570000000 1.0
C      1  0.5190820000000  0.5908420000000  0.5048450000000 1.0
C      1  0.5113280000000  0.5312580000000  0.5102440000000 1.0
C      1  0.5239230000000  0.4241890000000  0.4937480000000 1.0
C      1  0.4332280000000  0.4202400000000  0.5499570000000 1.0
C      1  0.5243590000000  0.4831170000000  0.5152500000000 1.0
C      1  0.4423510000000  0.4490140000000  0.5338120000000 1.0
C      1  0.4841620000000  0.4213280000000  0.5592700000000 1.0
C      1  0.5177890000000  0.4948980000000  0.4180400000000 1.0
C      1  0.5623780000000  0.5190380000000  0.4954240000000 1.0
C      1  0.4793110000000  0.5343670000000  0.5777050000000 1.0
C      1  0.4617360000000  0.5801940000000  0.4464280000000 1.0
C      1  0.4228730000000  0.4388350000000  0.4702510000000 1.0
C      1  0.5741350000000  0.5277350000000  0.5557550000000 1.0
C      1  0.5617540000000  0.4955740000000  0.4487840000000 1.0
C      1  0.5446270000000  0.4933570000000  0.4924550000000 1.0
C      1  0.4709040000000  0.5807220000000  0.5385150000000 1.0
C      1  0.4802010000000  0.5407720000000  0.4697950000000 1.0
C      1  0.5184070000000  0.5056820000000  0.5800440000000 1.0
C      1  0.4883700000000  0.4498040000000  0.5637430000000 1.0
C      1  0.5817070000000  0.5068790000000  0.4709090000000 1.0
C      1  0.5473320000000  0.4795860000000  0.5713960000000 1.0
C      1  0.4561210000000  0.4689890000000  0.5531750000000 1.0
C      1  0.4032270000000  0.5310860000000  0.4994190000000 1.0
C      1  0.5304690000000  0.4334640000000  0.5570500000000 1.0
C      1  0.5649030000000  0.5677490000000  0.5122750000000 1.0
C      1  0.4204110000000  0.4593860000000  0.5154030000000 1.0
C      1  0.4996000000000  0.4950640000000  0.3984540000000 1.0
C      1  0.5509530000000  0.4645830000000  0.5427100000000 1.0
C      1  0.5152040000000  0.5614650000000  0.4521940000000 1.0
C      1  0.5182080000000  0.4842650000000  0.5544410000000 1.0
C      1  0.4352510000000  0.4501890000000  0.4491050000000 1.0
C      1  0.5547950000000  0.5558620000000  0.4818470000000 1.0
C      1  0.5506310000000  0.4921220000000  0.4188540000000 1.0
C      1  0.4484030000000  0.4821730000000  0.5906130000000 1.0
C      1  0.5088650000000  0.4217780000000  0.5438960000000 1.0
C      1  0.4180000000000  0.5038780000000  0.4652610000000 1.0
C      1  0.4859170000000  0.5894510000000  0.5013730000000 1.0
C      1  0.5007340000000  0.4272880000000  0.5150150000000 1.0
C      1  0.4189660000000  0.4861940000000  0.5102880000000 1.0
C      1  0.5958520000000  0.4846040000000  0.4898840000000 1.0
C      1  0.4732750000000  0.4989940000000  0.4066860000000 1.0
C      1  0.5209330000000  0.5376350000000  0.4172570000000 1.0
C      1  0.5892060000000  0.4713790000000  0.5130470000000 1.0
C      1  0.5092380000000  0.5081370000000  0.5326620000000 1.0
C      1  0.4363530000000  0.4599450000000  0.4210100000000 1.0
C      1  0.5218670000000  0.4510960000000  0.4264310000000 1.0
C      1  0.4528060000000  0.5004060000000  0.5452850000000 1.0
C      1  0.5634210000000  0.4346180000000  0.4829250000000 1.0
C      1  0.4741600000000  0.5601120000000  0.4260770000000 1.0
C      1  0.4429510000000  0.5288200000000  0.4341970000000 1.0
C      1  0.4671510000000  0.4334250000000  0.5165360000000 1.0
C      1  0.5555860000000  0.4352150000000  0.5400200000000 1.0
C      1  0.5825060000000  0.5408270000000  0.4690700000000 1.0
C      1  0.4968000000000  0.4767660000000  0.4962710000000 1.0
C      1  0.5084910000000  0.5358020000000  0.5677750000000 1.0
C      1  0.4372950000000  0.5731620000000  0.4700690000000 1.0
C      1  0.4376350000000  0.4978870000000  0.5735770000000 1.0
C      1  0.4699640000000  0.5244770000000  0.4205030000000 1.0
C      1  0.4509410000000  0.5468090000000  0.4559240000000 1.0
C      1  0.4560500000000  0.5447290000000  0.5093060000000 1.0
C      1  0.4755810000000  0.4701410000000  0.5844740000000 1.0
C      1  0.4602150000000  0.4771030000000  0.4163770000000 1.0
C      1  0.5497970000000  0.4964220000000  0.5335000000000 1.0
C      1  0.4451650000000  0.5009910000000  0.5152380000000 1.0
C      1  0.4559550000000  0.5580710000000  0.5366610000000 1.0
C      1  0.5395610000000  0.5563170000000  0.5544040000000 1.0
C      1  0.4908720000000  0.4815280000000  0.4618230000000 1.0
C      1  0.5065670000000  0.4754910000000  0.5909180000000 1.0
C      1  0.5361360000000  0.5150920000000  0.4599730000000 1.0
C      1  0.5011680000000  0.5776220000000  0.5291490000000 1.0
C      1  0.4769180000000  0.5725190000000  0.4741880000000 1.0
END
