TITL C-2622956-4641-515 -0.00192280318617293 125000 -210.533978191588 0 0 42 (C3) n - 1
REM
REM in /nfs/bkarasulu/CARBON/AIRSS/Generating-Clusters/AIREBO/with-SteepDescent/Higher-Symm/SD-CG/HFTN-CG
REM
REM
REM
REM
REM
REM ./C.cell (b20cbc046b6831c77cfcea5457e17084)
REM
REM compiler GCC version 9.2.1 20190827 (Red Hat 9.2.1-1)
REM options -cpp -mtune=generic -march=x86-64 -g -O0 -fpre-include=/usr/include/finclude/math-vector-fortran.h
REM seed -1241281046 -2053816829 1108602116 -743447001 -1866619739 493004277 -133926439 -1481297010 -365384420 -1763972069 -1284543771 -626570083 2101111056 1699027301 1178290102 547299312 1005575473 -1386936401 1281490028 763839263 2129033173 -1362331804 -1896142958 -1892517162 248575086 2072807637 -1206069131 1781803031 -989461816 451763227 180210353 1727066523 -750578605
REM
CELL 1.54180   50.00000   50.00000   50.00000   90.00000   90.00000   90.00000
LATT -1
SFAC C  
C      1  0.5310800000000  0.5693510000000  0.5139190000000 1.0
C      1  0.5310750000000  0.4773720000000  0.4329780000000 1.0
C      1  0.5310770000000  0.4532680000000  0.5530990000000 1.0
C      1  0.4699730000000  0.5693270000000  0.5115780000000 1.0
C      1  0.4699740000000  0.4753660000000  0.4341760000000 1.0
C      1  0.4699730000000  0.4553130000000  0.5542500000000 1.0
C      1  0.5463600000000  0.4702910000000  0.4861840000000 1.0
C      1  0.5463590000000  0.5028890000000  0.5326300000000 1.0
C      1  0.5463560000000  0.5268110000000  0.4811810000000 1.0
C      1  0.4531210000000  0.4704170000000  0.4864440000000 1.0
C      1  0.4531210000000  0.5030550000000  0.5324030000000 1.0
C      1  0.4531190000000  0.5265360000000  0.4811570000000 1.0
C      1  0.5137080000000  0.4756710000000  0.4797150000000 1.0
C      1  0.5137060000000  0.4945970000000  0.5312140000000 1.0
C      1  0.5137040000000  0.5297340000000  0.4890720000000 1.0
C      1  0.4860420000000  0.4766450000000  0.4817560000000 1.0
C      1  0.4860400000000  0.4958770000000  0.5293490000000 1.0
C      1  0.4860380000000  0.5274800000000  0.4888980000000 1.0
C      1  0.5312090000000  0.5294870000000  0.5183600000000 1.0
C      1  0.5312070000000  0.5011490000000  0.4652850000000 1.0
C      1  0.5312090000000  0.4693550000000  0.5163560000000 1.0
C      1  0.4683490000000  0.5298150000000  0.5179740000000 1.0
C      1  0.4683460000000  0.5006630000000  0.4651930000000 1.0
C      1  0.4683480000000  0.4695300000000  0.5168330000000 1.0
C      1  0.5136000000000  0.5539140000000  0.5331080000000 1.0
C      1  0.5136010000000  0.5017140000000  0.4367570000000 1.0
C      1  0.5135970000000  0.4443710000000  0.5301350000000 1.0
C      1  0.4859130000000  0.5542290000000  0.5322970000000 1.0
C      1  0.4859150000000  0.5008580000000  0.4368890000000 1.0
C      1  0.4859110000000  0.4449180000000  0.5308140000000 1.0
C      1  0.5337280000000  0.5571900000000  0.4897230000000 1.0
C      1  0.5337230000000  0.4624980000000  0.4556080000000 1.0
C      1  0.5337270000000  0.4803030000000  0.5546660000000 1.0
C      1  0.4674360000000  0.5561220000000  0.4879470000000 1.0
C      1  0.4674380000000  0.4615040000000  0.4574270000000 1.0
C      1  0.4674380000000  0.4823810000000  0.5546290000000 1.0
C      1  0.4353290000000  0.4771980000000  0.5195440000000 1.0
C      1  0.4353290000000  0.5283320000000  0.5099810000000 1.0
C      1  0.4353280000000  0.4944790000000  0.4704790000000 1.0
C      1  0.5641650000000  0.4772200000000  0.5192520000000 1.0
C      1  0.5641650000000  0.5280650000000  0.5100980000000 1.0
C      1  0.5641650000000  0.4947120000000  0.4706440000000 1.0
END
