TITL C-2622955-8511-570 0.00025343385232459 125000 -398.099535334807 0 0 74 (C1) n - 1
REM
REM in /nfs/bkarasulu/CARBON/AIRSS/Generating-Clusters/AIREBO/with-SteepDescent/Higher-Symm/SD-CG/HFTN-CG
REM
REM
REM
REM
REM
REM ./C.cell (b20cbc046b6831c77cfcea5457e17084)
REM
REM compiler GCC version 9.2.1 20190827 (Red Hat 9.2.1-1)
REM options -cpp -mtune=generic -march=x86-64 -g -O0 -fpre-include=/usr/include/finclude/math-vector-fortran.h
REM seed -2049309344 472112323 693216693 -1685523092 385346955 1389638881 2109557143 2097980734 1544471199 -665686344 -1778361373 -556343879 2082169542 968589597 -1796790607 -99095294 -1523689194 -670100563 572929706 1206925162 -1790199695 -1475664298 54928860 -374969583 -601328848 1210264547 2075934867 1610278469 -468071361 -1449398059 -1167739268 1201920472 -730983380
REM
CELL 1.54180   50.00000   50.00000   50.00000   90.00000   90.00000   90.00000
LATT -1
SFAC C  
C      1  0.4624180000000  0.5398320000000  0.4540640000000 1.0
C      1  0.4608980000000  0.5176850000000  0.5548670000000 1.0
C      1  0.4538370000000  0.4379150000000  0.4840640000000 1.0
C      1  0.5859380000000  0.4643380000000  0.4897380000000 1.0
C      1  0.5810950000000  0.5303210000000  0.4742490000000 1.0
C      1  0.5898650000000  0.5045620000000  0.5392290000000 1.0
C      1  0.4824580000000  0.4774990000000  0.4833840000000 1.0
C      1  0.4768260000000  0.5255670000000  0.4969450000000 1.0
C      1  0.4727360000000  0.4882070000000  0.5308890000000 1.0
C      1  0.4847460000000  0.5325550000000  0.4270750000000 1.0
C      1  0.4826800000000  0.5450770000000  0.5599810000000 1.0
C      1  0.4809850000000  0.4286290000000  0.5032070000000 1.0
C      1  0.5371880000000  0.5338850000000  0.4940300000000 1.0
C      1  0.5407880000000  0.4927230000000  0.5406410000000 1.0
C      1  0.5376190000000  0.4747480000000  0.4798110000000 1.0
C      1  0.5112430000000  0.4445290000000  0.5446770000000 1.0
C      1  0.5153000000000  0.4983700000000  0.4373260000000 1.0
C      1  0.5100780000000  0.5662250000000  0.5260300000000 1.0
C      1  0.5172740000000  0.5156400000000  0.5385640000000 1.0
C      1  0.5110300000000  0.4711290000000  0.5006900000000 1.0
C      1  0.5138880000000  0.5183750000000  0.4806430000000 1.0
C      1  0.5421970000000  0.5585960000000  0.4734150000000 1.0
C      1  0.5349270000000  0.4753680000000  0.5668790000000 1.0
C      1  0.5320510000000  0.4568350000000  0.4544410000000 1.0
C      1  0.5491550000000  0.5731170000000  0.5302850000000 1.0
C      1  0.5489200000000  0.4321130000000  0.5410660000000 1.0
C      1  0.5480510000000  0.4907930000000  0.4159010000000 1.0
C      1  0.4814430000000  0.4472540000000  0.4678540000000 1.0
C      1  0.4901220000000  0.5361440000000  0.4696330000000 1.0
C      1  0.4905170000000  0.5010400000000  0.5534970000000 1.0
C      1  0.5223440000000  0.4672730000000  0.5300660000000 1.0
C      1  0.5219960000000  0.4963060000000  0.4627550000000 1.0
C      1  0.5258350000000  0.5423180000000  0.5200080000000 1.0
C      1  0.5299510000000  0.5156820000000  0.4164210000000 1.0
C      1  0.5290950000000  0.5653510000000  0.5525430000000 1.0
C      1  0.5261170000000  0.4286290000000  0.5208140000000 1.0
C      1  0.4633830000000  0.4532760000000  0.5661050000000 1.0
C      1  0.4706590000000  0.4574220000000  0.4372550000000 1.0
C      1  0.4716540000000  0.5746650000000  0.5042560000000 1.0
C      1  0.5631200000000  0.5165430000000  0.4955570000000 1.0
C      1  0.5645580000000  0.4986630000000  0.5236850000000 1.0
C      1  0.5626720000000  0.4833720000000  0.4934900000000 1.0
C      1  0.4517100000000  0.4194130000000  0.5122130000000 1.0
C      1  0.4547300000000  0.5259580000000  0.4239890000000 1.0
C      1  0.4517030000000  0.5497110000000  0.5616380000000 1.0
C      1  0.4558040000000  0.4654460000000  0.5426000000000 1.0
C      1  0.4627530000000  0.4804060000000  0.4565340000000 1.0
C      1  0.4605660000000  0.5493620000000  0.5070790000000 1.0
C      1  0.4327150000000  0.5094820000000  0.5376430000000 1.0
C      1  0.4302430000000  0.4610250000000  0.4885820000000 1.0
C      1  0.4341460000000  0.5295470000000  0.4699280000000 1.0
C      1  0.4314550000000  0.4803450000000  0.4661200000000 1.0
C      1  0.4306220000000  0.5413490000000  0.4979490000000 1.0
C      1  0.4282690000000  0.4796800000000  0.5338850000000 1.0
C      1  0.4108950000000  0.4715700000000  0.5102270000000 1.0
C      1  0.4142480000000  0.5057600000000  0.4697210000000 1.0
C      1  0.4140440000000  0.5230740000000  0.5164970000000 1.0
C      1  0.5117370000000  0.5374150000000  0.4295440000000 1.0
C      1  0.5094800000000  0.5420760000000  0.5579100000000 1.0
C      1  0.5085120000000  0.4375930000000  0.4956410000000 1.0
C      1  0.4423290000000  0.5444360000000  0.5323940000000 1.0
C      1  0.4411990000000  0.4485440000000  0.5202260000000 1.0
C      1  0.4451490000000  0.5052070000000  0.4454330000000 1.0
C      1  0.6043740000000  0.4467610000000  0.4882000000000 1.0
C      1  0.5706610000000  0.5505020000000  0.4625870000000 1.0
C      1  0.6101590000000  0.5117540000000  0.5529270000000 1.0
C      1  0.5463870000000  0.4494600000000  0.5631020000000 1.0
C      1  0.5422930000000  0.4677260000000  0.4305740000000 1.0
C      1  0.5452980000000  0.5728660000000  0.5030710000000 1.0
C      1  0.5180010000000  0.5491610000000  0.4555190000000 1.0
C      1  0.5093250000000  0.4839710000000  0.5745720000000 1.0
C      1  0.5124760000000  0.4377240000000  0.4634250000000 1.0
C      1  0.4732800000000  0.4983740000000  0.5043180000000 1.0
C      1  0.5125290000000  0.5039430000000  0.5073050000000 1.0
END
