TITL C-2622958-629-454 -0.000956119412297359 125000 -243.86413919048 0 0 40 (C2) n - 1
REM
REM in /nfs/bkarasulu/CARBON/AIRSS/Generating-Clusters/AIREBO/with-SteepDescent/Higher-Symm/SD-CG/HFTN-CG
REM
REM
REM
REM
REM
REM ./C.cell (b20cbc046b6831c77cfcea5457e17084)
REM
REM compiler GCC version 9.2.1 20190827 (Red Hat 9.2.1-1)
REM options -cpp -mtune=generic -march=x86-64 -g -O0 -fpre-include=/usr/include/finclude/math-vector-fortran.h
REM seed -1768726025 1701012203 104463589 1789624486 -277460564 1002595384 -1698511643 -51065727 -1959000219 -332137581 1105433602 -391966474 21758573 -228363 -938284335 -1544811990 -723350542 544648625 120278451 1238083485 335183137 1142237874 1257180972 -543161265 -1983423309 -1355152708 1292827689 462950961 609780674 987567007 1596704076 476181302 1675474106
REM
CELL 1.54180   50.00000   50.00000   50.00000   90.00000   90.00000   90.00000
LATT -1
SFAC C  
C      1  0.5617150000000  0.4842670000000  0.4819750000000 1.0
C      1  0.5065600000000  0.5548920000000  0.4768660000000 1.0
C      1  0.4385040000000  0.5154820000000  0.4810330000000 1.0
C      1  0.4937100000000  0.4447990000000  0.4775360000000 1.0
C      1  0.5474580000000  0.5082990000000  0.4761750000000 1.0
C      1  0.5210600000000  0.4413240000000  0.4813890000000 1.0
C      1  0.4528270000000  0.4913740000000  0.4757290000000 1.0
C      1  0.4791670000000  0.5584170000000  0.4803470000000 1.0
C      1  0.5345630000000  0.5086100000000  0.4512320000000 1.0
C      1  0.4926980000000  0.5331520000000  0.4399010000000 1.0
C      1  0.4660170000000  0.4907270000000  0.4509470000000 1.0
C      1  0.5080120000000  0.4660370000000  0.4404470000000 1.0
C      1  0.5289860000000  0.4834570000000  0.4395870000000 1.0
C      1  0.4808190000000  0.4690710000000  0.4407590000000 1.0
C      1  0.4717340000000  0.5157200000000  0.4390290000000 1.0
C      1  0.5198850000000  0.5301250000000  0.4405770000000 1.0
C      1  0.5104000000000  0.5358840000000  0.5479110000000 1.0
C      1  0.4622030000000  0.5127670000000  0.5502140000000 1.0
C      1  0.4890300000000  0.4647680000000  0.5482660000000 1.0
C      1  0.5371980000000  0.4879180000000  0.5508270000000 1.0
C      1  0.5194770000000  0.4665040000000  0.5535580000000 1.0
C      1  0.4679860000000  0.4825220000000  0.5503540000000 1.0
C      1  0.4798920000000  0.5342170000000  0.5528640000000 1.0
C      1  0.5314160000000  0.5181620000000  0.5504880000000 1.0
C      1  0.4450700000000  0.5306670000000  0.5039610000000 1.0
C      1  0.4772700000000  0.4537850000000  0.4989070000000 1.0
C      1  0.5548760000000  0.4693940000000  0.5050270000000 1.0
C      1  0.5227460000000  0.5461980000000  0.4985500000000 1.0
C      1  0.4589490000000  0.4754050000000  0.4986170000000 1.0
C      1  0.4657540000000  0.5498910000000  0.5039040000000 1.0
C      1  0.5410660000000  0.5245770000000  0.4987700000000 1.0
C      1  0.5341940000000  0.4501690000000  0.5049860000000 1.0
C      1  0.4810260000000  0.5534910000000  0.5277150000000 1.0
C      1  0.4500780000000  0.4851870000000  0.5242320000000 1.0
C      1  0.5186400000000  0.4468910000000  0.5286610000000 1.0
C      1  0.5496320000000  0.5151440000000  0.5246190000000 1.0
C      1  0.4872960000000  0.4454200000000  0.5243360000000 1.0
C      1  0.4415080000000  0.5154230000000  0.5275320000000 1.0
C      1  0.5124190000000  0.5549060000000  0.5237430000000 1.0
C      1  0.5581600000000  0.4849560000000  0.5284300000000 1.0
END
