TITL C-2622953-3516-184 0.00165367891680386 125000 -907.929108194379 0 0 173 (C1) n - 1
REM
REM in /nfs/bkarasulu/CARBON/AIRSS/Generating-Clusters/AIREBO/with-SteepDescent/Higher-Symm/SD-CG/HFTN-CG
REM
REM
REM
REM
REM
REM ./C.cell (b20cbc046b6831c77cfcea5457e17084)
REM
REM compiler GCC version 9.2.1 20190827 (Red Hat 9.2.1-1)
REM options -cpp -mtune=generic -march=x86-64 -g -O0 -fpre-include=/usr/include/finclude/math-vector-fortran.h
REM seed -342595720 1428281984 247643919 -999135493 -616941494 -1298384415 -1859830100 -1693727471 248863835 -609348627 173466765 1511368061 587572029 1823625159 1176560246 551108263 -474884450 1571228234 1953480997 1596131921 -1957394599 -300084745 1194554934 -1439298344 -95037472 1617642612 1090466847 -260276482 -1214566122 326025909 469062297 1035129419 1994514570
REM
CELL 1.54180   50.00000   50.00000   50.00000   90.00000   90.00000   90.00000
LATT -1
SFAC C  
C      1  0.4831560000000  0.4768340000000  0.6010700000000 1.0
C      1  0.4528050000000  0.4447080000000  0.4350130000000 1.0
C      1  0.4683920000000  0.5980940000000  0.4412260000000 1.0
C      1  0.4886580000000  0.4039700000000  0.4391350000000 1.0
C      1  0.5423750000000  0.5528180000000  0.5105020000000 1.0
C      1  0.5376520000000  0.4497530000000  0.4585630000000 1.0
C      1  0.5338860000000  0.5222640000000  0.3859650000000 1.0
C      1  0.3905520000000  0.4834970000000  0.5009560000000 1.0
C      1  0.4421930000000  0.5092440000000  0.4285930000000 1.0
C      1  0.5889720000000  0.5209350000000  0.5620610000000 1.0
C      1  0.5091030000000  0.4940910000000  0.5331300000000 1.0
C      1  0.5471730000000  0.4239380000000  0.5399350000000 1.0
C      1  0.5675060000000  0.5290330000000  0.4623120000000 1.0
C      1  0.6003430000000  0.5101920000000  0.5322590000000 1.0
C      1  0.5273770000000  0.4747550000000  0.4048850000000 1.0
C      1  0.5555440000000  0.4992350000000  0.5638990000000 1.0
C      1  0.4887060000000  0.5021560000000  0.4998640000000 1.0
C      1  0.5001690000000  0.5734240000000  0.4533300000000 1.0
C      1  0.5282860000000  0.4733310000000  0.5142170000000 1.0
C      1  0.5283060000000  0.5028810000000  0.4629040000000 1.0
C      1  0.5096600000000  0.5446080000000  0.6090790000000 1.0
C      1  0.5256660000000  0.3882860000000  0.5050410000000 1.0
C      1  0.3764060000000  0.4964340000000  0.5218520000000 1.0
C      1  0.5119900000000  0.5744440000000  0.4216720000000 1.0
C      1  0.4836160000000  0.5289350000000  0.5968050000000 1.0
C      1  0.4145570000000  0.5319590000000  0.5495390000000 1.0
C      1  0.5329600000000  0.5323760000000  0.4245520000000 1.0
C      1  0.4834900000000  0.4470990000000  0.4800930000000 1.0
C      1  0.5860310000000  0.4262920000000  0.5051340000000 1.0
C      1  0.5513940000000  0.5793800000000  0.4934830000000 1.0
C      1  0.4484270000000  0.4907890000000  0.4079310000000 1.0
C      1  0.5305550000000  0.6018430000000  0.5082480000000 1.0
C      1  0.5789970000000  0.5901030000000  0.5102020000000 1.0
C      1  0.5215720000000  0.4278220000000  0.5196910000000 1.0
C      1  0.4524300000000  0.5501320000000  0.5267500000000 1.0
C      1  0.4318030000000  0.5312020000000  0.4757090000000 1.0
C      1  0.4709040000000  0.4896740000000  0.4534650000000 1.0
C      1  0.4753610000000  0.4163140000000  0.5238800000000 1.0
C      1  0.3899630000000  0.5168380000000  0.5327920000000 1.0
C      1  0.4848350000000  0.4176420000000  0.4935430000000 1.0
C      1  0.5254650000000  0.5758850000000  0.3938190000000 1.0
C      1  0.5564250000000  0.5148850000000  0.4094170000000 1.0
C      1  0.5535290000000  0.4589370000000  0.4965430000000 1.0
C      1  0.4627950000000  0.5677100000000  0.4920900000000 1.0
C      1  0.5726630000000  0.5641150000000  0.4439810000000 1.0
C      1  0.5184390000000  0.4182640000000  0.5728150000000 1.0
C      1  0.5120840000000  0.4283900000000  0.4188000000000 1.0
C      1  0.5007080000000  0.5562290000000  0.5477320000000 1.0
C      1  0.3952710000000  0.4727360000000  0.4499650000000 1.0
C      1  0.4306100000000  0.4363020000000  0.4593710000000 1.0
C      1  0.5979850000000  0.5186030000000  0.5035990000000 1.0
C      1  0.4327900000000  0.4797140000000  0.4926140000000 1.0
C      1  0.5741530000000  0.5094970000000  0.5904480000000 1.0
C      1  0.5976780000000  0.5215330000000  0.4491920000000 1.0
C      1  0.5400400000000  0.5508910000000  0.3898580000000 1.0
C      1  0.5293380000000  0.6157460000000  0.5354960000000 1.0
C      1  0.4202470000000  0.5215200000000  0.5186780000000 1.0
C      1  0.5511240000000  0.5204040000000  0.5160010000000 1.0
C      1  0.5458150000000  0.4903130000000  0.4870180000000 1.0
C      1  0.5382530000000  0.4492390000000  0.4245590000000 1.0
C      1  0.4729090000000  0.5104530000000  0.5289490000000 1.0
C      1  0.5852500000000  0.4584490000000  0.5019610000000 1.0
C      1  0.5112960000000  0.5496610000000  0.4680870000000 1.0
C      1  0.4506080000000  0.5881710000000  0.5149190000000 1.0
C      1  0.3596030000000  0.5260220000000  0.4785190000000 1.0
C      1  0.5357780000000  0.4559570000000  0.5424770000000 1.0
C      1  0.4760480000000  0.5739310000000  0.5324150000000 1.0
C      1  0.4748240000000  0.5370310000000  0.5467380000000 1.0
C      1  0.4984300000000  0.5183800000000  0.4715970000000 1.0
C      1  0.5556830000000  0.4841000000000  0.4160740000000 1.0
C      1  0.5507990000000  0.5271960000000  0.5493140000000 1.0
C      1  0.5842420000000  0.4634350000000  0.4494940000000 1.0
C      1  0.4662190000000  0.5832810000000  0.4186610000000 1.0
C      1  0.4074270000000  0.4309390000000  0.5465810000000 1.0
C      1  0.4996970000000  0.4323460000000  0.5946640000000 1.0
C      1  0.4803520000000  0.4646510000000  0.4346270000000 1.0
C      1  0.5569150000000  0.5573660000000  0.5408980000000 1.0
C      1  0.5372510000000  0.5825390000000  0.4416620000000 1.0
C      1  0.5850480000000  0.4342540000000  0.5337860000000 1.0
C      1  0.4771600000000  0.5403120000000  0.4973360000000 1.0
C      1  0.4650500000000  0.5868000000000  0.5720910000000 1.0
C      1  0.5853660000000  0.5406530000000  0.5344020000000 1.0
C      1  0.4835500000000  0.4541570000000  0.5757370000000 1.0
C      1  0.5005380000000  0.5736320000000  0.5835650000000 1.0
C      1  0.5087900000000  0.4996840000000  0.3902740000000 1.0
C      1  0.5030750000000  0.4725090000000  0.4913820000000 1.0
C      1  0.4124920000000  0.5066210000000  0.4891090000000 1.0
C      1  0.5079200000000  0.4219730000000  0.5464020000000 1.0
C      1  0.4228260000000  0.5137350000000  0.4477370000000 1.0
C      1  0.4328680000000  0.5558170000000  0.4995140000000 1.0
C      1  0.4053170000000  0.4419160000000  0.5204430000000 1.0
C      1  0.5082050000000  0.5177700000000  0.4175120000000 1.0
C      1  0.4724470000000  0.5538270000000  0.5759330000000 1.0
C      1  0.4713530000000  0.3900500000000  0.4559590000000 1.0
C      1  0.4772330000000  0.4913960000000  0.3898650000000 1.0
C      1  0.3971180000000  0.4565360000000  0.4949620000000 1.0
C      1  0.4842510000000  0.5612570000000  0.4180460000000 1.0
C      1  0.4655290000000  0.4844480000000  0.4847460000000 1.0
C      1  0.5184650000000  0.4158580000000  0.4498590000000 1.0
C      1  0.5285160000000  0.5590550000000  0.5861250000000 1.0
C      1  0.4503560000000  0.4942680000000  0.5764830000000 1.0
C      1  0.5677710000000  0.4596210000000  0.5377710000000 1.0
C      1  0.4980010000000  0.4428470000000  0.4528900000000 1.0
C      1  0.5233670000000  0.5413420000000  0.5600420000000 1.0
C      1  0.5326290000000  0.4334920000000  0.4880230000000 1.0
C      1  0.5102630000000  0.5436710000000  0.5001680000000 1.0
C      1  0.5001270000000  0.5978640000000  0.5343860000000 1.0
C      1  0.4631630000000  0.4019300000000  0.4785120000000 1.0
C      1  0.5501030000000  0.5723770000000  0.5646620000000 1.0
C      1  0.5471480000000  0.4106660000000  0.4674120000000 1.0
C      1  0.5123910000000  0.4653060000000  0.5615820000000 1.0
C      1  0.4843860000000  0.5340790000000  0.4228060000000 1.0
C      1  0.5707540000000  0.4595600000000  0.4261330000000 1.0
C      1  0.4385450000000  0.5511920000000  0.5756640000000 1.0
C      1  0.4443380000000  0.4385940000000  0.5124140000000 1.0
C      1  0.4278510000000  0.4647240000000  0.5191890000000 1.0
C      1  0.4222410000000  0.5754030000000  0.5253530000000 1.0
C      1  0.5716710000000  0.5107490000000  0.4906770000000 1.0
C      1  0.5473430000000  0.5941630000000  0.4634400000000 1.0
C      1  0.5201450000000  0.5121210000000  0.5081320000000 1.0
C      1  0.4995440000000  0.6049010000000  0.4950350000000 1.0
C      1  0.4782810000000  0.4267460000000  0.4220650000000 1.0
C      1  0.4649400000000  0.5244250000000  0.4717910000000 1.0
C      1  0.4744310000000  0.6111920000000  0.5153390000000 1.0
C      1  0.5345620000000  0.5355780000000  0.4559690000000 1.0
C      1  0.4502730000000  0.4604780000000  0.5726960000000 1.0
C      1  0.4640970000000  0.4881810000000  0.5476020000000 1.0
C      1  0.4510380000000  0.4561220000000  0.4751690000000 1.0
C      1  0.4459820000000  0.4042860000000  0.5143070000000 1.0
C      1  0.5446810000000  0.4661530000000  0.5966660000000 1.0
C      1  0.5121930000000  0.4063020000000  0.4881060000000 1.0
C      1  0.4340960000000  0.4742580000000  0.5460940000000 1.0
C      1  0.5940750000000  0.4780040000000  0.5284810000000 1.0
C      1  0.4512190000000  0.5216980000000  0.5090690000000 1.0
C      1  0.4381410000000  0.4200380000000  0.4855630000000 1.0
C      1  0.4918120000000  0.6040150000000  0.4658120000000 1.0
C      1  0.4875190000000  0.4683780000000  0.5385910000000 1.0
C      1  0.4229310000000  0.4419310000000  0.5667460000000 1.0
C      1  0.3835930000000  0.5153160000000  0.4734240000000 1.0
C      1  0.5765520000000  0.4141780000000  0.5540020000000 1.0
C      1  0.4040720000000  0.4522080000000  0.4674670000000 1.0
C      1  0.5552580000000  0.5044730000000  0.4422230000000 1.0
C      1  0.4697190000000  0.5790780000000  0.4673680000000 1.0
C      1  0.5763820000000  0.4699740000000  0.5849410000000 1.0
C      1  0.5561700000000  0.4254650000000  0.4409890000000 1.0
C      1  0.5495100000000  0.5599620000000  0.4214050000000 1.0
C      1  0.5094180000000  0.5756050000000  0.5104090000000 1.0
C      1  0.4771040000000  0.4639460000000  0.4008630000000 1.0
C      1  0.4390640000000  0.4641530000000  0.4130180000000 1.0
C      1  0.4802370000000  0.4360940000000  0.5471190000000 1.0
C      1  0.4225730000000  0.5617520000000  0.5512580000000 1.0
C      1  0.4670870000000  0.4638620000000  0.5117810000000 1.0
C      1  0.5863630000000  0.5601810000000  0.5081980000000 1.0
C      1  0.5270230000000  0.4899120000000  0.5799280000000 1.0
C      1  0.4993480000000  0.4994780000000  0.5973690000000 1.0
C      1  0.5064260000000  0.4852060000000  0.4272830000000 1.0
C      1  0.5865380000000  0.4939450000000  0.4647540000000 1.0
C      1  0.4232670000000  0.5144200000000  0.5724400000000 1.0
C      1  0.5735050000000  0.5592490000000  0.4767360000000 1.0
C      1  0.4135290000000  0.4873300000000  0.5628020000000 1.0
C      1  0.4512700000000  0.5232950000000  0.5903680000000 1.0
C      1  0.5656400000000  0.4101910000000  0.4951340000000 1.0
C      1  0.3986450000000  0.5008360000000  0.4520530000000 1.0
C      1  0.4923350000000  0.5981820000000  0.5660850000000 1.0
C      1  0.5569520000000  0.4954810000000  0.6087300000000 1.0
C      1  0.5127860000000  0.4729480000000  0.4585070000000 1.0
C      1  0.5995340000000  0.4669180000000  0.4770340000000 1.0
C      1  0.5157680000000  0.5102540000000  0.5575230000000 1.0
C      1  0.5866770000000  0.4859270000000  0.5607120000000 1.0
C      1  0.5495600000000  0.3998850000000  0.5159700000000 1.0
C      1  0.5536940000000  0.4898810000000  0.5312560000000 1.0
C      1  0.5308090000000  0.4399680000000  0.5957250000000 1.0
C      1  0.4675540000000  0.5193850000000  0.4405890000000 1.0
END
