TITL C-2622957-9142-724 0.000221044671287535 125000 -565.293938670252 0 0 118 (C1) n - 1
REM
REM in /nfs/bkarasulu/CARBON/AIRSS/Generating-Clusters/AIREBO/with-SteepDescent/Higher-Symm/SD-CG/HFTN-CG
REM
REM
REM
REM
REM
REM ./C.cell (b20cbc046b6831c77cfcea5457e17084)
REM
REM compiler GCC version 9.2.1 20190827 (Red Hat 9.2.1-1)
REM options -cpp -mtune=generic -march=x86-64 -g -O0 -fpre-include=/usr/include/finclude/math-vector-fortran.h
REM seed -152248433 -409876227 -1725586842 897762829 1408034691 1850491938 40550451 1975821137 -280073647 -1337316799 1492152463 2097031485 1554511900 264048331 943000596 83277543 1234290827 -1451792517 1245837605 -1763549879 -692647470 199145342 -951240836 -636759660 -1059246937 423041589 1091493463 -833109420 -1110573637 -1296520155 -2030251231 -2105799090 26503469
REM
CELL 1.54180   50.00000   50.00000   50.00000   90.00000   90.00000   90.00000
LATT -1
SFAC C  
C      1  0.4853780000000  0.4470830000000  0.4703560000000 1.0
C      1  0.5243790000000  0.4398110000000  0.4744510000000 1.0
C      1  0.5325360000000  0.4459370000000  0.5130710000000 1.0
C      1  0.4967980000000  0.4377980000000  0.5334370000000 1.0
C      1  0.4682920000000  0.4401780000000  0.5058130000000 1.0
C      1  0.5120690000000  0.5425620000000  0.4698350000000 1.0
C      1  0.4744260000000  0.5540690000000  0.4742200000000 1.0
C      1  0.4686000000000  0.5581960000000  0.5132330000000 1.0
C      1  0.5076130000000  0.5600410000000  0.5247560000000 1.0
C      1  0.5414310000000  0.5573230000000  0.5058650000000 1.0
C      1  0.4580690000000  0.4694140000000  0.5804910000000 1.0
C      1  0.4058360000000  0.4726050000000  0.4920120000000 1.0
C      1  0.4834700000000  0.4749390000000  0.4143210000000 1.0
C      1  0.5834580000000  0.4721220000000  0.4589730000000 1.0
C      1  0.5568740000000  0.4697760000000  0.5569050000000 1.0
C      1  0.5439990000000  0.5276590000000  0.5836690000000 1.0
C      1  0.5882070000000  0.5204220000000  0.4940030000000 1.0
C      1  0.5196910000000  0.5264990000000  0.4156540000000 1.0
C      1  0.4139260000000  0.5347850000000  0.4557760000000 1.0
C      1  0.4414320000000  0.5282740000000  0.5640740000000 1.0
C      1  0.5814610000000  0.5276430000000  0.5467020000000 1.0
C      1  0.4910720000000  0.5176330000000  0.5881160000000 1.0
C      1  0.4081160000000  0.5317840000000  0.5192190000000 1.0
C      1  0.4474690000000  0.5102580000000  0.4126120000000 1.0
C      1  0.5513540000000  0.5228610000000  0.4394830000000 1.0
C      1  0.4218950000000  0.4730180000000  0.5380180000000 1.0
C      1  0.5085960000000  0.4818350000000  0.5892890000000 1.0
C      1  0.6019650000000  0.4884930000000  0.5281590000000 1.0
C      1  0.5571560000000  0.4844990000000  0.4267130000000 1.0
C      1  0.4293530000000  0.4806910000000  0.4323490000000 1.0
C      1  0.4735590000000  0.5254900000000  0.5532800000000 1.0
C      1  0.4273890000000  0.5298660000000  0.4848040000000 1.0
C      1  0.4895710000000  0.5264570000000  0.4232070000000 1.0
C      1  0.5593390000000  0.5262280000000  0.4781380000000 1.0
C      1  0.5416220000000  0.5265320000000  0.5486640000000 1.0
C      1  0.5264280000000  0.4707310000000  0.5557220000000 1.0
C      1  0.5917020000000  0.4690080000000  0.4861780000000 1.0
C      1  0.5104900000000  0.4710860000000  0.4276120000000 1.0
C      1  0.4325970000000  0.4747680000000  0.4716260000000 1.0
C      1  0.4610640000000  0.4724600000000  0.5454260000000 1.0
C      1  0.4367370000000  0.5954100000000  0.4723210000000 1.0
C      1  0.5068590000000  0.5765630000000  0.4682130000000 1.0
C      1  0.5517860000000  0.5888130000000  0.5029760000000 1.0
C      1  0.5168470000000  0.5905060000000  0.5364630000000 1.0
C      1  0.4724360000000  0.5899650000000  0.5247870000000 1.0
C      1  0.5385830000000  0.4096540000000  0.4724790000000 1.0
C      1  0.4886390000000  0.4130940000000  0.4656220000000 1.0
C      1  0.4575290000000  0.4086300000000  0.4993800000000 1.0
C      1  0.4874160000000  0.4065450000000  0.5385200000000 1.0
C      1  0.5306080000000  0.4127660000000  0.5204560000000 1.0
C      1  0.5466680000000  0.4848310000000  0.4590700000000 1.0
C      1  0.5690450000000  0.4821410000000  0.5224700000000 1.0
C      1  0.4885550000000  0.4802060000000  0.5639160000000 1.0
C      1  0.4375650000000  0.4860040000000  0.5100350000000 1.0
C      1  0.4580480000000  0.4789140000000  0.4350290000000 1.0
C      1  0.4445120000000  0.5159940000000  0.4431890000000 1.0
C      1  0.4399450000000  0.5220520000000  0.5261860000000 1.0
C      1  0.5132610000000  0.5193190000000  0.5660430000000 1.0
C      1  0.5657260000000  0.5213680000000  0.5172150000000 1.0
C      1  0.5200250000000  0.5114430000000  0.4461390000000 1.0
C      1  0.5046360000000  0.5588190000000  0.4409110000000 1.0
C      1  0.5663550000000  0.5649490000000  0.4838450000000 1.0
C      1  0.5324370000000  0.5653240000000  0.5475590000000 1.0
C      1  0.4682860000000  0.5645250000000  0.5466380000000 1.0
C      1  0.4427780000000  0.5660220000000  0.4776480000000 1.0
C      1  0.4974020000000  0.4348330000000  0.4409880000000 1.0
C      1  0.4431260000000  0.4347950000000  0.4840480000000 1.0
C      1  0.4671710000000  0.4310320000000  0.5473300000000 1.0
C      1  0.5394420000000  0.4349600000000  0.5445010000000 1.0
C      1  0.5577640000000  0.4365780000000  0.4799210000000 1.0
C      1  0.5999550000000  0.4926290000000  0.4994160000000 1.0
C      1  0.5346410000000  0.4955270000000  0.5775800000000 1.0
C      1  0.4392550000000  0.4984330000000  0.5479220000000 1.0
C      1  0.4176880000000  0.5009870000000  0.4558980000000 1.0
C      1  0.5298640000000  0.4941110000000  0.4191660000000 1.0
C      1  0.4134750000000  0.5048430000000  0.4996660000000 1.0
C      1  0.4662280000000  0.5022510000000  0.5770190000000 1.0
C      1  0.5639240000000  0.5002770000000  0.5507690000000 1.0
C      1  0.5741110000000  0.5046960000000  0.4561910000000 1.0
C      1  0.4744900000000  0.5048660000000  0.4086940000000 1.0
C      1  0.4649330000000  0.4717170000000  0.4816960000000 1.0
C      1  0.5108590000000  0.4671300000000  0.4601090000000 1.0
C      1  0.5259050000000  0.4776940000000  0.5043490000000 1.0
C      1  0.5053610000000  0.4704050000000  0.5290040000000 1.0
C      1  0.4747560000000  0.4724870000000  0.5142750000000 1.0
C      1  0.5299270000000  0.5245660000000  0.4865420000000 1.0
C      1  0.4849760000000  0.5274370000000  0.4558920000000 1.0
C      1  0.4587180000000  0.5327440000000  0.4929510000000 1.0
C      1  0.4922130000000  0.5220090000000  0.5245820000000 1.0
C      1  0.5246540000000  0.5310610000000  0.5195180000000 1.0
C      1  0.4893610000000  0.5513830000000  0.5668790000000 1.0
C      1  0.4292800000000  0.5554920000000  0.5070750000000 1.0
C      1  0.4724780000000  0.5550360000000  0.4305200000000 1.0
C      1  0.5599580000000  0.5515940000000  0.4555020000000 1.0
C      1  0.5610030000000  0.5531820000000  0.5402230000000 1.0
C      1  0.5156800000000  0.4424420000000  0.5679190000000 1.0
C      1  0.5754700000000  0.4499950000000  0.4996000000000 1.0
C      1  0.5295030000000  0.4436370000000  0.4340470000000 1.0
C      1  0.4457310000000  0.4474900000000  0.4561510000000 1.0
C      1  0.4414020000000  0.4453770000000  0.5364310000000 1.0
C      1  0.4393450000000  0.5523160000000  0.5396900000000 1.0
C      1  0.4446280000000  0.5481440000000  0.4487700000000 1.0
C      1  0.5358040000000  0.5521320000000  0.4311290000000 1.0
C      1  0.5799950000000  0.5501580000000  0.5112560000000 1.0
C      1  0.5217920000000  0.5515940000000  0.5725330000000 1.0
C      1  0.5675130000000  0.4495300000000  0.5319690000000 1.0
C      1  0.5545010000000  0.4539510000000  0.4522670000000 1.0
C      1  0.4693850000000  0.4482390000000  0.4337530000000 1.0
C      1  0.4304630000000  0.4531090000000  0.5051800000000 1.0
C      1  0.4820690000000  0.4473200000000  0.5696500000000 1.0
C      1  0.5027100000000  0.5002770000000  0.5430530000000 1.0
C      1  0.5191190000000  0.4952850000000  0.4760510000000 1.0
C      1  0.4676740000000  0.4986070000000  0.4610250000000 1.0
C      1  0.4656410000000  0.5051670000000  0.5116080000000 1.0
C      1  0.5413260000000  0.5014620000000  0.5174360000000 1.0
C      1  0.4953080000000  0.5671260000000  0.4965130000000 1.0
C      1  0.5017770000000  0.4399430000000  0.4998610000000 1.0
C      1  0.4890120000000  0.5027100000000  0.4870210000000 1.0
END
