TITL C-2622955-8511-117 0.000731484028604355 125000 -884.389375295152 0 0 166 (C1) n - 1
REM
REM in /nfs/bkarasulu/CARBON/AIRSS/Generating-Clusters/AIREBO/with-SteepDescent/Higher-Symm/SD-CG/HFTN-CG
REM
REM
REM
REM
REM
REM ./C.cell (b20cbc046b6831c77cfcea5457e17084)
REM
REM compiler GCC version 9.2.1 20190827 (Red Hat 9.2.1-1)
REM options -cpp -mtune=generic -march=x86-64 -g -O0 -fpre-include=/usr/include/finclude/math-vector-fortran.h
REM seed 1807967717 257485964 768961007 2005733476 -1273833179 -169374031 2037662216 498032198 2064696712 261999490 587243541 1343987595 -1820067205 1641396838 -1022804802 68973021 -1823844268 -555958767 -1327961758 -134745215 595241386 1990710354 240260918 -948079387 -986282650 -1368473228 -588778833 -1065023014 -1675077411 1434579791 43954776 910961425 1637068840
REM
CELL 1.54180   50.00000   50.00000   50.00000   90.00000   90.00000   90.00000
LATT -1
SFAC C  
C      1  0.5667540000000  0.5012800000000  0.4963580000000 1.0
C      1  0.5420510000000  0.5625160000000  0.4972960000000 1.0
C      1  0.4799180000000  0.5722370000000  0.4904170000000 1.0
C      1  0.4343020000000  0.5387390000000  0.4923380000000 1.0
C      1  0.4363320000000  0.4609750000000  0.4976930000000 1.0
C      1  0.4875050000000  0.4298090000000  0.4939620000000 1.0
C      1  0.5506770000000  0.4351050000000  0.4939270000000 1.0
C      1  0.5516590000000  0.4538920000000  0.5962860000000 1.0
C      1  0.5587750000000  0.5331660000000  0.5972670000000 1.0
C      1  0.5206120000000  0.5540720000000  0.5885200000000 1.0
C      1  0.4887960000000  0.5601010000000  0.5849240000000 1.0
C      1  0.4461590000000  0.5114450000000  0.6013580000000 1.0
C      1  0.4492850000000  0.4550870000000  0.5966170000000 1.0
C      1  0.5044260000000  0.4475110000000  0.6018000000000 1.0
C      1  0.3980880000000  0.4905980000000  0.5145970000000 1.0
C      1  0.4653270000000  0.4025810000000  0.5314650000000 1.0
C      1  0.5465360000000  0.4106750000000  0.5272150000000 1.0
C      1  0.6004220000000  0.4798760000000  0.5257580000000 1.0
C      1  0.5740950000000  0.5689050000000  0.5202780000000 1.0
C      1  0.4875880000000  0.6053590000000  0.5227900000000 1.0
C      1  0.4141350000000  0.5705430000000  0.5256070000000 1.0
C      1  0.4832550000000  0.4468430000000  0.5382160000000 1.0
C      1  0.5419330000000  0.4396430000000  0.5439090000000 1.0
C      1  0.5570140000000  0.5048100000000  0.5381150000000 1.0
C      1  0.5461100000000  0.5429100000000  0.5329430000000 1.0
C      1  0.5015510000000  0.5708200000000  0.5364500000000 1.0
C      1  0.4328160000000  0.5248390000000  0.5420710000000 1.0
C      1  0.4318630000000  0.4627150000000  0.5393220000000 1.0
C      1  0.5406580000000  0.4078100000000  0.4847910000000 1.0
C      1  0.5902170000000  0.4795850000000  0.4870900000000 1.0
C      1  0.5744880000000  0.5615910000000  0.4871140000000 1.0
C      1  0.4967570000000  0.5992010000000  0.4826370000000 1.0
C      1  0.4236600000000  0.5688220000000  0.4871940000000 1.0
C      1  0.4066890000000  0.4763780000000  0.4913390000000 1.0
C      1  0.4609970000000  0.4163220000000  0.4823800000000 1.0
C      1  0.5730440000000  0.5510410000000  0.5488010000000 1.0
C      1  0.5083810000000  0.6012670000000  0.5469190000000 1.0
C      1  0.4345460000000  0.5576250000000  0.5441680000000 1.0
C      1  0.4086720000000  0.4826120000000  0.5396910000000 1.0
C      1  0.4561090000000  0.4303440000000  0.5462970000000 1.0
C      1  0.5261650000000  0.4136440000000  0.5551810000000 1.0
C      1  0.5755440000000  0.4811780000000  0.5466430000000 1.0
C      1  0.4111790000000  0.4615540000000  0.4382570000000 1.0
C      1  0.4772440000000  0.4136410000000  0.4441210000000 1.0
C      1  0.5553970000000  0.4231700000000  0.4438450000000 1.0
C      1  0.5848410000000  0.5014410000000  0.4516930000000 1.0
C      1  0.5634220000000  0.5701290000000  0.4459100000000 1.0
C      1  0.4851190000000  0.5793100000000  0.4393950000000 1.0
C      1  0.4004210000000  0.5322520000000  0.4537310000000 1.0
C      1  0.4667940000000  0.5048280000000  0.5618520000000 1.0
C      1  0.4777270000000  0.4762270000000  0.5544070000000 1.0
C      1  0.5046730000000  0.4648840000000  0.5661080000000 1.0
C      1  0.5306510000000  0.4791620000000  0.5599870000000 1.0
C      1  0.5311380000000  0.5078270000000  0.5724100000000 1.0
C      1  0.5138830000000  0.5303210000000  0.5571110000000 1.0
C      1  0.4820760000000  0.5272660000000  0.5489820000000 1.0
C      1  0.4274400000000  0.4359840000000  0.5189810000000 1.0
C      1  0.4952320000000  0.4060730000000  0.5167680000000 1.0
C      1  0.5706910000000  0.4331280000000  0.5172640000000 1.0
C      1  0.5865020000000  0.5109200000000  0.5223240000000 1.0
C      1  0.5457460000000  0.5879530000000  0.5195560000000 1.0
C      1  0.4617080000000  0.5937640000000  0.5278800000000 1.0
C      1  0.4135370000000  0.5376430000000  0.5170260000000 1.0
C      1  0.5350510000000  0.5875280000000  0.5487980000000 1.0
C      1  0.4576670000000  0.5723510000000  0.5467550000000 1.0
C      1  0.4096230000000  0.4987890000000  0.5615180000000 1.0
C      1  0.4222580000000  0.4265290000000  0.5509190000000 1.0
C      1  0.4927140000000  0.4099450000000  0.5503360000000 1.0
C      1  0.5811400000000  0.4472320000000  0.5446610000000 1.0
C      1  0.5920670000000  0.5231210000000  0.5544690000000 1.0
C      1  0.5469730000000  0.4554190000000  0.4231090000000 1.0
C      1  0.5644330000000  0.5074570000000  0.4182700000000 1.0
C      1  0.5396480000000  0.5557840000000  0.4175770000000 1.0
C      1  0.4873860000000  0.5632170000000  0.4122800000000 1.0
C      1  0.4390600000000  0.5215760000000  0.4247360000000 1.0
C      1  0.4425040000000  0.4624900000000  0.4250390000000 1.0
C      1  0.4935040000000  0.4404070000000  0.4192520000000 1.0
C      1  0.4510510000000  0.5074130000000  0.5234200000000 1.0
C      1  0.4574940000000  0.4754990000000  0.5286520000000 1.0
C      1  0.5047020000000  0.4518040000000  0.5224200000000 1.0
C      1  0.5329320000000  0.4680350000000  0.5278220000000 1.0
C      1  0.5291250000000  0.5006660000000  0.5260040000000 1.0
C      1  0.5158570000000  0.5311930000000  0.5227640000000 1.0
C      1  0.4769350000000  0.5229010000000  0.5194410000000 1.0
C      1  0.5178570000000  0.4597900000000  0.4054850000000 1.0
C      1  0.5394410000000  0.4850960000000  0.4125630000000 1.0
C      1  0.5382500000000  0.5240120000000  0.4078910000000 1.0
C      1  0.5162890000000  0.5429430000000  0.3940260000000 1.0
C      1  0.4675680000000  0.5349000000000  0.4123800000000 1.0
C      1  0.4564440000000  0.4965810000000  0.4095720000000 1.0
C      1  0.4747580000000  0.4686840000000  0.4161190000000 1.0
C      1  0.5039970000000  0.4325020000000  0.5731550000000 1.0
C      1  0.5578110000000  0.4596310000000  0.5660780000000 1.0
C      1  0.5599750000000  0.5245340000000  0.5656400000000 1.0
C      1  0.5322980000000  0.5587960000000  0.5596450000000 1.0
C      1  0.4818650000000  0.5575940000000  0.5558480000000 1.0
C      1  0.4367780000000  0.5130910000000  0.5724050000000 1.0
C      1  0.4397240000000  0.4489870000000  0.5695370000000 1.0
C      1  0.5187530000000  0.5912250000000  0.4573730000000 1.0
C      1  0.4399710000000  0.5628180000000  0.4588120000000 1.0
C      1  0.4067530000000  0.4935930000000  0.4617460000000 1.0
C      1  0.4442700000000  0.4315850000000  0.4575460000000 1.0
C      1  0.5224370000000  0.4074740000000  0.4567660000000 1.0
C      1  0.5844240000000  0.4622800000000  0.4586260000000 1.0
C      1  0.5836810000000  0.5403740000000  0.4616940000000 1.0
C      1  0.5186330000000  0.6053510000000  0.5085420000000 1.0
C      1  0.4357810000000  0.5914570000000  0.5097870000000 1.0
C      1  0.3925150000000  0.5173460000000  0.5063580000000 1.0
C      1  0.4420200000000  0.4110100000000  0.5082780000000 1.0
C      1  0.5223600000000  0.3948230000000  0.5092790000000 1.0
C      1  0.5967140000000  0.4532260000000  0.5085800000000 1.0
C      1  0.5923690000000  0.5420590000000  0.5101700000000 1.0
C      1  0.4253170000000  0.4916240000000  0.4331750000000 1.0
C      1  0.4613100000000  0.4337760000000  0.4282020000000 1.0
C      1  0.5243000000000  0.4321000000000  0.4332810000000 1.0
C      1  0.5724250000000  0.4776040000000  0.4325780000000 1.0
C      1  0.5640540000000  0.5385350000000  0.4339270000000 1.0
C      1  0.5164070000000  0.5755020000000  0.4273100000000 1.0
C      1  0.4244650000000  0.5441140000000  0.4392170000000 1.0
C      1  0.4416580000000  0.4945850000000  0.4978400000000 1.0
C      1  0.4698910000000  0.4578840000000  0.5022390000000 1.0
C      1  0.5199030000000  0.4396370000000  0.4972210000000 1.0
C      1  0.5448760000000  0.4775650000000  0.4974330000000 1.0
C      1  0.5510190000000  0.5304170000000  0.5040940000000 1.0
C      1  0.5094740000000  0.5665380000000  0.5062280000000 1.0
C      1  0.4634820000000  0.5427950000000  0.4986970000000 1.0
C      1  0.5099160000000  0.4518300000000  0.4695460000000 1.0
C      1  0.5386790000000  0.4651500000000  0.4701640000000 1.0
C      1  0.5355880000000  0.5365370000000  0.4677610000000 1.0
C      1  0.5121930000000  0.5373130000000  0.4894930000000 1.0
C      1  0.4845040000000  0.5358140000000  0.4750660000000 1.0
C      1  0.4460240000000  0.4914620000000  0.4668830000000 1.0
C      1  0.4862120000000  0.4688480000000  0.4790150000000 1.0
C      1  0.4968510000000  0.4231250000000  0.4617100000000 1.0
C      1  0.5617650000000  0.4427920000000  0.4646260000000 1.0
C      1  0.5625600000000  0.5163980000000  0.4671510000000 1.0
C      1  0.5397210000000  0.5691400000000  0.4640220000000 1.0
C      1  0.4727430000000  0.5619360000000  0.4588160000000 1.0
C      1  0.4270570000000  0.5194560000000  0.4705520000000 1.0
C      1  0.4334920000000  0.4599990000000  0.4638230000000 1.0
C      1  0.4507590000000  0.5872990000000  0.4798460000000 1.0
C      1  0.3880480000000  0.5167170000000  0.4782350000000 1.0
C      1  0.4298740000000  0.4067910000000  0.4763740000000 1.0
C      1  0.5219450000000  0.3806900000000  0.4780170000000 1.0
C      1  0.6105960000000  0.4539140000000  0.4778640000000 1.0
C      1  0.6074930000000  0.5405070000000  0.4822280000000 1.0
C      1  0.5241790000000  0.6180850000000  0.4775050000000 1.0
C      1  0.5096670000000  0.4728050000000  0.4351630000000 1.0
C      1  0.5360450000000  0.4862710000000  0.4463990000000 1.0
C      1  0.5295680000000  0.5191350000000  0.4405230000000 1.0
C      1  0.5050750000000  0.5374360000000  0.4256510000000 1.0
C      1  0.4784640000000  0.5255560000000  0.4432130000000 1.0
C      1  0.4638420000000  0.4962230000000  0.4427950000000 1.0
C      1  0.4828270000000  0.4725880000000  0.4487720000000 1.0
C      1  0.4796440000000  0.4561320000000  0.6101260000000 1.0
C      1  0.5275100000000  0.4637450000000  0.6050170000000 1.0
C      1  0.5254960000000  0.4941720000000  0.6031060000000 1.0
C      1  0.5307500000000  0.5275240000000  0.6071870000000 1.0
C      1  0.4975920000000  0.5321470000000  0.6009690000000 1.0
C      1  0.4766930000000  0.5133860000000  0.6151460000000 1.0
C      1  0.4637140000000  0.4842320000000  0.6044630000000 1.0
C      1  0.4970300000000  0.4961770000000  0.4821100000000 1.0
C      1  0.4998420000000  0.5046250000000  0.5088420000000 1.0
C      1  0.5028330000000  0.5066310000000  0.4549950000000 1.0
C      1  0.5057600000000  0.5039530000000  0.6275750000000 1.0
C      1  0.4884020000000  0.5304410000000  0.3898140000000 1.0
END
