TITL C-2622959-7779-673 -0.0653281964162368 125000 -658.56819328985 0 0 112 (C1) n - 1
REM
REM in /nfs/bkarasulu/CARBON/AIRSS/Generating-Clusters/AIREBO/with-SteepDescent/Higher-Symm/SD-CG/HFTN-CG
REM
REM
REM
REM
REM
REM ./C.cell (b20cbc046b6831c77cfcea5457e17084)
REM
REM compiler GCC version 9.2.1 20190827 (Red Hat 9.2.1-1)
REM options -cpp -mtune=generic -march=x86-64 -g -O0 -fpre-include=/usr/include/finclude/math-vector-fortran.h
REM seed 2145097721 691565373 683842106 36531939 1005806815 -153712683 -925127071 333267880 -1546923486 1745362512 -945293480 -560103347 -829313926 1859023811 648373501 -1756728963 2010285086 -879691362 1420590134 -1995522495 793142148 -977373982 -808208381 364906020 283350872 666113987 -1286721578 -1812478270 -1356482336 810936508 -2024492566 -699428952 737468248
REM
CELL 1.54180   50.00000   50.00000   50.00000   90.00000   90.00000   90.00000
LATT -1
SFAC C  
C      1  0.5395190000000  0.5046500000000  0.4050620000000 1.0
C      1  0.5426600000000  0.5592520000000  0.4265760000000 1.0
C      1  0.5487090000000  0.5956100000000  0.4718130000000 1.0
C      1  0.5436690000000  0.5953050000000  0.5269360000000 1.0
C      1  0.5431780000000  0.5667150000000  0.5730240000000 1.0
C      1  0.5440810000000  0.5182460000000  0.5981380000000 1.0
C      1  0.5440860000000  0.4638040000000  0.5935140000000 1.0
C      1  0.5451310000000  0.4195830000000  0.5611640000000 1.0
C      1  0.5432140000000  0.3994630000000  0.5097790000000 1.0
C      1  0.5414380000000  0.4098270000000  0.4557300000000 1.0
C      1  0.5381810000000  0.4485950000000  0.4152930000000 1.0
C      1  0.5391270000000  0.4562970000000  0.4626210000000 1.0
C      1  0.5529390000000  0.4785190000000  0.4446620000000 1.0
C      1  0.5435130000000  0.5137910000000  0.4437290000000 1.0
C      1  0.5358870000000  0.5579830000000  0.4756710000000 1.0
C      1  0.5532170000000  0.5570300000000  0.5019800000000 1.0
C      1  0.5379020000000  0.5461280000000  0.5291940000000 1.0
C      1  0.5525860000000  0.5246720000000  0.5511280000000 1.0
C      1  0.5389130000000  0.4948350000000  0.5561090000000 1.0
C      1  0.5528260000000  0.4653560000000  0.5463110000000 1.0
C      1  0.5396630000000  0.4460930000000  0.5219570000000 1.0
C      1  0.5526170000000  0.4424990000000  0.4906170000000 1.0
C      1  0.4422970000000  0.5050650000000  0.4430810000000 1.0
C      1  0.4378210000000  0.5225190000000  0.4648890000000 1.0
C      1  0.4406640000000  0.5275440000000  0.4913090000000 1.0
C      1  0.4404200000000  0.5293560000000  0.5182140000000 1.0
C      1  0.4480130000000  0.5173330000000  0.5422560000000 1.0
C      1  0.4390230000000  0.4910360000000  0.5487920000000 1.0
C      1  0.4365250000000  0.4688830000000  0.5313490000000 1.0
C      1  0.4419030000000  0.4451490000000  0.5163210000000 1.0
C      1  0.4420230000000  0.4480700000000  0.4881390000000 1.0
C      1  0.4448920000000  0.4517040000000  0.4600310000000 1.0
C      1  0.4405640000000  0.4777130000000  0.4500960000000 1.0
C      1  0.5185880000000  0.5169400000000  0.4601180000000 1.0
C      1  0.5145430000000  0.5400990000000  0.4755970000000 1.0
C      1  0.4978590000000  0.5437670000000  0.4991020000000 1.0
C      1  0.5092130000000  0.5373110000000  0.5243450000000 1.0
C      1  0.4980630000000  0.5201250000000  0.5435070000000 1.0
C      1  0.5096130000000  0.4952460000000  0.5489560000000 1.0
C      1  0.5002800000000  0.4695970000000  0.5419000000000 1.0
C      1  0.5106640000000  0.4541300000000  0.5207130000000 1.0
C      1  0.5010910000000  0.4589670000000  0.4960090000000 1.0
C      1  0.5117970000000  0.4660920000000  0.4693110000000 1.0
C      1  0.5035230000000  0.4943100000000  0.4624400000000 1.0
C      1  0.4490770000000  0.5138490000000  0.4178350000000 1.0
C      1  0.4730470000000  0.5557860000000  0.4966950000000 1.0
C      1  0.4860610000000  0.6424760000000  0.5282460000000 1.0
C      1  0.4771900000000  0.5993020000000  0.5985930000000 1.0
C      1  0.4723940000000  0.5266590000000  0.5568550000000 1.0
C      1  0.4387280000000  0.4845750000000  0.5764160000000 1.0
C      1  0.4602210000000  0.4267620000000  0.5566470000000 1.0
C      1  0.4474460000000  0.4220760000000  0.5320430000000 1.0
C      1  0.4615620000000  0.3672730000000  0.4554700000000 1.0
C      1  0.4536590000000  0.4305580000000  0.4445940000000 1.0
C      1  0.4764130000000  0.5428350000000  0.3487160000000 1.0
C      1  0.4800450000000  0.6070960000000  0.5677930000000 1.0
C      1  0.4737930000000  0.5504300000000  0.5811990000000 1.0
C      1  0.4607120000000  0.4963070000000  0.5963860000000 1.0
C      1  0.4614630000000  0.4383260000000  0.5812560000000 1.0
C      1  0.4388520000000  0.3955930000000  0.5262230000000 1.0
C      1  0.4581690000000  0.3703790000000  0.4820810000000 1.0
C      1  0.4596720000000  0.4090520000000  0.4296070000000 1.0
C      1  0.4849040000000  0.5514980000000  0.3249990000000 1.0
C      1  0.4581580000000  0.5222000000000  0.3942340000000 1.0
C      1  0.4504080000000  0.5696760000000  0.4946980000000 1.0
C      1  0.4895020000000  0.6585920000000  0.5073190000000 1.0
C      1  0.4280070000000  0.5825520000000  0.4903390000000 1.0
C      1  0.4903490000000  0.6744040000000  0.4864320000000 1.0
C      1  0.4843810000000  0.6247460000000  0.5480510000000 1.0
C      1  0.4765680000000  0.5759560000000  0.5756880000000 1.0
C      1  0.4705480000000  0.5203810000000  0.5889260000000 1.0
C      1  0.4609200000000  0.4648090000000  0.5885840000000 1.0
C      1  0.4220600000000  0.3830410000000  0.5432970000000 1.0
C      1  0.4475770000000  0.3831020000000  0.5030960000000 1.0
C      1  0.4677200000000  0.3834940000000  0.4344880000000 1.0
C      1  0.4956200000000  0.5600170000000  0.3026460000000 1.0
C      1  0.4660550000000  0.5328460000000  0.3711330000000 1.0
C      1  0.5426140000000  0.4917030000000  0.5874700000000 1.0
C      1  0.5470850000000  0.4464810000000  0.5708940000000 1.0
C      1  0.5430830000000  0.4168710000000  0.5326100000000 1.0
C      1  0.5452930000000  0.4124760000000  0.4841360000000 1.0
C      1  0.5394440000000  0.4344040000000  0.4405540000000 1.0
C      1  0.5419660000000  0.4783920000000  0.4156210000000 1.0
C      1  0.5418320000000  0.5320730000000  0.4188170000000 1.0
C      1  0.5434670000000  0.5734230000000  0.4512010000000 1.0
C      1  0.5488210000000  0.5881640000000  0.4993600000000 1.0
C      1  0.5411690000000  0.5735010000000  0.5453080000000 1.0
C      1  0.5464960000000  0.5389030000000  0.5784830000000 1.0
C      1  0.5917240000000  0.4943910000000  0.5515810000000 1.0
C      1  0.5823650000000  0.4692220000000  0.5414710000000 1.0
C      1  0.5914070000000  0.4538090000000  0.5190490000000 1.0
C      1  0.5822710000000  0.4486030000000  0.4922850000000 1.0
C      1  0.5927020000000  0.4624500000000  0.4694950000000 1.0
C      1  0.5828020000000  0.4821130000000  0.4516940000000 1.0
C      1  0.5737000000000  0.5117310000000  0.4520370000000 1.0
C      1  0.5824650000000  0.5315630000000  0.4711290000000 1.0
C      1  0.5786760000000  0.5430250000000  0.4976290000000 1.0
C      1  0.5909450000000  0.5343560000000  0.5221660000000 1.0
C      1  0.5823570000000  0.5211480000000  0.5462630000000 1.0
C      1  0.4892940000000  0.4893520000000  0.4922720000000 1.0
C      1  0.5499460000000  0.4956380000000  0.5006500000000 1.0
C      1  0.5228170000000  0.4925080000000  0.4972470000000 1.0
C      1  0.4243110000000  0.4911780000000  0.4933760000000 1.0
C      1  0.4594950000000  0.4924450000000  0.4947110000000 1.0
C      1  0.3455650000000  0.4822530000000  0.5035380000000 1.0
C      1  0.3715810000000  0.4857580000000  0.4990200000000 1.0
C      1  0.6030520000000  0.4939710000000  0.4998080000000 1.0
C      1  0.5768070000000  0.5039470000000  0.5003640000000 1.0
C      1  0.6557050000000  0.4895250000000  0.4990490000000 1.0
C      1  0.3197960000000  0.4813430000000  0.5082440000000 1.0
C      1  0.3980070000000  0.4871610000000  0.4960350000000 1.0
C      1  0.6296630000000  0.4923740000000  0.4983080000000 1.0
END
