TITL C-2622957-9142-523 -0.00183199504960772 125000 -807.667559728114 0 0 142 (C1) n - 1
REM
REM in /nfs/bkarasulu/CARBON/AIRSS/Generating-Clusters/AIREBO/with-SteepDescent/Higher-Symm/SD-CG/HFTN-CG
REM
REM
REM
REM
REM
REM ./C.cell (b20cbc046b6831c77cfcea5457e17084)
REM
REM compiler GCC version 9.2.1 20190827 (Red Hat 9.2.1-1)
REM options -cpp -mtune=generic -march=x86-64 -g -O0 -fpre-include=/usr/include/finclude/math-vector-fortran.h
REM seed -831553417 1345485424 -147252832 1034797862 -1205493255 -1319955571 -462910545 996896755 934327157 -1265118377 -244792435 -855264855 842773036 1408969881 -716444877 -210448273 -1576598439 1636780580 -677571513 883735956 -972489709 -1233431068 -1159973170 -1642790518 -484420117 239294978 -1601289802 1262335077 1608381959 -1788644308 815023356 238386323 1169822858
REM
CELL 1.54180   50.00000   50.00000   50.00000   90.00000   90.00000   90.00000
LATT -1
SFAC C  
C      1  0.4671990000000  0.4460660000000  0.4473150000000 1.0
C      1  0.4381020000000  0.4941080000000  0.4515410000000 1.0
C      1  0.4486240000000  0.5426620000000  0.4545340000000 1.0
C      1  0.4973550000000  0.5751450000000  0.4578040000000 1.0
C      1  0.5722150000000  0.5447590000000  0.4498550000000 1.0
C      1  0.5670000000000  0.4917330000000  0.4358590000000 1.0
C      1  0.5211550000000  0.4354010000000  0.4492750000000 1.0
C      1  0.5324040000000  0.5413100000000  0.5837950000000 1.0
C      1  0.5435740000000  0.5090770000000  0.5824520000000 1.0
C      1  0.5254320000000  0.4864280000000  0.5996870000000 1.0
C      1  0.4930780000000  0.4760810000000  0.5977550000000 1.0
C      1  0.4651910000000  0.4953290000000  0.5821690000000 1.0
C      1  0.4695780000000  0.5288820000000  0.5784990000000 1.0
C      1  0.4988610000000  0.5466120000000  0.5813130000000 1.0
C      1  0.5376540000000  0.4986130000000  0.5525390000000 1.0
C      1  0.5027770000000  0.4637650000000  0.5433780000000 1.0
C      1  0.4591590000000  0.4646980000000  0.5446280000000 1.0
C      1  0.4472220000000  0.4822260000000  0.5636490000000 1.0
C      1  0.4797310000000  0.5366110000000  0.5480990000000 1.0
C      1  0.5118500000000  0.5447130000000  0.5499130000000 1.0
C      1  0.5368550000000  0.5303940000000  0.5438430000000 1.0
C      1  0.5593780000000  0.4861370000000  0.4047160000000 1.0
C      1  0.5230460000000  0.4381080000000  0.4172560000000 1.0
C      1  0.4723100000000  0.4444420000000  0.4140400000000 1.0
C      1  0.4423360000000  0.4940610000000  0.4200870000000 1.0
C      1  0.4538560000000  0.5421910000000  0.4265430000000 1.0
C      1  0.5022920000000  0.5677990000000  0.4302970000000 1.0
C      1  0.5569540000000  0.5450150000000  0.4217950000000 1.0
C      1  0.4540300000000  0.4747290000000  0.4910030000000 1.0
C      1  0.4654070000000  0.5044390000000  0.4783860000000 1.0
C      1  0.4929860000000  0.5225540000000  0.4695960000000 1.0
C      1  0.5261030000000  0.5299930000000  0.4750970000000 1.0
C      1  0.5509470000000  0.5067080000000  0.4777700000000 1.0
C      1  0.5460830000000  0.4754510000000  0.4829590000000 1.0
C      1  0.5145740000000  0.4723520000000  0.4814320000000 1.0
C      1  0.5398630000000  0.4599270000000  0.4111430000000 1.0
C      1  0.4972700000000  0.4343430000000  0.4055140000000 1.0
C      1  0.4611120000000  0.4736680000000  0.4155980000000 1.0
C      1  0.4416810000000  0.5211920000000  0.4111830000000 1.0
C      1  0.4821650000000  0.5476450000000  0.4232870000000 1.0
C      1  0.5290970000000  0.5571080000000  0.4259000000000 1.0
C      1  0.5542750000000  0.5193610000000  0.4100210000000 1.0
C      1  0.6077740000000  0.5098420000000  0.4933720000000 1.0
C      1  0.5532920000000  0.4241810000000  0.4978840000000 1.0
C      1  0.4855620000000  0.4158260000000  0.4898810000000 1.0
C      1  0.4018720000000  0.4537970000000  0.4880190000000 1.0
C      1  0.4157260000000  0.5378220000000  0.4975150000000 1.0
C      1  0.4790400000000  0.5895300000000  0.5034790000000 1.0
C      1  0.5622650000000  0.5902190000000  0.4921370000000 1.0
C      1  0.4524670000000  0.4375430000000  0.5483330000000 1.0
C      1  0.4150600000000  0.4807370000000  0.5608620000000 1.0
C      1  0.4474540000000  0.5470110000000  0.5505530000000 1.0
C      1  0.4959540000000  0.5701600000000  0.5339190000000 1.0
C      1  0.5623670000000  0.5444280000000  0.5529700000000 1.0
C      1  0.5768470000000  0.4731830000000  0.5563170000000 1.0
C      1  0.5128840000000  0.4408730000000  0.5563370000000 1.0
C      1  0.5436810000000  0.4445310000000  0.4722860000000 1.0
C      1  0.4906300000000  0.4278340000000  0.4594820000000 1.0
C      1  0.4428280000000  0.4620490000000  0.4619130000000 1.0
C      1  0.4290570000000  0.5230120000000  0.4662680000000 1.0
C      1  0.4759080000000  0.5520580000000  0.4694240000000 1.0
C      1  0.5473480000000  0.5550690000000  0.4664780000000 1.0
C      1  0.5730550000000  0.5117280000000  0.4563990000000 1.0
C      1  0.5130600000000  0.4667500000000  0.4518530000000 1.0
C      1  0.4859770000000  0.4710220000000  0.4403390000000 1.0
C      1  0.4716080000000  0.4976060000000  0.4468640000000 1.0
C      1  0.4935840000000  0.5196450000000  0.4357160000000 1.0
C      1  0.5256010000000  0.5296770000000  0.4412200000000 1.0
C      1  0.5280130000000  0.5053510000000  0.4214450000000 1.0
C      1  0.5351130000000  0.4799310000000  0.4356110000000 1.0
C      1  0.4136530000000  0.4492680000000  0.5180630000000 1.0
C      1  0.4207610000000  0.5225210000000  0.5243190000000 1.0
C      1  0.4673880000000  0.5624810000000  0.5195830000000 1.0
C      1  0.5563180000000  0.5768100000000  0.5206430000000 1.0
C      1  0.5945540000000  0.5170630000000  0.5220660000000 1.0
C      1  0.5571930000000  0.4405190000000  0.5256800000000 1.0
C      1  0.5047740000000  0.4238640000000  0.5125270000000 1.0
C      1  0.5372980000000  0.3988470000000  0.5015540000000 1.0
C      1  0.4567140000000  0.4158380000000  0.4946070000000 1.0
C      1  0.3916100000000  0.4820400000000  0.5039530000000 1.0
C      1  0.4226250000000  0.5655540000000  0.5056140000000 1.0
C      1  0.5057590000000  0.5955490000000  0.5007960000000 1.0
C      1  0.5822120000000  0.5647250000000  0.5020550000000 1.0
C      1  0.5992850000000  0.4830790000000  0.5016670000000 1.0
C      1  0.4063030000000  0.4514460000000  0.5665560000000 1.0
C      1  0.4356300000000  0.5303290000000  0.5760750000000 1.0
C      1  0.4890290000000  0.5734420000000  0.5657440000000 1.0
C      1  0.5472380000000  0.5661460000000  0.5694480000000 1.0
C      1  0.5733900000000  0.4988330000000  0.5695690000000 1.0
C      1  0.5384230000000  0.4411170000000  0.5687230000000 1.0
C      1  0.4700170000000  0.4177510000000  0.5532120000000 1.0
C      1  0.5981150000000  0.5240590000000  0.4718640000000 1.0
C      1  0.5728150000000  0.4280950000000  0.4715230000000 1.0
C      1  0.5030250000000  0.3977050000000  0.4687310000000 1.0
C      1  0.4202640000000  0.4434630000000  0.4691120000000 1.0
C      1  0.3990600000000  0.5220730000000  0.4764120000000 1.0
C      1  0.4627480000000  0.5779140000000  0.4825240000000 1.0
C      1  0.5428050000000  0.5813260000000  0.4738990000000 1.0
C      1  0.4898320000000  0.5294930000000  0.5202680000000 1.0
C      1  0.5202380000000  0.5363630000000  0.5079900000000 1.0
C      1  0.5425760000000  0.5129970000000  0.5162940000000 1.0
C      1  0.5386740000000  0.4799780000000  0.5240950000000 1.0
C      1  0.4987990000000  0.4631080000000  0.5098520000000 1.0
C      1  0.4718310000000  0.4768050000000  0.5199000000000 1.0
C      1  0.4655960000000  0.5084300000000  0.5090770000000 1.0
C      1  0.5694810000000  0.5164700000000  0.5025830000000 1.0
C      1  0.5672070000000  0.4758960000000  0.5068620000000 1.0
C      1  0.5277680000000  0.4485990000000  0.5165930000000 1.0
C      1  0.4445570000000  0.4451640000000  0.5048780000000 1.0
C      1  0.4249460000000  0.4796400000000  0.5071110000000 1.0
C      1  0.4501570000000  0.5331690000000  0.5196110000000 1.0
C      1  0.5249140000000  0.5649140000000  0.5180430000000 1.0
C      1  0.4351680000000  0.5807660000000  0.4856020000000 1.0
C      1  0.5156160000000  0.5885330000000  0.4752580000000 1.0
C      1  0.5936740000000  0.5541520000000  0.4747610000000 1.0
C      1  0.5946760000000  0.4233520000000  0.4596810000000 1.0
C      1  0.5256260000000  0.3871500000000  0.4786120000000 1.0
C      1  0.4303120000000  0.4182190000000  0.4740230000000 1.0
C      1  0.3813750000000  0.5035570000000  0.4844360000000 1.0
C      1  0.4994900000000  0.4159150000000  0.5450340000000 1.0
C      1  0.4212600000000  0.4342700000000  0.5452140000000 1.0
C      1  0.4207620000000  0.5128140000000  0.5557840000000 1.0
C      1  0.4599020000000  0.5786140000000  0.5489710000000 1.0
C      1  0.5440120000000  0.5866400000000  0.5494450000000 1.0
C      1  0.5861070000000  0.5225870000000  0.5537370000000 1.0
C      1  0.5612460000000  0.4484740000000  0.5530710000000 1.0
C      1  0.5902810000000  0.4750920000000  0.5310720000000 1.0
C      1  0.5208250000000  0.3975580000000  0.5266100000000 1.0
C      1  0.4347850000000  0.4157490000000  0.5200940000000 1.0
C      1  0.4018550000000  0.4956280000000  0.5330050000000 1.0
C      1  0.4305750000000  0.5703130000000  0.5324200000000 1.0
C      1  0.5232080000000  0.5979520000000  0.5260570000000 1.0
C      1  0.5871990000000  0.5484370000000  0.5300590000000 1.0
C      1  0.5025070000000  0.4983000000000  0.4914590000000 1.0
C      1  0.4920990000000  0.5059870000000  0.6094480000000 1.0
C      1  0.5035050000000  0.5017480000000  0.5187280000000 1.0
C      1  0.5080640000000  0.4925370000000  0.5493600000000 1.0
C      1  0.4849980000000  0.4976450000000  0.3567160000000 1.0
C      1  0.5015080000000  0.5064450000000  0.4051980000000 1.0
C      1  0.4968520000000  0.5004030000000  0.5757880000000 1.0
C      1  0.4902740000000  0.5186960000000  0.6318650000000 1.0
C      1  0.4928310000000  0.5007420000000  0.3815390000000 1.0
END
