TITL C-2622959-7779-696 -0.000461779568259006 125000 -1056.41528914997 0 0 181 (C1) n - 1
REM
REM in /nfs/bkarasulu/CARBON/AIRSS/Generating-Clusters/AIREBO/with-SteepDescent/Higher-Symm/SD-CG/HFTN-CG
REM
REM
REM
REM
REM
REM ./C.cell (b20cbc046b6831c77cfcea5457e17084)
REM
REM compiler GCC version 9.2.1 20190827 (Red Hat 9.2.1-1)
REM options -cpp -mtune=generic -march=x86-64 -g -O0 -fpre-include=/usr/include/finclude/math-vector-fortran.h
REM seed -839404231 -263992516 -49964508 -274950155 -1745147600 -573362538 1493059963 -1411139974 1564278043 594224708 -862970593 -213645481 -368146188 -1488422422 -1574215450 1067345399 726649004 -807570001 1203896742 -1595080091 -1916825600 2072867119 -2067177555 -492863525 -2063985582 839986158 30675023 194361043 -435745377 1076763916 -343144957 -1565779717 426238477
REM
CELL 1.54180   50.00000   50.00000   50.00000   90.00000   90.00000   90.00000
LATT -1
SFAC C  
C      1  0.5482210000000  0.5616520000000  0.4062050000000 1.0
C      1  0.5483720000000  0.6087490000000  0.5235770000000 1.0
C      1  0.5521250000000  0.5075030000000  0.6113190000000 1.0
C      1  0.5532990000000  0.4020700000000  0.5364320000000 1.0
C      1  0.5565010000000  0.4363600000000  0.4113220000000 1.0
C      1  0.4539680000000  0.5550670000000  0.4069500000000 1.0
C      1  0.4461590000000  0.6064700000000  0.5361730000000 1.0
C      1  0.4473040000000  0.5020620000000  0.6138110000000 1.0
C      1  0.4472780000000  0.4034720000000  0.5355170000000 1.0
C      1  0.4482910000000  0.4366060000000  0.4124860000000 1.0
C      1  0.5550500000000  0.5667520000000  0.5885990000000 1.0
C      1  0.5463440000000  0.4364390000000  0.5914970000000 1.0
C      1  0.5501740000000  0.4006610000000  0.4671670000000 1.0
C      1  0.5502900000000  0.4996470000000  0.3824020000000 1.0
C      1  0.5507770000000  0.6033310000000  0.4587920000000 1.0
C      1  0.4527900000000  0.5651490000000  0.5910410000000 1.0
C      1  0.4511350000000  0.4383990000000  0.5879600000000 1.0
C      1  0.4569530000000  0.3953320000000  0.4610620000000 1.0
C      1  0.4497530000000  0.4956030000000  0.3850060000000 1.0
C      1  0.4525300000000  0.6012830000000  0.4670760000000 1.0
C      1  0.4345740000000  0.4128050000000  0.4684260000000 1.0
C      1  0.4280910000000  0.4975780000000  0.4054370000000 1.0
C      1  0.4311220000000  0.5798670000000  0.4710320000000 1.0
C      1  0.4274610000000  0.5579460000000  0.5731560000000 1.0
C      1  0.4269270000000  0.4505600000000  0.5736330000000 1.0
C      1  0.5760760000000  0.4159310000000  0.4760930000000 1.0
C      1  0.5708780000000  0.5007490000000  0.4035700000000 1.0
C      1  0.5688900000000  0.5824460000000  0.4690800000000 1.0
C      1  0.5720270000000  0.5524560000000  0.5685600000000 1.0
C      1  0.5728550000000  0.4482840000000  0.5802630000000 1.0
C      1  0.6072060000000  0.5178320000000  0.4956250000000 1.0
C      1  0.6068310000000  0.5021960000000  0.5190930000000 1.0
C      1  0.6029660000000  0.4748200000000  0.5115550000000 1.0
C      1  0.5999890000000  0.4746360000000  0.4829920000000 1.0
C      1  0.6060020000000  0.5004840000000  0.4735260000000 1.0
C      1  0.3904530000000  0.5211230000000  0.4971580000000 1.0
C      1  0.3887230000000  0.5071920000000  0.5218260000000 1.0
C      1  0.3940280000000  0.4797530000000  0.5154290000000 1.0
C      1  0.3943230000000  0.4770900000000  0.4873610000000 1.0
C      1  0.3904710000000  0.5025180000000  0.4759220000000 1.0
C      1  0.5113370000000  0.5818110000000  0.5114610000000 1.0
C      1  0.5141550000000  0.5071890000000  0.5809150000000 1.0
C      1  0.5146420000000  0.4354310000000  0.5302150000000 1.0
C      1  0.5160910000000  0.4510760000000  0.4410440000000 1.0
C      1  0.5139130000000  0.5308940000000  0.4193030000000 1.0
C      1  0.4830420000000  0.5758560000000  0.5179290000000 1.0
C      1  0.4847560000000  0.5097450000000  0.5817260000000 1.0
C      1  0.4844700000000  0.4355080000000  0.5302320000000 1.0
C      1  0.4855550000000  0.4497800000000  0.4406690000000 1.0
C      1  0.4874460000000  0.5322590000000  0.4353630000000 1.0
C      1  0.5966160000000  0.5061460000000  0.4241510000000 1.0
C      1  0.5933670000000  0.5662200000000  0.4846170000000 1.0
C      1  0.5962480000000  0.5309720000000  0.5611200000000 1.0
C      1  0.5968310000000  0.4388590000000  0.5904130000000 1.0
C      1  0.6012550000000  0.4052190000000  0.4720010000000 1.0
C      1  0.4023870000000  0.5076490000000  0.4252850000000 1.0
C      1  0.4077090000000  0.5676760000000  0.4897810000000 1.0
C      1  0.4022400000000  0.5381540000000  0.5638650000000 1.0
C      1  0.4021210000000  0.4392910000000  0.5801150000000 1.0
C      1  0.4063930000000  0.4309230000000  0.4756290000000 1.0
C      1  0.5332680000000  0.4167660000000  0.5762620000000 1.0
C      1  0.5350720000000  0.4168510000000  0.4490670000000 1.0
C      1  0.5374300000000  0.5246040000000  0.3771490000000 1.0
C      1  0.5286830000000  0.6078360000000  0.4785710000000 1.0
C      1  0.5322010000000  0.5488620000000  0.5981170000000 1.0
C      1  0.4659520000000  0.4180580000000  0.5753550000000 1.0
C      1  0.4697740000000  0.4015710000000  0.4366460000000 1.0
C      1  0.4732730000000  0.5139470000000  0.3903390000000 1.0
C      1  0.4625490000000  0.6129540000000  0.4905530000000 1.0
C      1  0.4633650000000  0.5462270000000  0.6090920000000 1.0
C      1  0.4849800000000  0.5441180000000  0.4674260000000 1.0
C      1  0.4793200000000  0.5509980000000  0.5416030000000 1.0
C      1  0.4745430000000  0.4846850000000  0.5610490000000 1.0
C      1  0.4754650000000  0.4355790000000  0.4972370000000 1.0
C      1  0.4806210000000  0.4792430000000  0.4279510000000 1.0
C      1  0.5186340000000  0.5490840000000  0.4731460000000 1.0
C      1  0.5134950000000  0.5435760000000  0.5454600000000 1.0
C      1  0.5241770000000  0.4796940000000  0.5634430000000 1.0
C      1  0.5244210000000  0.4406170000000  0.4983990000000 1.0
C      1  0.5221930000000  0.4823330000000  0.4372140000000 1.0
C      1  0.4704530000000  0.4132250000000  0.5480460000000 1.0
C      1  0.4721360000000  0.4270240000000  0.4245870000000 1.0
C      1  0.4760510000000  0.5369000000000  0.4052380000000 1.0
C      1  0.4677960000000  0.6025110000000  0.5161240000000 1.0
C      1  0.4699240000000  0.5186870000000  0.6080800000000 1.0
C      1  0.5300040000000  0.4126350000000  0.5486890000000 1.0
C      1  0.5317030000000  0.4277760000000  0.4217610000000 1.0
C      1  0.5281260000000  0.5429290000000  0.3973700000000 1.0
C      1  0.5250800000000  0.6061010000000  0.5063870000000 1.0
C      1  0.5289100000000  0.5221300000000  0.6032070000000 1.0
C      1  0.4716580000000  0.5826870000000  0.5797530000000 1.0
C      1  0.4661370000000  0.4563940000000  0.6028250000000 1.0
C      1  0.4729970000000  0.3880380000000  0.4828020000000 1.0
C      1  0.4616050000000  0.4696610000000  0.3769330000000 1.0
C      1  0.4710800000000  0.5937970000000  0.4477180000000 1.0
C      1  0.5408750000000  0.5908770000000  0.5780880000000 1.0
C      1  0.5296590000000  0.4540430000000  0.6053940000000 1.0
C      1  0.5343540000000  0.3915520000000  0.4887110000000 1.0
C      1  0.5330680000000  0.4778790000000  0.3858560000000 1.0
C      1  0.5352940000000  0.5955790000000  0.4345840000000 1.0
C      1  0.4354000000000  0.4499830000000  0.5429420000000 1.0
C      1  0.4405200000000  0.4430700000000  0.4592700000000 1.0
C      1  0.4409160000000  0.5163910000000  0.4276340000000 1.0
C      1  0.4459290000000  0.5736230000000  0.4992270000000 1.0
C      1  0.4387220000000  0.5283730000000  0.5766800000000 1.0
C      1  0.5642770000000  0.4470510000000  0.5496020000000 1.0
C      1  0.5648420000000  0.4414530000000  0.4597880000000 1.0
C      1  0.5601940000000  0.5213420000000  0.4246170000000 1.0
C      1  0.5564940000000  0.5739990000000  0.4969240000000 1.0
C      1  0.5581770000000  0.5234830000000  0.5687210000000 1.0
C      1  0.5288860000000  0.5599490000000  0.4999500000000 1.0
C      1  0.5306210000000  0.5175150000000  0.5539990000000 1.0
C      1  0.5335220000000  0.4524520000000  0.5496390000000 1.0
C      1  0.5319180000000  0.4426870000000  0.4683600000000 1.0
C      1  0.5327660000000  0.5136440000000  0.4357210000000 1.0
C      1  0.4709530000000  0.5528750000000  0.4972190000000 1.0
C      1  0.4662310000000  0.5264370000000  0.5616250000000 1.0
C      1  0.4654740000000  0.4612800000000  0.5401740000000 1.0
C      1  0.4695350000000  0.4520190000000  0.4680710000000 1.0
C      1  0.4682860000000  0.5050720000000  0.4386320000000 1.0
C      1  0.4157640000000  0.5379530000000  0.4964890000000 1.0
C      1  0.4094880000000  0.5180950000000  0.5413000000000 1.0
C      1  0.4202190000000  0.4720850000000  0.5266320000000 1.0
C      1  0.4207800000000  0.4627370000000  0.4775990000000 1.0
C      1  0.4114310000000  0.5090810000000  0.4552170000000 1.0
C      1  0.5840600000000  0.5376280000000  0.4952600000000 1.0
C      1  0.5849630000000  0.5120700000000  0.5377730000000 1.0
C      1  0.5785850000000  0.4638260000000  0.5256550000000 1.0
C      1  0.5714610000000  0.4678200000000  0.4747100000000 1.0
C      1  0.5854720000000  0.5088310000000  0.4533490000000 1.0
C      1  0.5182960000000  0.5803770000000  0.4598190000000 1.0
C      1  0.5194590000000  0.5650990000000  0.5710960000000 1.0
C      1  0.5117210000000  0.4684550000000  0.5898910000000 1.0
C      1  0.5150020000000  0.4098430000000  0.4977420000000 1.0
C      1  0.5145310000000  0.4782960000000  0.4054950000000 1.0
C      1  0.4887120000000  0.5747820000000  0.4535050000000 1.0
C      1  0.4910260000000  0.5721280000000  0.5641820000000 1.0
C      1  0.4850950000000  0.4704910000000  0.5884890000000 1.0
C      1  0.4883450000000  0.4079680000000  0.4946080000000 1.0
C      1  0.4853870000000  0.4828380000000  0.3973690000000 1.0
C      1  0.4272010000000  0.4828600000000  0.5732180000000 1.0
C      1  0.4320030000000  0.4300630000000  0.4976100000000 1.0
C      1  0.4285500000000  0.4787660000000  0.4322220000000 1.0
C      1  0.4327780000000  0.5544500000000  0.4531020000000 1.0
C      1  0.4285850000000  0.5599820000000  0.5407440000000 1.0
C      1  0.5708160000000  0.4793130000000  0.5731460000000 1.0
C      1  0.5710260000000  0.4316960000000  0.5031700000000 1.0
C      1  0.5676070000000  0.4798630000000  0.4298480000000 1.0
C      1  0.5707660000000  0.5568690000000  0.4513410000000 1.0
C      1  0.5699020000000  0.5628590000000  0.5391960000000 1.0
C      1  0.5364720000000  0.5254140000000  0.4657060000000 1.0
C      1  0.5362360000000  0.5407370000000  0.5221960000000 1.0
C      1  0.5368200000000  0.4902900000000  0.5345970000000 1.0
C      1  0.5266100000000  0.4732140000000  0.5078990000000 1.0
C      1  0.5242930000000  0.4938600000000  0.4692030000000 1.0
C      1  0.4632390000000  0.5180090000000  0.4688850000000 1.0
C      1  0.4651910000000  0.5298100000000  0.5190680000000 1.0
C      1  0.4575570000000  0.5038660000000  0.5396780000000 1.0
C      1  0.4747930000000  0.4672510000000  0.5080260000000 1.0
C      1  0.4690700000000  0.4847270000000  0.4729940000000 1.0
C      1  0.5671140000000  0.5314880000000  0.4687780000000 1.0
C      1  0.5685600000000  0.5353260000000  0.5224090000000 1.0
C      1  0.5677850000000  0.4867480000000  0.5437610000000 1.0
C      1  0.5578880000000  0.4616110000000  0.5012660000000 1.0
C      1  0.5566770000000  0.4916130000000  0.4589650000000 1.0
C      1  0.4333340000000  0.5287320000000  0.4713050000000 1.0
C      1  0.4316460000000  0.5339090000000  0.5234140000000 1.0
C      1  0.4291530000000  0.4941970000000  0.5450590000000 1.0
C      1  0.4414730000000  0.4611090000000  0.5045340000000 1.0
C      1  0.4368040000000  0.4888230000000  0.4627880000000 1.0
C      1  0.5708660000000  0.4230770000000  0.5297060000000 1.0
C      1  0.5701000000000  0.4517660000000  0.4307110000000 1.0
C      1  0.5654490000000  0.5493320000000  0.4253300000000 1.0
C      1  0.5645330000000  0.5844600000000  0.5226380000000 1.0
C      1  0.5670150000000  0.5029370000000  0.5873310000000 1.0
C      1  0.4311790000000  0.4235540000000  0.5272050000000 1.0
C      1  0.4327880000000  0.4510290000000  0.4309020000000 1.0
C      1  0.4367780000000  0.5449570000000  0.4273740000000 1.0
C      1  0.4350930000000  0.5812670000000  0.5247460000000 1.0
C      1  0.4306480000000  0.5042500000000  0.5907200000000 1.0
C      1  0.4994460000000  0.4812000000000  0.4888280000000 1.0
END
