TITL C-2622967-6265-359 -0.000663313602854072 125000 -721.952631676018 0 0 139 (C1) n - 1
REM
REM in /nfs/bkarasulu/CARBON/AIRSS/Generating-Clusters/AIREBO/with-SteepDescent/Higher-Symm/SD-CG/HFTN-CG
REM
REM
REM
REM
REM
REM ./C.cell (b20cbc046b6831c77cfcea5457e17084)
REM
REM compiler GCC version 9.2.1 20190827 (Red Hat 9.2.1-1)
REM options -cpp -mtune=generic -march=x86-64 -g -O0 -fpre-include=/usr/include/finclude/math-vector-fortran.h
REM seed -684027084 1771678304 514792019 -34917469 -2144818997 1440290113 -955340619 -1213118548 1150430281 -141362514 -2125900629 2023178884 -673654446 -193529064 1313876765 133390248 215847929 -859180912 921787996 -1342008646 -710329557 2048543005 809908586 890422953 1938375755 -1998409106 -350752608 435035489 -1868182209 -325164590 -1205940841 -1494235113 -875335749
REM
CELL 1.54180   50.00000   50.00000   50.00000   90.00000   90.00000   90.00000
LATT -1
SFAC C  
C      1  0.5120460000000  0.4593360000000  0.4314250000000 1.0
C      1  0.5357620000000  0.4804580000000  0.4230530000000 1.0
C      1  0.5356910000000  0.5142010000000  0.4273640000000 1.0
C      1  0.5324700000000  0.5458090000000  0.4152390000000 1.0
C      1  0.4772800000000  0.5261600000000  0.4333880000000 1.0
C      1  0.4593730000000  0.5000930000000  0.4208740000000 1.0
C      1  0.4655580000000  0.4731080000000  0.4231990000000 1.0
C      1  0.5336330000000  0.5322350000000  0.4571950000000 1.0
C      1  0.4903230000000  0.5423710000000  0.4602940000000 1.0
C      1  0.4648400000000  0.5118310000000  0.4616020000000 1.0
C      1  0.4499650000000  0.4856130000000  0.4577870000000 1.0
C      1  0.4815820000000  0.4526040000000  0.4450880000000 1.0
C      1  0.5163030000000  0.4619100000000  0.4623160000000 1.0
C      1  0.5468530000000  0.5008950000000  0.4565970000000 1.0
C      1  0.5820970000000  0.5317730000000  0.5678580000000 1.0
C      1  0.5251060000000  0.6127500000000  0.5684800000000 1.0
C      1  0.4630950000000  0.5709550000000  0.5768420000000 1.0
C      1  0.4171820000000  0.5120220000000  0.5704670000000 1.0
C      1  0.4438250000000  0.4580870000000  0.5753720000000 1.0
C      1  0.5088820000000  0.4238840000000  0.5566350000000 1.0
C      1  0.5598920000000  0.4573930000000  0.5685360000000 1.0
C      1  0.5079340000000  0.5401440000000  0.5743170000000 1.0
C      1  0.4834680000000  0.5246050000000  0.5836890000000 1.0
C      1  0.4671600000000  0.4963900000000  0.5739950000000 1.0
C      1  0.4943250000000  0.4944290000000  0.5947120000000 1.0
C      1  0.5088170000000  0.4746560000000  0.5711370000000 1.0
C      1  0.5310170000000  0.4981580000000  0.5767710000000 1.0
C      1  0.5313730000000  0.5264160000000  0.5762730000000 1.0
C      1  0.4466530000000  0.5584680000000  0.5429910000000 1.0
C      1  0.4186280000000  0.4933750000000  0.5354090000000 1.0
C      1  0.4564260000000  0.4328740000000  0.5349670000000 1.0
C      1  0.5286320000000  0.4263980000000  0.5303160000000 1.0
C      1  0.5800260000000  0.4743920000000  0.5385060000000 1.0
C      1  0.5695050000000  0.5596480000000  0.5422320000000 1.0
C      1  0.5068190000000  0.5885600000000  0.5530310000000 1.0
C      1  0.5131640000000  0.4001310000000  0.4919040000000 1.0
C      1  0.5831290000000  0.4498300000000  0.4943700000000 1.0
C      1  0.5905440000000  0.5344440000000  0.5020380000000 1.0
C      1  0.5282980000000  0.5998300000000  0.4986220000000 1.0
C      1  0.4421920000000  0.5790630000000  0.4968480000000 1.0
C      1  0.3982090000000  0.5086630000000  0.4956510000000 1.0
C      1  0.4225530000000  0.4180380000000  0.4945380000000 1.0
C      1  0.5450780000000  0.4076550000000  0.4958050000000 1.0
C      1  0.6015760000000  0.4742160000000  0.4938850000000 1.0
C      1  0.5750980000000  0.5640960000000  0.5088030000000 1.0
C      1  0.4947500000000  0.5972850000000  0.5039290000000 1.0
C      1  0.4157150000000  0.5607300000000  0.5079430000000 1.0
C      1  0.3967920000000  0.4753980000000  0.5018760000000 1.0
C      1  0.4555430000000  0.4104160000000  0.4903590000000 1.0
C      1  0.4226080000000  0.5424070000000  0.4652520000000 1.0
C      1  0.4249790000000  0.4628900000000  0.4495450000000 1.0
C      1  0.4710040000000  0.4249360000000  0.4633620000000 1.0
C      1  0.5490490000000  0.4217020000000  0.4649280000000 1.0
C      1  0.5795610000000  0.4964700000000  0.4649690000000 1.0
C      1  0.5530510000000  0.5601410000000  0.4589960000000 1.0
C      1  0.4804210000000  0.5748900000000  0.4593510000000 1.0
C      1  0.6034270000000  0.5068710000000  0.4868430000000 1.0
C      1  0.5550570000000  0.5804650000000  0.4863650000000 1.0
C      1  0.4730910000000  0.5889580000000  0.4866480000000 1.0
C      1  0.4050650000000  0.5419990000000  0.4894140000000 1.0
C      1  0.4053030000000  0.4468220000000  0.4889420000000 1.0
C      1  0.4825090000000  0.3895740000000  0.4883170000000 1.0
C      1  0.5750450000000  0.4200360000000  0.4855560000000 1.0
C      1  0.5525920000000  0.4877530000000  0.5550320000000 1.0
C      1  0.5527080000000  0.5371300000000  0.5574140000000 1.0
C      1  0.5073620000000  0.5585760000000  0.5531770000000 1.0
C      1  0.4652360000000  0.5400450000000  0.5627940000000 1.0
C      1  0.4430690000000  0.4953780000000  0.5568700000000 1.0
C      1  0.4808200000000  0.4507820000000  0.5478320000000 1.0
C      1  0.5246490000000  0.4536280000000  0.5503020000000 1.0
C      1  0.5674500000000  0.4502130000000  0.5206910000000 1.0
C      1  0.5775240000000  0.5109300000000  0.5227040000000 1.0
C      1  0.5296770000000  0.5617740000000  0.5104630000000 1.0
C      1  0.4629220000000  0.5737770000000  0.5221660000000 1.0
C      1  0.4172350000000  0.5192670000000  0.5198010000000 1.0
C      1  0.4376880000000  0.4431960000000  0.5116890000000 1.0
C      1  0.5007050000000  0.4195290000000  0.5134960000000 1.0
C      1  0.5499750000000  0.5793010000000  0.5259590000000 1.0
C      1  0.4835660000000  0.5979830000000  0.5340510000000 1.0
C      1  0.4190540000000  0.5483100000000  0.5365830000000 1.0
C      1  0.4163630000000  0.4633220000000  0.5260450000000 1.0
C      1  0.4706450000000  0.4090080000000  0.5208230000000 1.0
C      1  0.5568200000000  0.4121150000000  0.5274770000000 1.0
C      1  0.6009290000000  0.4864380000000  0.5209600000000 1.0
C      1  0.5045980000000  0.4576800000000  0.5244350000000 1.0
C      1  0.5418290000000  0.4716300000000  0.5270960000000 1.0
C      1  0.5456930000000  0.5138680000000  0.5343270000000 1.0
C      1  0.5072270000000  0.5486600000000  0.5246970000000 1.0
C      1  0.4660270000000  0.5235330000000  0.5361280000000 1.0
C      1  0.4571450000000  0.4922870000000  0.5260140000000 1.0
C      1  0.4724920000000  0.4665560000000  0.5208410000000 1.0
C      1  0.4851450000000  0.4106880000000  0.5515490000000 1.0
C      1  0.5618330000000  0.4374260000000  0.5496190000000 1.0
C      1  0.5950900000000  0.5181580000000  0.5509040000000 1.0
C      1  0.5367440000000  0.5994770000000  0.5421370000000 1.0
C      1  0.4677920000000  0.5911920000000  0.5625660000000 1.0
C      1  0.4073730000000  0.5337920000000  0.5621920000000 1.0
C      1  0.4335050000000  0.4490700000000  0.5509120000000 1.0
C      1  0.5312550000000  0.5650840000000  0.4345430000000 1.0
C      1  0.4615910000000  0.5505720000000  0.4200130000000 1.0
C      1  0.4323020000000  0.5051650000000  0.4209100000000 1.0
C      1  0.4495740000000  0.4487560000000  0.4214310000000 1.0
C      1  0.5234180000000  0.4311860000000  0.4230430000000 1.0
C      1  0.5602910000000  0.4691420000000  0.4283530000000 1.0
C      1  0.5687510000000  0.5216040000000  0.4304080000000 1.0
C      1  0.5577290000000  0.4908480000000  0.5036890000000 1.0
C      1  0.5459280000000  0.5414760000000  0.4936150000000 1.0
C      1  0.4820060000000  0.5538330000000  0.5089560000000 1.0
C      1  0.4470200000000  0.5276580000000  0.5106560000000 1.0
C      1  0.4464480000000  0.4999590000000  0.4947170000000 1.0
C      1  0.4790430000000  0.4413670000000  0.4989300000000 1.0
C      1  0.5266950000000  0.4494910000000  0.4999200000000 1.0
C      1  0.5041890000000  0.4399160000000  0.4793950000000 1.0
C      1  0.5360510000000  0.4821420000000  0.4789750000000 1.0
C      1  0.5096710000000  0.4965650000000  0.4895210000000 1.0
C      1  0.5140500000000  0.5354920000000  0.4837220000000 1.0
C      1  0.4662640000000  0.5371470000000  0.4842720000000 1.0
C      1  0.4789260000000  0.4903380000000  0.4916140000000 1.0
C      1  0.5193660000000  0.5190990000000  0.5130730000000 1.0
C      1  0.4497300000000  0.5622040000000  0.4682960000000 1.0
C      1  0.4229770000000  0.5104170000000  0.4733610000000 1.0
C      1  0.4379080000000  0.4505970000000  0.4784940000000 1.0
C      1  0.5025260000000  0.4121910000000  0.4626100000000 1.0
C      1  0.5530890000000  0.4526920000000  0.4787010000000 1.0
C      1  0.5659500000000  0.5199740000000  0.4855510000000 1.0
C      1  0.5222440000000  0.5742400000000  0.4799760000000 1.0
C      1  0.5698420000000  0.4684490000000  0.4536550000000 1.0
C      1  0.5733040000000  0.5348060000000  0.4558320000000 1.0
C      1  0.5114530000000  0.5751430000000  0.4529950000000 1.0
C      1  0.4465590000000  0.5648430000000  0.4345440000000 1.0
C      1  0.4188220000000  0.4939670000000  0.4469980000000 1.0
C      1  0.4429040000000  0.4336880000000  0.4494070000000 1.0
C      1  0.5274720000000  0.4153500000000  0.4453960000000 1.0
C      1  0.5025850000000  0.5013750000000  0.3951180000000 1.0
C      1  0.4689860000000  0.4631720000000  0.4748520000000 1.0
C      1  0.4920400000000  0.5116740000000  0.5278570000000 1.0
C      1  0.5036930000000  0.5078670000000  0.4256690000000 1.0
C      1  0.4767400000000  0.4643640000000  0.5757840000000 1.0
C      1  0.4974330000000  0.5033690000000  0.4589970000000 1.0
END
