TITL C-2622967-6265-35 -4.4584778840696e-08 125000 -89.7188343263388 0 0 16 (D2d) n - 1
REM
REM in /nfs/bkarasulu/CARBON/AIRSS/Generating-Clusters/AIREBO/with-SteepDescent/Higher-Symm/SD-CG/HFTN-CG
REM
REM
REM
REM
REM
REM ./C.cell (b20cbc046b6831c77cfcea5457e17084)
REM
REM compiler GCC version 9.2.1 20190827 (Red Hat 9.2.1-1)
REM options -cpp -mtune=generic -march=x86-64 -g -O0 -fpre-include=/usr/include/finclude/math-vector-fortran.h
REM seed -2000225650 -284915557 1547746233 -1620968603 -1938824431 -1680079141 -769836274 -198865259 -70920067 873821703 -64236270 1235664879 -1947901475 396314735 -810113988 -1309330889 850270084 2112323264 466725128 339105592 1810756894 -1155712573 263112717 -1569738022 -1241683654 787744829 -73965757 324144894 640102966 -953645650 -1369543840 574399086 -2130078663
REM
CELL 1.54180   50.00000   50.00000   50.00000   90.00000   90.00000   90.00000
LATT -1
SFAC C  
C      1  0.4917640000000  0.5215970000000  0.5285410000000 1.0
C      1  0.5083650000000  0.4715170000000  0.5216250000000 1.0
C      1  0.4918860000000  0.4783170000000  0.4714890000000 1.0
C      1  0.5079850000000  0.5285690000000  0.4783450000000 1.0
C      1  0.5082380000000  0.5007720000000  0.5357830000000 1.0
C      1  0.4920150000000  0.4641590000000  0.5007440000000 1.0
C      1  0.5081120000000  0.4993140000000  0.4641870000000 1.0
C      1  0.4916350000000  0.5357550000000  0.4992860000000 1.0
C      1  0.5356070000000  0.5125170000000  0.4744560000000 1.0
C      1  0.4641700000000  0.5252890000000  0.5123960000000 1.0
C      1  0.5358310000000  0.4878590000000  0.5254110000000 1.0
C      1  0.4643930000000  0.4743350000000  0.4877370000000 1.0
C      1  0.5592100000000  0.4942770000000  0.5123600000000 1.0
C      1  0.4408990000000  0.4872190000000  0.4940750000000 1.0
C      1  0.5591010000000  0.5063460000000  0.4874200000000 1.0
C      1  0.4407900000000  0.5121580000000  0.5061450000000 1.0
END
