TITL C-2622957-9142-790 -8.82240131525189e-09 125000 -138.851079049322 0 0 23 (C1) n - 1
REM
REM in /nfs/bkarasulu/CARBON/AIRSS/Generating-Clusters/AIREBO/with-SteepDescent/Higher-Symm/SD-CG/HFTN-CG
REM
REM
REM
REM
REM
REM ./C.cell (b20cbc046b6831c77cfcea5457e17084)
REM
REM compiler GCC version 9.2.1 20190827 (Red Hat 9.2.1-1)
REM options -cpp -mtune=generic -march=x86-64 -g -O0 -fpre-include=/usr/include/finclude/math-vector-fortran.h
REM seed -1123887481 853393635 1735376604 -525865497 502467621 662692925 -177306780 -1074746453 -1432856709 182785409 894161440 841623438 108370880 927984357 1520915464 -902013469 -576494306 80743159 -330003200 879535630 -2040553489 -405193626 -1751987157 -1806009211 -112077750 -807382857 -1623865458 533359402 -1645180021 489977060 -1323190885 -321722158 -1514847954
REM
CELL 1.54180   50.00000   50.00000   50.00000   90.00000   90.00000   90.00000
LATT -1
SFAC C  
C      1  0.4857650000000  0.4557970000000  0.4921310000000 1.0
C      1  0.4753700000000  0.4549000000000  0.5183880000000 1.0
C      1  0.4839500000000  0.4747870000000  0.5366360000000 1.0
C      1  0.4669080000000  0.4948620000000  0.5462380000000 1.0
C      1  0.4610760000000  0.5206390000000  0.5395890000000 1.0
C      1  0.4696550000000  0.5389210000000  0.5201480000000 1.0
C      1  0.4560190000000  0.5425580000000  0.4954530000000 1.0
C      1  0.4683240000000  0.5339030000000  0.4713940000000 1.0
C      1  0.4606720000000  0.5111560000000  0.4562590000000 1.0
C      1  0.4772860000000  0.4881560000000  0.4562830000000 1.0
C      1  0.4713580000000  0.4634610000000  0.4689260000000 1.0
C      1  0.5145310000000  0.5318520000000  0.5369480000000 1.0
C      1  0.4975480000000  0.5448150000000  0.5188050000000 1.0
C      1  0.5062170000000  0.5532170000000  0.4930520000000 1.0
C      1  0.4963380000000  0.5398460000000  0.4700580000000 1.0
C      1  0.5111450000000  0.5218290000000  0.4538980000000 1.0
C      1  0.5053120000000  0.4940870000000  0.4550230000000 1.0
C      1  0.5217750000000  0.4741710000000  0.4667280000000 1.0
C      1  0.5136970000000  0.4617270000000  0.4909420000000 1.0
C      1  0.5268080000000  0.4654240000000  0.5160740000000 1.0
C      1  0.5117720000000  0.4805810000000  0.5351870000000 1.0
C      1  0.5201870000000  0.5060200000000  0.5435180000000 1.0
C      1  0.5517720000000  0.4565870000000  0.5209410000000 1.0
END
