TITL C-2622961-1971-430 -0.00731372512593546 125000 -1055.64552762063 0 0 186 (C1) n - 1
REM
REM in /nfs/bkarasulu/CARBON/AIRSS/Generating-Clusters/AIREBO/with-SteepDescent/Higher-Symm/SD-CG/HFTN-CG
REM
REM
REM
REM
REM
REM ./C.cell (b20cbc046b6831c77cfcea5457e17084)
REM
REM compiler GCC version 9.2.1 20190827 (Red Hat 9.2.1-1)
REM options -cpp -mtune=generic -march=x86-64 -g -O0 -fpre-include=/usr/include/finclude/math-vector-fortran.h
REM seed 1709917230 -648887438 -1283086836 126269779 -929573104 1034315630 1901659048 1887962697 270568009 -1102016381 2142389475 1625033048 -2094131227 -780272404 1436127467 2146601168 -1277573672 -54735291 1767687650 627214805 -4168659 2032831889 -1833913236 1451910112 -239704886 1680064670 254272545 -105151716 -1177397150 -2051344387 251705968 1373293677 238531677
REM
CELL 1.54180   50.00000   50.00000   50.00000   90.00000   90.00000   90.00000
LATT -1
SFAC C  
C      1  0.4712680000000  0.5240890000000  0.5431530000000 1.0
C      1  0.4728050000000  0.4981310000000  0.5283160000000 1.0
C      1  0.4691760000000  0.4697390000000  0.5407660000000 1.0
C      1  0.4763320000000  0.4545230000000  0.5122870000000 1.0
C      1  0.4591340000000  0.4506240000000  0.4861030000000 1.0
C      1  0.4653470000000  0.4645310000000  0.4566220000000 1.0
C      1  0.4713840000000  0.4968100000000  0.4627450000000 1.0
C      1  0.4672600000000  0.5242820000000  0.4489620000000 1.0
C      1  0.4827070000000  0.5457130000000  0.4661070000000 1.0
C      1  0.4735390000000  0.5573340000000  0.4948550000000 1.0
C      1  0.4821410000000  0.5498310000000  0.5236810000000 1.0
C      1  0.3996270000000  0.4589580000000  0.5161030000000 1.0
C      1  0.4107690000000  0.4540160000000  0.4895130000000 1.0
C      1  0.4095480000000  0.4699030000000  0.4651610000000 1.0
C      1  0.3965050000000  0.4977860000000  0.4558150000000 1.0
C      1  0.3894870000000  0.5228980000000  0.4689270000000 1.0
C      1  0.4009860000000  0.5450360000000  0.4849360000000 1.0
C      1  0.4020480000000  0.5496950000000  0.5134760000000 1.0
C      1  0.3843110000000  0.5360270000000  0.5304730000000 1.0
C      1  0.3851440000000  0.5114910000000  0.5429120000000 1.0
C      1  0.4026050000000  0.4928490000000  0.5551170000000 1.0
C      1  0.4099280000000  0.4695120000000  0.5411600000000 1.0
C      1  0.5808370000000  0.5987340000000  0.5156490000000 1.0
C      1  0.5715030000000  0.5612880000000  0.5493240000000 1.0
C      1  0.5737100000000  0.5178920000000  0.5790810000000 1.0
C      1  0.5912590000000  0.4884690000000  0.5725570000000 1.0
C      1  0.5893660000000  0.4316860000000  0.5565260000000 1.0
C      1  0.5820930000000  0.4147700000000  0.5101390000000 1.0
C      1  0.5815610000000  0.4201760000000  0.4581160000000 1.0
C      1  0.5798870000000  0.4446350000000  0.4103110000000 1.0
C      1  0.5900220000000  0.4945600000000  0.4241550000000 1.0
C      1  0.5914280000000  0.5396420000000  0.4374410000000 1.0
C      1  0.5931880000000  0.5726080000000  0.4729460000000 1.0
C      1  0.4544200000000  0.3909900000000  0.4606720000000 1.0
C      1  0.4479550000000  0.4360810000000  0.4346070000000 1.0
C      1  0.4385480000000  0.4882590000000  0.4134990000000 1.0
C      1  0.4414230000000  0.5438050000000  0.4215990000000 1.0
C      1  0.4324460000000  0.5732010000000  0.4469380000000 1.0
C      1  0.4468920000000  0.5926260000000  0.5120250000000 1.0
C      1  0.4446000000000  0.5676010000000  0.5570140000000 1.0
C      1  0.4455140000000  0.5246530000000  0.5867640000000 1.0
C      1  0.4331180000000  0.4748510000000  0.5734950000000 1.0
C      1  0.4390090000000  0.4301900000000  0.5404520000000 1.0
C      1  0.4513870000000  0.3946380000000  0.5135450000000 1.0
C      1  0.5468730000000  0.4229650000000  0.4777490000000 1.0
C      1  0.5445140000000  0.4345440000000  0.4498940000000 1.0
C      1  0.5466020000000  0.4770720000000  0.4171540000000 1.0
C      1  0.5512030000000  0.5242770000000  0.4116100000000 1.0
C      1  0.5541520000000  0.5504920000000  0.4468640000000 1.0
C      1  0.5475760000000  0.5808100000000  0.4869120000000 1.0
C      1  0.5298930000000  0.5836090000000  0.5259810000000 1.0
C      1  0.5368530000000  0.5365260000000  0.5716300000000 1.0
C      1  0.5303460000000  0.4976150000000  0.5696450000000 1.0
C      1  0.5527990000000  0.4585100000000  0.5773990000000 1.0
C      1  0.5307350000000  0.4299180000000  0.5356250000000 1.0
C      1  0.4896390000000  0.5807790000000  0.5356140000000 1.0
C      1  0.5035960000000  0.5591150000000  0.5660670000000 1.0
C      1  0.4891100000000  0.5223180000000  0.5720580000000 1.0
C      1  0.4932160000000  0.4656940000000  0.5645230000000 1.0
C      1  0.4974350000000  0.4393880000000  0.5342340000000 1.0
C      1  0.5012320000000  0.4118890000000  0.4959910000000 1.0
C      1  0.4892730000000  0.4154260000000  0.4459230000000 1.0
C      1  0.4922540000000  0.4596810000000  0.4361650000000 1.0
C      1  0.4806970000000  0.5369710000000  0.4201670000000 1.0
C      1  0.5065920000000  0.5602330000000  0.4466240000000 1.0
C      1  0.4960940000000  0.5796270000000  0.4825180000000 1.0
C      1  0.5121380000000  0.5191610000000  0.6166980000000 1.0
C      1  0.5191710000000  0.4485800000000  0.6119300000000 1.0
C      1  0.5168080000000  0.4053360000000  0.5527310000000 1.0
C      1  0.5251920000000  0.3836120000000  0.5107030000000 1.0
C      1  0.5261820000000  0.3890990000000  0.4394320000000 1.0
C      1  0.5190570000000  0.4447790000000  0.3942900000000 1.0
C      1  0.5245410000000  0.5299390000000  0.3720450000000 1.0
C      1  0.5310720000000  0.5803410000000  0.4137930000000 1.0
C      1  0.5222210000000  0.6182620000000  0.4663370000000 1.0
C      1  0.5043510000000  0.6248590000000  0.5456720000000 1.0
C      1  0.5234880000000  0.5871030000000  0.5886210000000 1.0
C      1  0.5070660000000  0.3953550000000  0.4668450000000 1.0
C      1  0.5036950000000  0.4312370000000  0.4214320000000 1.0
C      1  0.4981530000000  0.4806160000000  0.4126400000000 1.0
C      1  0.5093480000000  0.5541830000000  0.4138460000000 1.0
C      1  0.5236250000000  0.5839140000000  0.4629700000000 1.0
C      1  0.5038410000000  0.5964520000000  0.5110300000000 1.0
C      1  0.5110200000000  0.5886210000000  0.5607730000000 1.0
C      1  0.5098850000000  0.5392990000000  0.5929710000000 1.0
C      1  0.5049330000000  0.4739330000000  0.5954470000000 1.0
C      1  0.5048880000000  0.4338450000000  0.5669410000000 1.0
C      1  0.4985090000000  0.3972830000000  0.5267430000000 1.0
C      1  0.5961050000000  0.4428550000000  0.4689530000000 1.0
C      1  0.6077950000000  0.4667310000000  0.4587580000000 1.0
C      1  0.6037380000000  0.4939940000000  0.4506510000000 1.0
C      1  0.6062640000000  0.5261630000000  0.4603050000000 1.0
C      1  0.6069320000000  0.5482680000000  0.4817100000000 1.0
C      1  0.6063980000000  0.5444270000000  0.5106930000000 1.0
C      1  0.5938400000000  0.5402510000000  0.5346630000000 1.0
C      1  0.5906490000000  0.5137960000000  0.5498780000000 1.0
C      1  0.5984690000000  0.4866380000000  0.5321040000000 1.0
C      1  0.5981430000000  0.4686000000000  0.5154140000000 1.0
C      1  0.5880100000000  0.4442770000000  0.4985840000000 1.0
C      1  0.4569950000000  0.6101510000000  0.4934750000000 1.0
C      1  0.4803100000000  0.6174890000000  0.5480710000000 1.0
C      1  0.4794330000000  0.5571830000000  0.5893300000000 1.0
C      1  0.4744600000000  0.4812100000000  0.5960150000000 1.0
C      1  0.4717770000000  0.4331350000000  0.5746760000000 1.0
C      1  0.4689920000000  0.3954260000000  0.5368440000000 1.0
C      1  0.4810320000000  0.3737740000000  0.4670600000000 1.0
C      1  0.4741670000000  0.4327630000000  0.4046290000000 1.0
C      1  0.4709050000000  0.4883580000000  0.4014890000000 1.0
C      1  0.4798630000000  0.5667940000000  0.4025330000000 1.0
C      1  0.4584240000000  0.5923950000000  0.4492190000000 1.0
C      1  0.4264590000000  0.5078530000000  0.5685780000000 1.0
C      1  0.4395110000000  0.4593070000000  0.5462720000000 1.0
C      1  0.4358330000000  0.4191270000000  0.5142580000000 1.0
C      1  0.4345010000000  0.4379100000000  0.4922680000000 1.0
C      1  0.4350900000000  0.4652390000000  0.4459450000000 1.0
C      1  0.4251600000000  0.4979570000000  0.4415070000000 1.0
C      1  0.4356350000000  0.5289310000000  0.4497400000000 1.0
C      1  0.4272870000000  0.5538090000000  0.4714320000000 1.0
C      1  0.4430770000000  0.5633310000000  0.4984150000000 1.0
C      1  0.4301690000000  0.5548780000000  0.5289570000000 1.0
C      1  0.4411280000000  0.5293340000000  0.5474050000000 1.0
C      1  0.4526830000000  0.5525450000000  0.5807200000000 1.0
C      1  0.4687360000000  0.5079750000000  0.5898600000000 1.0
C      1  0.4584520000000  0.4607850000000  0.5835910000000 1.0
C      1  0.4589600000000  0.4162900000000  0.5550320000000 1.0
C      1  0.4644270000000  0.3850600000000  0.4916710000000 1.0
C      1  0.4611760000000  0.4141290000000  0.4453370000000 1.0
C      1  0.4564990000000  0.4597120000000  0.4120190000000 1.0
C      1  0.4564470000000  0.5164840000000  0.4112830000000 1.0
C      1  0.4582010000000  0.5705190000000  0.4246140000000 1.0
C      1  0.4717760000000  0.5990220000000  0.4718770000000 1.0
C      1  0.4598120000000  0.5914140000000  0.5404870000000 1.0
C      1  0.5181420000000  0.5083530000000  0.4513600000000 1.0
C      1  0.5136090000000  0.5349050000000  0.4652680000000 1.0
C      1  0.5130680000000  0.5523740000000  0.4937330000000 1.0
C      1  0.5250250000000  0.5540280000000  0.5219510000000 1.0
C      1  0.5068330000000  0.5418950000000  0.5421000000000 1.0
C      1  0.5089540000000  0.5111350000000  0.5488980000000 1.0
C      1  0.5073840000000  0.4808480000000  0.5420120000000 1.0
C      1  0.5151690000000  0.4619190000000  0.5183140000000 1.0
C      1  0.5006690000000  0.4422210000000  0.4946730000000 1.0
C      1  0.5143360000000  0.4655230000000  0.4785520000000 1.0
C      1  0.5003130000000  0.4835120000000  0.4566980000000 1.0
C      1  0.5484370000000  0.5168350000000  0.5482010000000 1.0
C      1  0.5602810000000  0.4862590000000  0.5587120000000 1.0
C      1  0.5614330000000  0.4715920000000  0.5318090000000 1.0
C      1  0.5449590000000  0.4529280000000  0.5193950000000 1.0
C      1  0.5571200000000  0.4466940000000  0.4937720000000 1.0
C      1  0.5424130000000  0.4609880000000  0.4664460000000 1.0
C      1  0.5416780000000  0.4844010000000  0.4459880000000 1.0
C      1  0.5501080000000  0.5179750000000  0.4448970000000 1.0
C      1  0.5543140000000  0.5325540000000  0.4757090000000 1.0
C      1  0.5543440000000  0.5511580000000  0.4954090000000 1.0
C      1  0.5545380000000  0.5428450000000  0.5283830000000 1.0
C      1  0.5510360000000  0.5002810000000  0.5961490000000 1.0
C      1  0.5828990000000  0.4555790000000  0.5704010000000 1.0
C      1  0.5768500000000  0.4132190000000  0.5380320000000 1.0
C      1  0.5694480000000  0.3994470000000  0.4824740000000 1.0
C      1  0.5665210000000  0.4233620000000  0.4290000000000 1.0
C      1  0.5742980000000  0.4725030000000  0.4135080000000 1.0
C      1  0.5804350000000  0.5212470000000  0.4190560000000 1.0
C      1  0.5796340000000  0.5699700000000  0.4446020000000 1.0
C      1  0.5775680000000  0.5871330000000  0.4910900000000 1.0
C      1  0.5610140000000  0.5896190000000  0.5382280000000 1.0
C      1  0.5655660000000  0.5508870000000  0.5810100000000 1.0
C      1  0.5300140000000  0.4446370000000  0.5848660000000 1.0
C      1  0.5502520000000  0.4063690000000  0.5455100000000 1.0
C      1  0.5356780000000  0.3931510000000  0.4851010000000 1.0
C      1  0.5330490000000  0.4150690000000  0.4274180000000 1.0
C      1  0.5235760000000  0.4722450000000  0.4019160000000 1.0
C      1  0.5288020000000  0.5336940000000  0.3989650000000 1.0
C      1  0.5469870000000  0.5803180000000  0.4385200000000 1.0
C      1  0.5289950000000  0.6077200000000  0.4943710000000 1.0
C      1  0.5339980000000  0.6083150000000  0.5478390000000 1.0
C      1  0.5354340000000  0.5617280000000  0.5941140000000 1.0
C      1  0.5234310000000  0.4957900000000  0.6087470000000 1.0
C      1  0.5399340000000  0.5015230000000  0.4981760000000 1.0
C      1  0.5668770000000  0.4995120000000  0.4973590000000 1.0
C      1  0.4545420000000  0.5031330000000  0.5022780000000 1.0
C      1  0.4015550000000  0.5105660000000  0.5049780000000 1.0
C      1  0.4279170000000  0.5022840000000  0.5034520000000 1.0
C      1  0.5913890000000  0.4973980000000  0.4885200000000 1.0
C      1  0.5137450000000  0.4929170000000  0.4935610000000 1.0
C      1  0.3784350000000  0.4955170000000  0.5055360000000 1.0
C      1  0.3560480000000  0.4819530000000  0.5036630000000 1.0
C      1  0.4861500000000  0.4983890000000  0.4975980000000 1.0
END
