TITL C-2622957-9142-504 0.00030752464133305 125000 -673.810972687329 0 0 126 (C1) n - 1
REM
REM in /nfs/bkarasulu/CARBON/AIRSS/Generating-Clusters/AIREBO/with-SteepDescent/Higher-Symm/SD-CG/HFTN-CG
REM
REM
REM
REM
REM
REM ./C.cell (b20cbc046b6831c77cfcea5457e17084)
REM
REM compiler GCC version 9.2.1 20190827 (Red Hat 9.2.1-1)
REM options -cpp -mtune=generic -march=x86-64 -g -O0 -fpre-include=/usr/include/finclude/math-vector-fortran.h
REM seed 1631469774 1512477930 1844491708 -281091144 1355263852 558148315 1944215872 910501213 1580393423 219909684 -780503499 -624016760 -479643693 -1682645465 490953583 -691417178 1103120013 193005607 1356310078 -717743519 -114496558 -1493923981 -1385629366 995398117 -378056192 801144784 -1362378601 -2086013594 -785692622 872025179 578635054 -1952619237 784178972
REM
CELL 1.54180   50.00000   50.00000   50.00000   90.00000   90.00000   90.00000
LATT -1
SFAC C  
C      1  0.4371660000000  0.5440270000000  0.5557490000000 1.0
C      1  0.5585130000000  0.4594680000000  0.5464050000000 1.0
C      1  0.4422580000000  0.4651500000000  0.4508760000000 1.0
C      1  0.5538510000000  0.5322640000000  0.4547740000000 1.0
C      1  0.5359120000000  0.4379740000000  0.5445370000000 1.0
C      1  0.4635700000000  0.5584060000000  0.5507100000000 1.0
C      1  0.4611270000000  0.4409100000000  0.4464600000000 1.0
C      1  0.5365090000000  0.5568900000000  0.4538640000000 1.0
C      1  0.4692270000000  0.5064530000000  0.5174890000000 1.0
C      1  0.5283760000000  0.4892870000000  0.5142850000000 1.0
C      1  0.4675880000000  0.4871190000000  0.4931200000000 1.0
C      1  0.5253440000000  0.5099220000000  0.4902250000000 1.0
C      1  0.5123740000000  0.4643740000000  0.5071780000000 1.0
C      1  0.4842470000000  0.5280390000000  0.5039990000000 1.0
C      1  0.4883390000000  0.4675520000000  0.4832690000000 1.0
C      1  0.5070140000000  0.5311950000000  0.4829680000000 1.0
C      1  0.5248620000000  0.5682900000000  0.4837280000000 1.0
C      1  0.4758190000000  0.4272870000000  0.4718010000000 1.0
C      1  0.5382480000000  0.4225770000000  0.5175390000000 1.0
C      1  0.4691350000000  0.5717750000000  0.5199450000000 1.0
C      1  0.5640770000000  0.5254870000000  0.4848910000000 1.0
C      1  0.4311540000000  0.4711810000000  0.4824550000000 1.0
C      1  0.4239170000000  0.5280080000000  0.5297080000000 1.0
C      1  0.5731360000000  0.4671780000000  0.5166180000000 1.0
C      1  0.5677520000000  0.5144220000000  0.4293830000000 1.0
C      1  0.4347770000000  0.4801800000000  0.4212960000000 1.0
C      1  0.5588580000000  0.4757990000000  0.5694620000000 1.0
C      1  0.4386100000000  0.5276550000000  0.5792900000000 1.0
C      1  0.5208300000000  0.5577190000000  0.4307470000000 1.0
C      1  0.4776620000000  0.4436880000000  0.4234330000000 1.0
C      1  0.4847320000000  0.5664970000000  0.5760630000000 1.0
C      1  0.5219070000000  0.4277240000000  0.5737480000000 1.0
C      1  0.4436060000000  0.4219310000000  0.4768860000000 1.0
C      1  0.5579050000000  0.5763290000000  0.4840130000000 1.0
C      1  0.4360410000000  0.5788440000000  0.5226130000000 1.0
C      1  0.5687680000000  0.4157730000000  0.5161980000000 1.0
C      1  0.4243130000000  0.4380360000000  0.4791880000000 1.0
C      1  0.5753050000000  0.5575810000000  0.4846020000000 1.0
C      1  0.5850080000000  0.4353220000000  0.5172590000000 1.0
C      1  0.4194830000000  0.5598900000000  0.5236560000000 1.0
C      1  0.5258730000000  0.5916240000000  0.5178190000000 1.0
C      1  0.4733940000000  0.4141010000000  0.5194160000000 1.0
C      1  0.5302390000000  0.4084270000000  0.4685930000000 1.0
C      1  0.4623710000000  0.5813240000000  0.4656220000000 1.0
C      1  0.5825740000000  0.5314420000000  0.5198430000000 1.0
C      1  0.4138900000000  0.4681500000000  0.5339000000000 1.0
C      1  0.4110940000000  0.5250880000000  0.4807160000000 1.0
C      1  0.5923710000000  0.4639260000000  0.4801530000000 1.0
C      1  0.5140860000000  0.5277690000000  0.4195410000000 1.0
C      1  0.4899660000000  0.4745180000000  0.4195920000000 1.0
C      1  0.5063010000000  0.4773310000000  0.5857780000000 1.0
C      1  0.4908640000000  0.5338420000000  0.5845620000000 1.0
C      1  0.5376650000000  0.5036070000000  0.4154390000000 1.0
C      1  0.4655780000000  0.4955030000000  0.4153900000000 1.0
C      1  0.4671680000000  0.5102760000000  0.5797350000000 1.0
C      1  0.5325540000000  0.4947220000000  0.5781570000000 1.0
C      1  0.4865980000000  0.4213330000000  0.5466880000000 1.0
C      1  0.5087950000000  0.5962310000000  0.5446350000000 1.0
C      1  0.4937060000000  0.5860600000000  0.4608020000000 1.0
C      1  0.5136750000000  0.4252480000000  0.4482450000000 1.0
C      1  0.4175430000000  0.4957100000000  0.5515770000000 1.0
C      1  0.5818330000000  0.5063800000000  0.5425780000000 1.0
C      1  0.5932590000000  0.4914860000000  0.4663390000000 1.0
C      1  0.4187360000000  0.5116270000000  0.4531890000000 1.0
C      1  0.4611860000000  0.4923310000000  0.4475470000000 1.0
C      1  0.5346770000000  0.5084870000000  0.4477000000000 1.0
C      1  0.4698250000000  0.4994510000000  0.5505750000000 1.0
C      1  0.5317100000000  0.4994870000000  0.5465600000000 1.0
C      1  0.4979680000000  0.4688630000000  0.4506750000000 1.0
C      1  0.5005930000000  0.5292320000000  0.4500330000000 1.0
C      1  0.5126680000000  0.4575940000000  0.5597290000000 1.0
C      1  0.4878990000000  0.5357710000000  0.5517650000000 1.0
C      1  0.5555630000000  0.4515120000000  0.4530810000000 1.0
C      1  0.4425110000000  0.5460210000000  0.4444120000000 1.0
C      1  0.5665740000000  0.5424640000000  0.5478530000000 1.0
C      1  0.4298340000000  0.4598560000000  0.5628020000000 1.0
C      1  0.4463020000000  0.5733750000000  0.4447110000000 1.0
C      1  0.5530950000000  0.4239450000000  0.4538300000000 1.0
C      1  0.5404910000000  0.5559390000000  0.5477590000000 1.0
C      1  0.4558100000000  0.4480810000000  0.5586180000000 1.0
C      1  0.4610080000000  0.5589920000000  0.4894970000000 1.0
C      1  0.5329260000000  0.4441590000000  0.4945260000000 1.0
C      1  0.4606010000000  0.4445030000000  0.5277540000000 1.0
C      1  0.5289360000000  0.5577840000000  0.5166110000000 1.0
C      1  0.5587900000000  0.4616660000000  0.4849830000000 1.0
C      1  0.4416730000000  0.5364510000000  0.4743510000000 1.0
C      1  0.4419310000000  0.4655670000000  0.5148420000000 1.0
C      1  0.5490610000000  0.5304630000000  0.5141610000000 1.0
C      1  0.4852830000000  0.5457860000000  0.4174880000000 1.0
C      1  0.5229080000000  0.4657590000000  0.4196010000000 1.0
C      1  0.4792280000000  0.4571790000000  0.5815470000000 1.0
C      1  0.5197100000000  0.5475630000000  0.5727800000000 1.0
C      1  0.5526990000000  0.4774680000000  0.4311990000000 1.0
C      1  0.4594770000000  0.5279430000000  0.4236830000000 1.0
C      1  0.4533570000000  0.4791840000000  0.5834140000000 1.0
C      1  0.5458220000000  0.5257600000000  0.5732130000000 1.0
C      1  0.5696770000000  0.5034720000000  0.5670620000000 1.0
C      1  0.4290570000000  0.4997710000000  0.5759990000000 1.0
C      1  0.5831610000000  0.4902130000000  0.4396380000000 1.0
C      1  0.4306100000000  0.5103200000000  0.4275440000000 1.0
C      1  0.5105110000000  0.5797560000000  0.5666120000000 1.0
C      1  0.4909410000000  0.4273540000000  0.5737850000000 1.0
C      1  0.4966260000000  0.5744660000000  0.4318070000000 1.0
C      1  0.5075010000000  0.4392840000000  0.4255060000000 1.0
C      1  0.4389600000000  0.4978300000000  0.5252480000000 1.0
C      1  0.5603470000000  0.4985840000000  0.5192190000000 1.0
C      1  0.4433390000000  0.5022930000000  0.4747260000000 1.0
C      1  0.5522950000000  0.4938890000000  0.4804860000000 1.0
C      1  0.4944410000000  0.4471440000000  0.5257710000000 1.0
C      1  0.4961490000000  0.5508290000000  0.5224120000000 1.0
C      1  0.5070310000000  0.4400230000000  0.4762710000000 1.0
C      1  0.4921020000000  0.5592280000000  0.4803400000000 1.0
C      1  0.4891410000000  0.5971180000000  0.5174980000000 1.0
C      1  0.5186620000000  0.4068290000000  0.4950860000000 1.0
C      1  0.4896530000000  0.4105750000000  0.4966810000000 1.0
C      1  0.5083770000000  0.5975140000000  0.4892630000000 1.0
C      1  0.6007560000000  0.4828520000000  0.5044620000000 1.0
C      1  0.4078100000000  0.5125010000000  0.5050700000000 1.0
C      1  0.4081510000000  0.4836430000000  0.5041830000000 1.0
C      1  0.5944260000000  0.5129130000000  0.4934540000000 1.0
C      1  0.5273040000000  0.4811620000000  0.4627460000000 1.0
C      1  0.4856900000000  0.4706170000000  0.5446750000000 1.0
C      1  0.4744460000000  0.5156720000000  0.4659660000000 1.0
C      1  0.5146980000000  0.5251350000000  0.5347930000000 1.0
C      1  0.5003170000000  0.4985850000000  0.4613070000000 1.0
C      1  0.5002550000000  0.4978630000000  0.5411620000000 1.0
END
