TITL C-2622968-4806-447 0.00217710748134861 125000 -685.799728576801 0 0 116 (C1) n - 1
REM
REM in /nfs/bkarasulu/CARBON/AIRSS/Generating-Clusters/AIREBO/with-SteepDescent/Higher-Symm/SD-CG/HFTN-CG
REM
REM
REM
REM
REM
REM ./C.cell (b20cbc046b6831c77cfcea5457e17084)
REM
REM compiler GCC version 9.2.1 20190827 (Red Hat 9.2.1-1)
REM options -cpp -mtune=generic -march=x86-64 -g -O0 -fpre-include=/usr/include/finclude/math-vector-fortran.h
REM seed 1013393038 1894671560 869139106 -656819857 -13176390 1214192636 -1741562006 515356673 1003960819 1950397239 2098623212 -1871256871 1447133216 -1155482867 725653663 -2095404471 -847903202 1178484451 1266667364 67299642 -681664642 1190700218 81150307 1807100230 -1361567281 2118424634 1655921159 1122465572 26632663 -2103748637 123652051 -479454811 241216930
REM
CELL 1.54180   50.00000   50.00000   50.00000   90.00000   90.00000   90.00000
LATT -1
SFAC C  
C      1  0.4922890000000  0.5200790000000  0.5989560000000 1.0
C      1  0.6099060000000  0.4855750000000  0.5163610000000 1.0
C      1  0.5103860000000  0.6001960000000  0.4853470000000 1.0
C      1  0.4895250000000  0.4887360000000  0.4041010000000 1.0
C      1  0.5252550000000  0.4846460000000  0.5989840000000 1.0
C      1  0.5213890000000  0.5186050000000  0.4202720000000 1.0
C      1  0.6032930000000  0.5188090000000  0.4796610000000 1.0
C      1  0.3983240000000  0.5120080000000  0.5119330000000 1.0
C      1  0.4018380000000  0.4858870000000  0.4820950000000 1.0
C      1  0.5079750000000  0.4031870000000  0.5148310000000 1.0
C      1  0.4805290000000  0.4024770000000  0.4861860000000 1.0
C      1  0.4790900000000  0.5939820000000  0.5214800000000 1.0
C      1  0.5210910000000  0.5143930000000  0.5923230000000 1.0
C      1  0.3897210000000  0.4790390000000  0.5101980000000 1.0
C      1  0.4802730000000  0.5982700000000  0.4906260000000 1.0
C      1  0.5194090000000  0.4886420000000  0.4141830000000 1.0
C      1  0.4922670000000  0.4893810000000  0.6034970000000 1.0
C      1  0.4934590000000  0.5182150000000  0.4095570000000 1.0
C      1  0.4003530000000  0.5152880000000  0.4813060000000 1.0
C      1  0.6104990000000  0.5184410000000  0.5100730000000 1.0
C      1  0.6037390000000  0.4874660000000  0.4859950000000 1.0
C      1  0.4778030000000  0.4056560000000  0.5163380000000 1.0
C      1  0.5109480000000  0.3992190000000  0.4824630000000 1.0
C      1  0.5093630000000  0.5928370000000  0.5170490000000 1.0
C      1  0.4569670000000  0.4734430000000  0.4813050000000 1.0
C      1  0.4836410000000  0.4560300000000  0.4718130000000 1.0
C      1  0.4768510000000  0.4868820000000  0.4588410000000 1.0
C      1  0.4499460000000  0.5279690000000  0.5101980000000 1.0
C      1  0.5570180000000  0.5180600000000  0.4891010000000 1.0
C      1  0.5579230000000  0.4722530000000  0.5207980000000 1.0
C      1  0.4789810000000  0.5313320000000  0.5245980000000 1.0
C      1  0.5103740000000  0.5512330000000  0.4668490000000 1.0
C      1  0.5107420000000  0.4619800000000  0.5241110000000 1.0
C      1  0.4784060000000  0.5140090000000  0.5497260000000 1.0
C      1  0.5370210000000  0.5070080000000  0.4736150000000 1.0
C      1  0.5320590000000  0.4822990000000  0.5355820000000 1.0
C      1  0.5564240000000  0.4756070000000  0.4898180000000 1.0
C      1  0.5125130000000  0.4509530000000  0.4728000000000 1.0
C      1  0.5311320000000  0.4772720000000  0.4702040000000 1.0
C      1  0.5580250000000  0.5247960000000  0.5188010000000 1.0
C      1  0.4531060000000  0.5284100000000  0.4807780000000 1.0
C      1  0.4537470000000  0.4715280000000  0.5104890000000 1.0
C      1  0.5097030000000  0.5318200000000  0.5218420000000 1.0
C      1  0.4807800000000  0.5461340000000  0.4712430000000 1.0
C      1  0.4806400000000  0.4650530000000  0.5278010000000 1.0
C      1  0.5318360000000  0.5142480000000  0.5353810000000 1.0
C      1  0.4742450000000  0.5157610000000  0.4586060000000 1.0
C      1  0.4767070000000  0.4837910000000  0.5533880000000 1.0
C      1  0.4674670000000  0.4341040000000  0.5224770000000 1.0
C      1  0.5206190000000  0.4707740000000  0.4390610000000 1.0
C      1  0.4238080000000  0.5252960000000  0.4666530000000 1.0
C      1  0.4662560000000  0.5758350000000  0.4774050000000 1.0
C      1  0.5186980000000  0.5620480000000  0.5197500000000 1.0
C      1  0.5255660000000  0.4274830000000  0.4888530000000 1.0
C      1  0.5323470000000  0.5220340000000  0.5684870000000 1.0
C      1  0.4773700000000  0.5314850000000  0.4295260000000 1.0
C      1  0.4950250000000  0.4731510000000  0.5760570000000 1.0
C      1  0.4217710000000  0.4805830000000  0.5175310000000 1.0
C      1  0.5836650000000  0.4692870000000  0.4775780000000 1.0
C      1  0.5854380000000  0.5147940000000  0.5273910000000 1.0
C      1  0.5213400000000  0.4306660000000  0.5224280000000 1.0
C      1  0.4799630000000  0.4732140000000  0.4287780000000 1.0
C      1  0.5784860000000  0.5317840000000  0.4749980000000 1.0
C      1  0.5225920000000  0.5703330000000  0.4871810000000 1.0
C      1  0.4679110000000  0.5628510000000  0.5175710000000 1.0
C      1  0.4669280000000  0.4267790000000  0.4747610000000 1.0
C      1  0.4775470000000  0.5313150000000  0.5765060000000 1.0
C      1  0.5250610000000  0.5257130000000  0.4522270000000 1.0
C      1  0.5270610000000  0.4731920000000  0.5679590000000 1.0
C      1  0.5827120000000  0.4837630000000  0.5337130000000 1.0
C      1  0.4270170000000  0.4771520000000  0.4679530000000 1.0
C      1  0.4276340000000  0.5106410000000  0.5270620000000 1.0
C      1  0.5695650000000  0.4426410000000  0.4715540000000 1.0
C      1  0.4656800000000  0.5729360000000  0.4457830000000 1.0
C      1  0.4470770000000  0.4816800000000  0.5607890000000 1.0
C      1  0.5581380000000  0.5566040000000  0.5178030000000 1.0
C      1  0.4271780000000  0.5568650000000  0.4701580000000 1.0
C      1  0.4315010000000  0.4508660000000  0.5256470000000 1.0
C      1  0.4687400000000  0.4380510000000  0.5547160000000 1.0
C      1  0.5274880000000  0.4330200000000  0.4490900000000 1.0
C      1  0.5165830000000  0.5565480000000  0.5523350000000 1.0
C      1  0.4462750000000  0.5302410000000  0.4340270000000 1.0
C      1  0.5619680000000  0.5235200000000  0.5599510000000 1.0
C      1  0.5534680000000  0.4722710000000  0.4354330000000 1.0
C      1  0.4315400000000  0.4447850000000  0.4701430000000 1.0
C      1  0.5201390000000  0.5620490000000  0.4365710000000 1.0
C      1  0.5588370000000  0.4705910000000  0.5628800000000 1.0
C      1  0.4311120000000  0.5503760000000  0.5259370000000 1.0
C      1  0.5660650000000  0.5576140000000  0.4688420000000 1.0
C      1  0.5598600000000  0.4408330000000  0.5202000000000 1.0
C      1  0.5186450000000  0.4366990000000  0.5539990000000 1.0
C      1  0.4709200000000  0.4318080000000  0.4428180000000 1.0
C      1  0.4687850000000  0.5696520000000  0.5502870000000 1.0
C      1  0.5560930000000  0.5240190000000  0.4384160000000 1.0
C      1  0.4465300000000  0.5306940000000  0.5671370000000 1.0
C      1  0.4483390000000  0.4736970000000  0.4343110000000 1.0
C      1  0.4986840000000  0.4456590000000  0.4356970000000 1.0
C      1  0.4342300000000  0.5012640000000  0.4448470000000 1.0
C      1  0.4435930000000  0.4350530000000  0.4980660000000 1.0
C      1  0.4908970000000  0.5573680000000  0.5636950000000 1.0
C      1  0.4885650000000  0.5600520000000  0.4345680000000 1.0
C      1  0.4941900000000  0.4444780000000  0.5642020000000 1.0
C      1  0.4356130000000  0.5072290000000  0.5563230000000 1.0
C      1  0.5628560000000  0.4981280000000  0.4295630000000 1.0
C      1  0.5729080000000  0.4972820000000  0.5610030000000 1.0
C      1  0.4414000000000  0.5646990000000  0.4968640000000 1.0
C      1  0.5525830000000  0.5670860000000  0.4923600000000 1.0
C      1  0.5557420000000  0.4314070000000  0.4942260000000 1.0
C      1  0.4433980000000  0.4535690000000  0.5543640000000 1.0
C      1  0.4411570000000  0.5566780000000  0.4444340000000 1.0
C      1  0.5540920000000  0.4444040000000  0.4471170000000 1.0
C      1  0.5479520000000  0.4452790000000  0.5484580000000 1.0
C      1  0.5500270000000  0.5553660000000  0.4433600000000 1.0
C      1  0.4424260000000  0.5546890000000  0.5517350000000 1.0
C      1  0.5476420000000  0.5513510000000  0.5466690000000 1.0
C      1  0.4456390000000  0.4472140000000  0.4446260000000 1.0
END
