TITL C-2622959-7779-762 -0.00110838354924208 125000 -532.197515180044 0 0 93 (C1) n - 1
REM
REM in /nfs/bkarasulu/CARBON/AIRSS/Generating-Clusters/AIREBO/with-SteepDescent/Higher-Symm/SD-CG/HFTN-CG
REM
REM
REM
REM
REM
REM ./C.cell (b20cbc046b6831c77cfcea5457e17084)
REM
REM compiler GCC version 9.2.1 20190827 (Red Hat 9.2.1-1)
REM options -cpp -mtune=generic -march=x86-64 -g -O0 -fpre-include=/usr/include/finclude/math-vector-fortran.h
REM seed -856403375 -564356670 1634261341 -1601652233 26096907 -1556611185 2123594074 335153531 -2133690687 -1078579106 383539264 1066419261 2059317390 -1222076659 1611168910 290787778 1035241750 -1110119377 1299743353 456947829 -283817472 1338187730 -988597919 1440269378 -1406724655 202985308 2048705588 1306306941 1147826862 1816777883 671789158 2050149470 1301551497
REM
CELL 1.54180   50.00000   50.00000   50.00000   90.00000   90.00000   90.00000
LATT -1
SFAC C  
C      1  0.5142730000000  0.5827220000000  0.5247920000000 1.0
C      1  0.4703470000000  0.5814870000000  0.4991840000000 1.0
C      1  0.5139780000000  0.5801690000000  0.4742540000000 1.0
C      1  0.4872580000000  0.3836670000000  0.5363230000000 1.0
C      1  0.4682520000000  0.3846340000000  0.4759900000000 1.0
C      1  0.5238270000000  0.3962660000000  0.4734440000000 1.0
C      1  0.4710170000000  0.5554130000000  0.4489990000000 1.0
C      1  0.5556460000000  0.5551510000000  0.5008280000000 1.0
C      1  0.4712570000000  0.5562180000000  0.5487750000000 1.0
C      1  0.5414720000000  0.5465590000000  0.4542680000000 1.0
C      1  0.5194580000000  0.5518120000000  0.5610760000000 1.0
C      1  0.4387780000000  0.5475920000000  0.4870660000000 1.0
C      1  0.4891670000000  0.5371460000000  0.4789230000000 1.0
C      1  0.5203910000000  0.5367240000000  0.5033490000000 1.0
C      1  0.4905490000000  0.5389050000000  0.5185300000000 1.0
C      1  0.5039120000000  0.5116960000000  0.5310920000000 1.0
C      1  0.4736550000000  0.5115020000000  0.4874940000000 1.0
C      1  0.5263330000000  0.5099220000000  0.4873620000000 1.0
C      1  0.4601690000000  0.5345930000000  0.5060650000000 1.0
C      1  0.5160410000000  0.5312450000000  0.4637300000000 1.0
C      1  0.5263770000000  0.5352830000000  0.5358380000000 1.0
C      1  0.4938820000000  0.5343470000000  0.3909490000000 1.0
C      1  0.5983500000000  0.5364300000000  0.5499240000000 1.0
C      1  0.4108340000000  0.5330500000000  0.5617370000000 1.0
C      1  0.4674720000000  0.4487490000000  0.5720030000000 1.0
C      1  0.4489660000000  0.4525450000000  0.4326640000000 1.0
C      1  0.5852780000000  0.4506640000000  0.4912110000000 1.0
C      1  0.4453780000000  0.5462800000000  0.4559180000000 1.0
C      1  0.5641710000000  0.5465780000000  0.4758590000000 1.0
C      1  0.4891060000000  0.5490430000000  0.5687830000000 1.0
C      1  0.5513880000000  0.4872170000000  0.4836910000000 1.0
C      1  0.4879440000000  0.4863280000000  0.5460540000000 1.0
C      1  0.4648200000000  0.4882910000000  0.4661790000000 1.0
C      1  0.4620030000000  0.4302840000000  0.4551080000000 1.0
C      1  0.5619480000000  0.4279850000000  0.5009700000000 1.0
C      1  0.4889120000000  0.4225790000000  0.5688670000000 1.0
C      1  0.5271070000000  0.5699920000000  0.4996360000000 1.0
C      1  0.4853940000000  0.5720800000000  0.5240760000000 1.0
C      1  0.4849580000000  0.5703270000000  0.4749630000000 1.0
C      1  0.4875770000000  0.4099300000000  0.5430990000000 1.0
C      1  0.4699700000000  0.4103730000000  0.4752040000000 1.0
C      1  0.5418430000000  0.4118250000000  0.4935040000000 1.0
C      1  0.5159220000000  0.5229050000000  0.5982190000000 1.0
C      1  0.4047500000000  0.5232660000000  0.4656830000000 1.0
C      1  0.5781980000000  0.5243530000000  0.4360330000000 1.0
C      1  0.5416710000000  0.4762710000000  0.4525740000000 1.0
C      1  0.5202650000000  0.4789380000000  0.5537120000000 1.0
C      1  0.4417730000000  0.4780390000000  0.4890400000000 1.0
C      1  0.5498110000000  0.5272360000000  0.4312130000000 1.0
C      1  0.5350740000000  0.5283070000000  0.5770050000000 1.0
C      1  0.4152550000000  0.5276460000000  0.4921910000000 1.0
C      1  0.4783900000000  0.4845460000000  0.5035080000000 1.0
C      1  0.5126640000000  0.4798620000000  0.4797390000000 1.0
C      1  0.5103060000000  0.4838360000000  0.5130940000000 1.0
C      1  0.4266060000000  0.4675900000000  0.5433300000000 1.0
C      1  0.4954090000000  0.4712700000000  0.4168110000000 1.0
C      1  0.5750720000000  0.4736310000000  0.5367330000000 1.0
C      1  0.4717860000000  0.4650970000000  0.4112500000000 1.0
C      1  0.5918780000000  0.4671420000000  0.5194550000000 1.0
C      1  0.4381450000000  0.4602610000000  0.5641130000000 1.0
C      1  0.5722290000000  0.5318780000000  0.5461740000000 1.0
C      1  0.4257460000000  0.5301290000000  0.5395880000000 1.0
C      1  0.5042270000000  0.5300060000000  0.4153300000000 1.0
C      1  0.5555070000000  0.5155080000000  0.5629170000000 1.0
C      1  0.4173770000000  0.5145200000000  0.5167950000000 1.0
C      1  0.5276610000000  0.5140270000000  0.4202490000000 1.0
C      1  0.4293030000000  0.4869840000000  0.5167590000000 1.0
C      1  0.5205670000000  0.4870500000000  0.4315040000000 1.0
C      1  0.5493660000000  0.4893630000000  0.5495500000000 1.0
C      1  0.5147060000000  0.4278460000000  0.4829310000000 1.0
C      1  0.4860450000000  0.4340730000000  0.5240580000000 1.0
C      1  0.4860550000000  0.4298690000000  0.4936160000000 1.0
C      1  0.5555260000000  0.4605570000000  0.5043850000000 1.0
C      1  0.4700680000000  0.4575350000000  0.5402700000000 1.0
C      1  0.4767610000000  0.4605710000000  0.4505250000000 1.0
C      1  0.4514330000000  0.5403470000000  0.5360260000000 1.0
C      1  0.4936010000000  0.5393710000000  0.4394290000000 1.0
C      1  0.5561410000000  0.5417950000000  0.5254880000000 1.0
C      1  0.4410100000000  0.4543460000000  0.4662840000000 1.0
C      1  0.5623780000000  0.4529880000000  0.4661820000000 1.0
C      1  0.5007750000000  0.4537570000000  0.5653610000000 1.0
C      1  0.5425110000000  0.4861610000000  0.5172170000000 1.0
C      1  0.4591430000000  0.4849670000000  0.5280300000000 1.0
C      1  0.4968670000000  0.4840740000000  0.4546600000000 1.0
C      1  0.4675530000000  0.4558620000000  0.4890730000000 1.0
C      1  0.5294830000000  0.4531510000000  0.4748060000000 1.0
C      1  0.5089050000000  0.4555150000000  0.5318590000000 1.0
C      1  0.5256160000000  0.5801070000000  0.5499810000000 1.0
C      1  0.4430550000000  0.5766890000000  0.4975790000000 1.0
C      1  0.5295400000000  0.5751320000000  0.4518600000000 1.0
C      1  0.4219050000000  0.5331070000000  0.4453890000000 1.0
C      1  0.5861280000000  0.5347650000000  0.4612090000000 1.0
C      1  0.4903790000000  0.5341510000000  0.5934320000000 1.0
END
