TITL C-2622955-8511-646 0.00135653814530418 125000 -318.174870237858 0 0 62 (C1) n - 1
REM
REM in /nfs/bkarasulu/CARBON/AIRSS/Generating-Clusters/AIREBO/with-SteepDescent/Higher-Symm/SD-CG/HFTN-CG
REM
REM
REM
REM
REM
REM ./C.cell (b20cbc046b6831c77cfcea5457e17084)
REM
REM compiler GCC version 9.2.1 20190827 (Red Hat 9.2.1-1)
REM options -cpp -mtune=generic -march=x86-64 -g -O0 -fpre-include=/usr/include/finclude/math-vector-fortran.h
REM seed 479298055 494423065 -1544987172 1910735169 943106394 -207242537 1723200185 1062751395 -1999102498 -272382363 66404367 -1394532917 1248623115 1782097518 664125232 1077561794 776106743 1891956663 -851011861 -1841952975 -1381932637 -1725086513 602914644 1823140592 1767914134 -1207447082 171922428 1691916232 1340830472 534383827 1524535315 -1546227103 2061164292
REM
CELL 1.54180   50.00000   50.00000   50.00000   90.00000   90.00000   90.00000
LATT -1
SFAC C  
C      1  0.4610880000000  0.4995070000000  0.5721860000000 1.0
C      1  0.4682910000000  0.5690350000000  0.5228100000000 1.0
C      1  0.4638950000000  0.5431630000000  0.4422200000000 1.0
C      1  0.4669960000000  0.4566970000000  0.4480840000000 1.0
C      1  0.4675570000000  0.4339480000000  0.5215070000000 1.0
C      1  0.5608700000000  0.5420390000000  0.5123000000000 1.0
C      1  0.5596140000000  0.5211470000000  0.4662440000000 1.0
C      1  0.5559880000000  0.4700450000000  0.4660820000000 1.0
C      1  0.5608310000000  0.4654040000000  0.5152240000000 1.0
C      1  0.5607050000000  0.5026250000000  0.5448470000000 1.0
C      1  0.4751020000000  0.5530320000000  0.4671500000000 1.0
C      1  0.4776820000000  0.4842600000000  0.4512980000000 1.0
C      1  0.4690900000000  0.4342580000000  0.4935640000000 1.0
C      1  0.4718520000000  0.4779060000000  0.5559450000000 1.0
C      1  0.4695110000000  0.5536810000000  0.5467850000000 1.0
C      1  0.4328030000000  0.5079460000000  0.5284890000000 1.0
C      1  0.4368540000000  0.5290840000000  0.5021470000000 1.0
C      1  0.4390500000000  0.5107960000000  0.4735630000000 1.0
C      1  0.4323940000000  0.4781460000000  0.4805620000000 1.0
C      1  0.4353800000000  0.4779040000000  0.5146710000000 1.0
C      1  0.5361050000000  0.4838170000000  0.5310010000000 1.0
C      1  0.5383620000000  0.5237400000000  0.5300350000000 1.0
C      1  0.5384910000000  0.5331820000000  0.4878510000000 1.0
C      1  0.5420920000000  0.4982910000000  0.4532040000000 1.0
C      1  0.5355070000000  0.4709470000000  0.4932200000000 1.0
C      1  0.4888580000000  0.5126100000000  0.5662210000000 1.0
C      1  0.4939500000000  0.5672200000000  0.5088870000000 1.0
C      1  0.4916410000000  0.5304230000000  0.4386150000000 1.0
C      1  0.4989610000000  0.4512620000000  0.4584190000000 1.0
C      1  0.4937220000000  0.4396560000000  0.5354360000000 1.0
C      1  0.4673650000000  0.4966610000000  0.4749300000000 1.0
C      1  0.4591030000000  0.4598300000000  0.4881020000000 1.0
C      1  0.4656870000000  0.4829090000000  0.5292650000000 1.0
C      1  0.4537580000000  0.5317370000000  0.5380580000000 1.0
C      1  0.4665010000000  0.5358070000000  0.4879430000000 1.0
C      1  0.5797480000000  0.5031170000000  0.5617490000000 1.0
C      1  0.5822810000000  0.5555650000000  0.5154130000000 1.0
C      1  0.5826180000000  0.5306470000000  0.4591830000000 1.0
C      1  0.5645480000000  0.4770780000000  0.4350410000000 1.0
C      1  0.5813740000000  0.4512500000000  0.5202600000000 1.0
C      1  0.5170710000000  0.4787250000000  0.4657220000000 1.0
C      1  0.5180750000000  0.4574610000000  0.5193000000000 1.0
C      1  0.5124930000000  0.4980350000000  0.5465990000000 1.0
C      1  0.5153190000000  0.5440440000000  0.5185700000000 1.0
C      1  0.5142290000000  0.5306750000000  0.4641380000000 1.0
C      1  0.4852750000000  0.4538980000000  0.5613180000000 1.0
C      1  0.4906800000000  0.5453520000000  0.5623690000000 1.0
C      1  0.4944370000000  0.5703000000000  0.4762090000000 1.0
C      1  0.4923720000000  0.4983690000000  0.4334170000000 1.0
C      1  0.4854110000000  0.4256780000000  0.4726880000000 1.0
C      1  0.4358790000000  0.5061860000000  0.5623930000000 1.0
C      1  0.4448290000000  0.5614200000000  0.5092510000000 1.0
C      1  0.4405240000000  0.5288870000000  0.4469840000000 1.0
C      1  0.4394000000000  0.4582050000000  0.4538790000000 1.0
C      1  0.4450800000000  0.4486680000000  0.5290890000000 1.0
C      1  0.5249420000000  0.4277930000000  0.5314810000000 1.0
C      1  0.5196690000000  0.5282060000000  0.5580980000000 1.0
C      1  0.5235370000000  0.5634490000000  0.4919920000000 1.0
C      1  0.5218900000000  0.5151830000000  0.4348510000000 1.0
C      1  0.5308340000000  0.4467290000000  0.4697960000000 1.0
C      1  0.5332600000000  0.5033440000000  0.5033090000000 1.0
C      1  0.4723030000000  0.4837710000000  0.5007640000000 1.0
END
