TITL C-2622962-9663-793 -0.000273309369004587 125000 -244.142179215489 0 0 43 (C1) n - 1
REM
REM in /nfs/bkarasulu/CARBON/AIRSS/Generating-Clusters/AIREBO/with-SteepDescent/Higher-Symm/SD-CG/HFTN-CG
REM
REM
REM
REM
REM
REM ./C.cell (b20cbc046b6831c77cfcea5457e17084)
REM
REM compiler GCC version 9.2.1 20190827 (Red Hat 9.2.1-1)
REM options -cpp -mtune=generic -march=x86-64 -g -O0 -fpre-include=/usr/include/finclude/math-vector-fortran.h
REM seed 794787200 1727410462 965153034 -206697304 -1808163266 -1955450353 -119559618 -1451689456 2061954279 -2044964505 1623582497 -1450461825 -45749637 -921965750 1353534982 -649281731 -1899025568 -50936345 -1616401862 -1107308495 -1833807472 -405797512 1276478260 415350000 1551187610 81731436 167325545 2065860902 1858306876 1422317319 216414400 -920077152 -1988426133
REM
CELL 1.54180   50.00000   50.00000   50.00000   90.00000   90.00000   90.00000
LATT -1
SFAC C  
C      1  0.4627450000000  0.5135260000000  0.4222780000000 1.0
C      1  0.4594220000000  0.5113770000000  0.5738840000000 1.0
C      1  0.5696260000000  0.5599880000000  0.5096970000000 1.0
C      1  0.4479660000000  0.4634600000000  0.5245290000000 1.0
C      1  0.5290590000000  0.4300230000000  0.5189790000000 1.0
C      1  0.5024250000000  0.4586000000000  0.4500710000000 1.0
C      1  0.4761450000000  0.4645450000000  0.5224080000000 1.0
C      1  0.5206090000000  0.4530280000000  0.5067640000000 1.0
C      1  0.4880100000000  0.4655060000000  0.4735410000000 1.0
C      1  0.4639690000000  0.5600700000000  0.4632360000000 1.0
C      1  0.4903420000000  0.5587300000000  0.5517440000000 1.0
C      1  0.5395890000000  0.5620290000000  0.4609060000000 1.0
C      1  0.5545940000000  0.4928140000000  0.5210200000000 1.0
C      1  0.5141050000000  0.4791530000000  0.4354150000000 1.0
C      1  0.4340320000000  0.4874650000000  0.5241020000000 1.0
C      1  0.5272790000000  0.5152130000000  0.4695440000000 1.0
C      1  0.4604510000000  0.5206400000000  0.4940550000000 1.0
C      1  0.5226150000000  0.5209610000000  0.5421840000000 1.0
C      1  0.5522720000000  0.5405770000000  0.5026010000000 1.0
C      1  0.4760940000000  0.5132190000000  0.4470920000000 1.0
C      1  0.4723840000000  0.5119780000000  0.5485530000000 1.0
C      1  0.5601120000000  0.4679980000000  0.4766650000000 1.0
C      1  0.4388730000000  0.4804330000000  0.4624240000000 1.0
C      1  0.5092590000000  0.4794180000000  0.5649590000000 1.0
C      1  0.4206260000000  0.4932410000000  0.4745410000000 1.0
C      1  0.5312600000000  0.4956130000000  0.5610400000000 1.0
C      1  0.5625380000000  0.4802300000000  0.4547250000000 1.0
C      1  0.4295450000000  0.5072150000000  0.4987270000000 1.0
C      1  0.5543640000000  0.4841620000000  0.5481900000000 1.0
C      1  0.5397620000000  0.4960690000000  0.4452210000000 1.0
C      1  0.4943490000000  0.5332840000000  0.5476570000000 1.0
C      1  0.5401010000000  0.5403960000000  0.4777080000000 1.0
C      1  0.4654710000000  0.5344920000000  0.4677340000000 1.0
C      1  0.5027910000000  0.5041570000000  0.5215780000000 1.0
C      1  0.5187590000000  0.4975930000000  0.4929840000000 1.0
C      1  0.4852090000000  0.4997190000000  0.4940410000000 1.0
C      1  0.4882770000000  0.4841980000000  0.5426190000000 1.0
C      1  0.5410050000000  0.4752080000000  0.4998000000000 1.0
C      1  0.4680510000000  0.4890340000000  0.4668740000000 1.0
C      1  0.5057720000000  0.5098880000000  0.4448530000000 1.0
C      1  0.4530040000000  0.5141270000000  0.5260720000000 1.0
C      1  0.5458010000000  0.5199230000000  0.5203400000000 1.0
C      1  0.4933460000000  0.4587790000000  0.5003600000000 1.0
END
