TITL C-2622958-629-721 0.00458638164397182 125000 -283.438206047622 0 0 48 (C1) n - 1
REM
REM in /nfs/bkarasulu/CARBON/AIRSS/Generating-Clusters/AIREBO/with-SteepDescent/Higher-Symm/SD-CG/HFTN-CG
REM
REM
REM
REM
REM
REM ./C.cell (b20cbc046b6831c77cfcea5457e17084)
REM
REM compiler GCC version 9.2.1 20190827 (Red Hat 9.2.1-1)
REM options -cpp -mtune=generic -march=x86-64 -g -O0 -fpre-include=/usr/include/finclude/math-vector-fortran.h
REM seed 1010079566 -1765474764 1833998142 179679191 -1347131939 47148745 769642193 -1988440434 -409865124 -332545683 190733236 458988499 1132495298 -1297517555 271800127 462344976 -1636435979 503873395 -966392263 1631262761 296318155 -1037157332 -352385666 -1164613044 1565912557 1744383861 -2045779328 820199039 -625877087 -653016686 406120687 1528013677 1142581258
REM
CELL 1.54180   50.00000   50.00000   50.00000   90.00000   90.00000   90.00000
LATT -1
SFAC C  
C      1  0.4744740000000  0.5361560000000  0.4944510000000 1.0
C      1  0.4711330000000  0.4622420000000  0.5049650000000 1.0
C      1  0.5341290000000  0.5479270000000  0.4976910000000 1.0
C      1  0.5309000000000  0.4516800000000  0.5047660000000 1.0
C      1  0.5609950000000  0.5295990000000  0.4907500000000 1.0
C      1  0.5569780000000  0.4691620000000  0.5063660000000 1.0
C      1  0.4472340000000  0.5274700000000  0.4941750000000 1.0
C      1  0.4456000000000  0.4730630000000  0.4976210000000 1.0
C      1  0.5176750000000  0.4459180000000  0.4562640000000 1.0
C      1  0.5103830000000  0.5458890000000  0.5402280000000 1.0
C      1  0.4867970000000  0.4482360000000  0.4617470000000 1.0
C      1  0.4785940000000  0.5442570000000  0.5410540000000 1.0
C      1  0.4837100000000  0.4412940000000  0.4911550000000 1.0
C      1  0.4842100000000  0.5562390000000  0.5123010000000 1.0
C      1  0.5151870000000  0.4370810000000  0.4872370000000 1.0
C      1  0.5162410000000  0.5621460000000  0.5141330000000 1.0
C      1  0.4764130000000  0.4936070000000  0.5432440000000 1.0
C      1  0.4796980000000  0.5083760000000  0.4662730000000 1.0
C      1  0.5210160000000  0.4943050000000  0.5389360000000 1.0
C      1  0.5191780000000  0.5104280000000  0.4619440000000 1.0
C      1  0.5467800000000  0.5154590000000  0.5171470000000 1.0
C      1  0.5392710000000  0.4829070000000  0.4814210000000 1.0
C      1  0.4406150000000  0.5165410000000  0.5200280000000 1.0
C      1  0.4477380000000  0.4853040000000  0.4719360000000 1.0
C      1  0.4393510000000  0.5125760000000  0.4705730000000 1.0
C      1  0.4340310000000  0.4875100000000  0.5204170000000 1.0
C      1  0.5581000000000  0.5090170000000  0.4704430000000 1.0
C      1  0.5604810000000  0.4886740000000  0.5261880000000 1.0
C      1  0.5231830000000  0.5178880000000  0.4921540000000 1.0
C      1  0.5195690000000  0.4823170000000  0.5097620000000 1.0
C      1  0.4933740000000  0.5106980000000  0.4949080000000 1.0
C      1  0.4878770000000  0.4854640000000  0.5155790000000 1.0
C      1  0.5180380000000  0.4789640000000  0.5629450000000 1.0
C      1  0.5132010000000  0.5265100000000  0.4379030000000 1.0
C      1  0.4906140000000  0.4768400000000  0.5678970000000 1.0
C      1  0.4847360000000  0.5267250000000  0.4447700000000 1.0
C      1  0.5596210000000  0.5167460000000  0.4432040000000 1.0
C      1  0.5643860000000  0.4813270000000  0.5532730000000 1.0
C      1  0.4373800000000  0.5266490000000  0.4459110000000 1.0
C      1  0.4466720000000  0.4782290000000  0.5448060000000 1.0
C      1  0.4619590000000  0.5213550000000  0.5399620000000 1.0
C      1  0.4778250000000  0.4778180000000  0.4581470000000 1.0
C      1  0.5265540000000  0.5233950000000  0.5412790000000 1.0
C      1  0.5120300000000  0.4790600000000  0.4613780000000 1.0
C      1  0.5445110000000  0.4725250000000  0.5710060000000 1.0
C      1  0.5400870000000  0.5304770000000  0.4285420000000 1.0
C      1  0.4609210000000  0.4685610000000  0.5699800000000 1.0
C      1  0.4605480000000  0.5353850000000  0.4331420000000 1.0
END
