TITL C-2622966-9038-553 0.00694470559003921 125000 -919.976693655456 0 0 170 (C1) n - 1
REM
REM in /nfs/bkarasulu/CARBON/AIRSS/Generating-Clusters/AIREBO/with-SteepDescent/Higher-Symm/SD-CG/HFTN-CG
REM
REM
REM
REM
REM
REM ./C.cell (b20cbc046b6831c77cfcea5457e17084)
REM
REM compiler GCC version 9.2.1 20190827 (Red Hat 9.2.1-1)
REM options -cpp -mtune=generic -march=x86-64 -g -O0 -fpre-include=/usr/include/finclude/math-vector-fortran.h
REM seed 1317326612 434430568 -1324547400 697935240 1629429466 1142614741 -1111023644 -2117020636 193588640 -209473901 -1005503339 1988633387 1829282409 -1305945799 -1972781817 -1848440899 -194617122 -386912 796812872 1070272468 -649535899 -1969404018 -1628378208 868706969 -799680165 162295395 1510984760 -1509864363 -1900246673 1299995258 115173503 1843379542 1026063663
REM
CELL 1.54180   50.00000   50.00000   50.00000   90.00000   90.00000   90.00000
LATT -1
SFAC C  
C      1  0.4684110000000  0.4161700000000  0.4867470000000 1.0
C      1  0.5282550000000  0.5044750000000  0.5374670000000 1.0
C      1  0.5888130000000  0.5317740000000  0.5695450000000 1.0
C      1  0.5402580000000  0.5225870000000  0.4055310000000 1.0
C      1  0.5217620000000  0.6119800000000  0.5322070000000 1.0
C      1  0.5241590000000  0.5823870000000  0.5711030000000 1.0
C      1  0.6010350000000  0.5207000000000  0.4915690000000 1.0
C      1  0.5910940000000  0.4915320000000  0.5362230000000 1.0
C      1  0.5281460000000  0.4828950000000  0.4216510000000 1.0
C      1  0.5017330000000  0.5490560000000  0.4296780000000 1.0
C      1  0.5593350000000  0.5113670000000  0.4231220000000 1.0
C      1  0.5836050000000  0.4448460000000  0.5411810000000 1.0
C      1  0.5058270000000  0.5400040000000  0.5147340000000 1.0
C      1  0.4278130000000  0.4446850000000  0.4952360000000 1.0
C      1  0.4113940000000  0.4501390000000  0.5312370000000 1.0
C      1  0.4865290000000  0.4314080000000  0.5372980000000 1.0
C      1  0.5568590000000  0.5560530000000  0.4503140000000 1.0
C      1  0.4489490000000  0.4934690000000  0.5099800000000 1.0
C      1  0.5463960000000  0.4522810000000  0.5183010000000 1.0
C      1  0.5536290000000  0.4765570000000  0.5635540000000 1.0
C      1  0.5165830000000  0.4263840000000  0.5797650000000 1.0
C      1  0.4796950000000  0.4105670000000  0.4355020000000 1.0
C      1  0.5332470000000  0.4992510000000  0.5628070000000 1.0
C      1  0.4668430000000  0.4345520000000  0.5849190000000 1.0
C      1  0.4186770000000  0.4785910000000  0.5142550000000 1.0
C      1  0.5554040000000  0.4613530000000  0.5912130000000 1.0
C      1  0.5431680000000  0.5822140000000  0.4770360000000 1.0
C      1  0.5318920000000  0.5636450000000  0.5343260000000 1.0
C      1  0.4564000000000  0.4940640000000  0.4451140000000 1.0
C      1  0.4150290000000  0.4991170000000  0.4550840000000 1.0
C      1  0.5887810000000  0.4641980000000  0.4662700000000 1.0
C      1  0.4273050000000  0.5780040000000  0.5137930000000 1.0
C      1  0.5348630000000  0.4346900000000  0.5523230000000 1.0
C      1  0.5230270000000  0.4576120000000  0.5878500000000 1.0
C      1  0.5459180000000  0.5656960000000  0.5715450000000 1.0
C      1  0.5295030000000  0.4197670000000  0.4468990000000 1.0
C      1  0.5037810000000  0.4722320000000  0.4788770000000 1.0
C      1  0.5737640000000  0.4193250000000  0.5241830000000 1.0
C      1  0.5437280000000  0.4550900000000  0.4098140000000 1.0
C      1  0.5301680000000  0.5327110000000  0.5319570000000 1.0
C      1  0.5622100000000  0.4818910000000  0.4196290000000 1.0
C      1  0.5767460000000  0.4895780000000  0.4854440000000 1.0
C      1  0.4093680000000  0.4996970000000  0.4090120000000 1.0
C      1  0.5003350000000  0.5555670000000  0.5444670000000 1.0
C      1  0.5096120000000  0.5356310000000  0.5918420000000 1.0
C      1  0.4563430000000  0.5642380000000  0.5249230000000 1.0
C      1  0.5398050000000  0.4514450000000  0.4433940000000 1.0
C      1  0.5633740000000  0.5255980000000  0.4496530000000 1.0
C      1  0.4376000000000  0.5113430000000  0.5790220000000 1.0
C      1  0.5750300000000  0.4253190000000  0.4959410000000 1.0
C      1  0.6063650000000  0.4675530000000  0.5507130000000 1.0
C      1  0.5706920000000  0.5699540000000  0.4735740000000 1.0
C      1  0.4930620000000  0.5284170000000  0.4040790000000 1.0
C      1  0.5909000000000  0.5245590000000  0.4666730000000 1.0
C      1  0.4287210000000  0.5296090000000  0.5598150000000 1.0
C      1  0.4882030000000  0.4256860000000  0.5693920000000 1.0
C      1  0.5458940000000  0.4092250000000  0.5719690000000 1.0
C      1  0.5586270000000  0.5092980000000  0.4988340000000 1.0
C      1  0.4059540000000  0.5148790000000  0.4336600000000 1.0
C      1  0.5661700000000  0.4578630000000  0.4916390000000 1.0
C      1  0.5328270000000  0.5115050000000  0.5926290000000 1.0
C      1  0.5081260000000  0.5943150000000  0.5501410000000 1.0
C      1  0.5202650000000  0.5922310000000  0.4556820000000 1.0
C      1  0.4679720000000  0.5443770000000  0.4089290000000 1.0
C      1  0.5301100000000  0.5671940000000  0.4348000000000 1.0
C      1  0.4098030000000  0.4678310000000  0.4831580000000 1.0
C      1  0.4553850000000  0.5439420000000  0.5936290000000 1.0
C      1  0.4817800000000  0.5809170000000  0.5402500000000 1.0
C      1  0.3902000000000  0.5020260000000  0.5242960000000 1.0
C      1  0.5265730000000  0.3950730000000  0.5172660000000 1.0
C      1  0.4781110000000  0.3980830000000  0.4616140000000 1.0
C      1  0.5357440000000  0.4609890000000  0.4757960000000 1.0
C      1  0.4240670000000  0.5091460000000  0.4829590000000 1.0
C      1  0.4674010000000  0.5330870000000  0.5472560000000 1.0
C      1  0.5566760000000  0.5306520000000  0.5469750000000 1.0
C      1  0.4808150000000  0.5274080000000  0.4718170000000 1.0
C      1  0.4873680000000  0.5161290000000  0.5030450000000 1.0
C      1  0.5635790000000  0.5700310000000  0.5449200000000 1.0
C      1  0.4489790000000  0.5301820000000  0.4816280000000 1.0
C      1  0.4303920000000  0.5800510000000  0.5656150000000 1.0
C      1  0.6166420000000  0.4469290000000  0.5053790000000 1.0
C      1  0.5431930000000  0.6066760000000  0.5083850000000 1.0
C      1  0.4445760000000  0.5386910000000  0.4239640000000 1.0
C      1  0.3911930000000  0.4370150000000  0.5428280000000 1.0
C      1  0.5130490000000  0.5005200000000  0.4887540000000 1.0
C      1  0.4577450000000  0.4468910000000  0.5481170000000 1.0
C      1  0.4976450000000  0.4585330000000  0.4372640000000 1.0
C      1  0.5903630000000  0.5517600000000  0.5458770000000 1.0
C      1  0.4296630000000  0.4843800000000  0.5722150000000 1.0
C      1  0.4536940000000  0.4641410000000  0.5771510000000 1.0
C      1  0.4411210000000  0.4460790000000  0.5203550000000 1.0
C      1  0.5544270000000  0.5349140000000  0.5806330000000 1.0
C      1  0.4554090000000  0.5855550000000  0.4281240000000 1.0
C      1  0.5468600000000  0.4068320000000  0.5369500000000 1.0
C      1  0.4445330000000  0.5548550000000  0.5551750000000 1.0
C      1  0.5362010000000  0.6147470000000  0.4759600000000 1.0
C      1  0.5903240000000  0.4655090000000  0.5143400000000 1.0
C      1  0.4673630000000  0.6063500000000  0.4736480000000 1.0
C      1  0.5728750000000  0.5034770000000  0.5594380000000 1.0
C      1  0.4593780000000  0.4756870000000  0.4098720000000 1.0
C      1  0.4407880000000  0.4297610000000  0.4764980000000 1.0
C      1  0.5043940000000  0.5171880000000  0.4412730000000 1.0
C      1  0.3999170000000  0.4624880000000  0.4543170000000 1.0
C      1  0.4893560000000  0.5530510000000  0.4593160000000 1.0
C      1  0.4577390000000  0.4276390000000  0.4305630000000 1.0
C      1  0.4593720000000  0.5318480000000  0.5142370000000 1.0
C      1  0.4795460000000  0.4856100000000  0.5835670000000 1.0
C      1  0.5398120000000  0.4854310000000  0.4525040000000 1.0
C      1  0.4250210000000  0.5150080000000  0.5332560000000 1.0
C      1  0.6063920000000  0.4917090000000  0.4994170000000 1.0
C      1  0.5292520000000  0.4078760000000  0.4924760000000 1.0
C      1  0.5109680000000  0.4489900000000  0.4093310000000 1.0
C      1  0.4915990000000  0.5861590000000  0.4667560000000 1.0
C      1  0.4451800000000  0.5614720000000  0.4750600000000 1.0
C      1  0.5046780000000  0.4187120000000  0.4238130000000 1.0
C      1  0.5254460000000  0.5106750000000  0.4618400000000 1.0
C      1  0.5367700000000  0.5497150000000  0.4072820000000 1.0
C      1  0.5256580000000  0.4366320000000  0.4972690000000 1.0
C      1  0.3791780000000  0.4522950000000  0.4431870000000 1.0
C      1  0.5018000000000  0.4690010000000  0.5638490000000 1.0
C      1  0.5054080000000  0.4383170000000  0.4583130000000 1.0
C      1  0.4648040000000  0.4624320000000  0.4672030000000 1.0
C      1  0.4728370000000  0.4062480000000  0.5189750000000 1.0
C      1  0.5690450000000  0.5868380000000  0.5180920000000 1.0
C      1  0.5122350000000  0.5047110000000  0.4040910000000 1.0
C      1  0.5005910000000  0.3890710000000  0.5233640000000 1.0
C      1  0.4124540000000  0.5550040000000  0.4967890000000 1.0
C      1  0.5430820000000  0.4044870000000  0.4684560000000 1.0
C      1  0.5555140000000  0.4894590000000  0.6051170000000 1.0
C      1  0.4668290000000  0.5727380000000  0.4951450000000 1.0
C      1  0.6016060000000  0.4567460000000  0.4457590000000 1.0
C      1  0.5958720000000  0.5443290000000  0.5131520000000 1.0
C      1  0.4911420000000  0.5356010000000  0.5692510000000 1.0
C      1  0.4401870000000  0.5673240000000  0.5926890000000 1.0
C      1  0.4879230000000  0.4914880000000  0.4329120000000 1.0
C      1  0.4671960000000  0.4574270000000  0.4336510000000 1.0
C      1  0.4779040000000  0.4935200000000  0.4714490000000 1.0
C      1  0.5648640000000  0.4384450000000  0.5678860000000 1.0
C      1  0.4925520000000  0.4770220000000  0.4024830000000 1.0
C      1  0.4863080000000  0.4436550000000  0.4847670000000 1.0
C      1  0.4162600000000  0.5415070000000  0.4346790000000 1.0
C      1  0.5225590000000  0.5494720000000  0.4866900000000 1.0
C      1  0.4368770000000  0.4379800000000  0.4499300000000 1.0
C      1  0.4378380000000  0.5737300000000  0.4444190000000 1.0
C      1  0.5765940000000  0.5195200000000  0.5231960000000 1.0
C      1  0.4414170000000  0.4799300000000  0.4816960000000 1.0
C      1  0.4297290000000  0.4792820000000  0.4110570000000 1.0
C      1  0.4790810000000  0.4853270000000  0.5148480000000 1.0
C      1  0.4130790000000  0.5598440000000  0.4631340000000 1.0
C      1  0.4754520000000  0.4757700000000  0.5451920000000 1.0
C      1  0.4111680000000  0.4868610000000  0.5463690000000 1.0
C      1  0.5080930000000  0.4754470000000  0.5193380000000 1.0
C      1  0.4185860000000  0.5910750000000  0.5431610000000 1.0
C      1  0.5287980000000  0.4645460000000  0.5436530000000 1.0
C      1  0.5826860000000  0.5697230000000  0.4989130000000 1.0
C      1  0.5457150000000  0.5295050000000  0.4784620000000 1.0
C      1  0.4969590000000  0.5706970000000  0.4938150000000 1.0
C      1  0.5347400000000  0.4934110000000  0.5100250000000 1.0
C      1  0.4684200000000  0.5144450000000  0.5827480000000 1.0
C      1  0.4486940000000  0.5227680000000  0.4484450000000 1.0
C      1  0.5007550000000  0.4451980000000  0.5148070000000 1.0
C      1  0.5101020000000  0.4868380000000  0.5983110000000 1.0
C      1  0.4467810000000  0.5991290000000  0.4952060000000 1.0
C      1  0.4522170000000  0.4134730000000  0.5450400000000 1.0
C      1  0.4558180000000  0.5033640000000  0.5417750000000 1.0
C      1  0.4311450000000  0.4712640000000  0.4440750000000 1.0
C      1  0.4093020000000  0.5239690000000  0.5062520000000 1.0
C      1  0.5705330000000  0.4084020000000  0.4737250000000 1.0
C      1  0.5325990000000  0.5749440000000  0.5068560000000 1.0
C      1  0.4775710000000  0.5709730000000  0.4181030000000 1.0
END
