TITL C-2622953-3516-313 -0.000167331571734793 125000 -890.987565278716 0 0 161 (C1) n - 1
REM
REM in /nfs/bkarasulu/CARBON/AIRSS/Generating-Clusters/AIREBO/with-SteepDescent/Higher-Symm/SD-CG/HFTN-CG
REM
REM
REM
REM
REM
REM ./C.cell (b20cbc046b6831c77cfcea5457e17084)
REM
REM compiler GCC version 9.2.1 20190827 (Red Hat 9.2.1-1)
REM options -cpp -mtune=generic -march=x86-64 -g -O0 -fpre-include=/usr/include/finclude/math-vector-fortran.h
REM seed 1277941154 -1413482878 -55237144 1736889415 -1999633855 59277453 -1869271362 -1023172629 -924528946 -1236287269 -620173468 1354395078 -944304112 1461585459 -1108555049 -150370803 -1639368680 -1870737345 712719559 -1506575436 -1725746853 -2051820638 1091412580 -2091177689 -2070919780 -1316938098 -353034570 -1908676689 -908274119 -1530331084 -814786598 -1866778388 429511345
REM
CELL 1.54180   50.00000   50.00000   50.00000   90.00000   90.00000   90.00000
LATT -1
SFAC C  
C      1  0.4797080000000  0.5210040000000  0.4841030000000 1.0
C      1  0.5201630000000  0.5167710000000  0.5204770000000 1.0
C      1  0.4839430000000  0.4517490000000  0.5173160000000 1.0
C      1  0.5197390000000  0.4575310000000  0.5006470000000 1.0
C      1  0.4751540000000  0.4553120000000  0.4008810000000 1.0
C      1  0.5280330000000  0.4579220000000  0.5915390000000 1.0
C      1  0.4489140000000  0.5119900000000  0.4271460000000 1.0
C      1  0.5623430000000  0.5088430000000  0.5777330000000 1.0
C      1  0.5462590000000  0.4644240000000  0.5295830000000 1.0
C      1  0.4584820000000  0.4621260000000  0.4717260000000 1.0
C      1  0.5604410000000  0.4324760000000  0.5582120000000 1.0
C      1  0.4352780000000  0.4367850000000  0.4372250000000 1.0
C      1  0.5723670000000  0.4887510000000  0.4016490000000 1.0
C      1  0.4354020000000  0.4927360000000  0.5946980000000 1.0
C      1  0.5193720000000  0.4782650000000  0.4282990000000 1.0
C      1  0.4712400000000  0.4792590000000  0.5674340000000 1.0
C      1  0.5309840000000  0.4034320000000  0.5283660000000 1.0
C      1  0.4655270000000  0.4111840000000  0.4743270000000 1.0
C      1  0.4527210000000  0.4310970000000  0.4590440000000 1.0
C      1  0.5470510000000  0.4088520000000  0.5511160000000 1.0
C      1  0.4247870000000  0.5221980000000  0.5111200000000 1.0
C      1  0.5743230000000  0.5250090000000  0.4939080000000 1.0
C      1  0.5670150000000  0.5360970000000  0.4318640000000 1.0
C      1  0.4439630000000  0.5334860000000  0.5623420000000 1.0
C      1  0.5183330000000  0.5032150000000  0.6144390000000 1.0
C      1  0.4866640000000  0.5021860000000  0.3822860000000 1.0
C      1  0.4856340000000  0.5694480000000  0.5709160000000 1.0
C      1  0.5130740000000  0.5651390000000  0.4311590000000 1.0
C      1  0.4072500000000  0.5300630000000  0.4521370000000 1.0
C      1  0.6005110000000  0.5274040000000  0.5499660000000 1.0
C      1  0.5732600000000  0.5120210000000  0.5456900000000 1.0
C      1  0.4349190000000  0.5159180000000  0.4552290000000 1.0
C      1  0.4727060000000  0.5946690000000  0.4733300000000 1.0
C      1  0.5268590000000  0.5976480000000  0.5288800000000 1.0
C      1  0.4763550000000  0.4854830000000  0.5183890000000 1.0
C      1  0.5119260000000  0.4809120000000  0.4833800000000 1.0
C      1  0.4972160000000  0.6042770000000  0.5194560000000 1.0
C      1  0.5021570000000  0.5978900000000  0.4861920000000 1.0
C      1  0.5416780000000  0.5464540000000  0.4517840000000 1.0
C      1  0.4668360000000  0.5508030000000  0.5495830000000 1.0
C      1  0.5169560000000  0.4121710000000  0.4489420000000 1.0
C      1  0.4874870000000  0.4033430000000  0.5523640000000 1.0
C      1  0.4921990000000  0.5517470000000  0.4766910000000 1.0
C      1  0.4989880000000  0.5593770000000  0.5183210000000 1.0
C      1  0.5005940000000  0.5496060000000  0.4042990000000 1.0
C      1  0.5089910000000  0.5579490000000  0.5927930000000 1.0
C      1  0.5064520000000  0.5561100000000  0.5483620000000 1.0
C      1  0.4843420000000  0.5585540000000  0.4474550000000 1.0
C      1  0.4262500000000  0.5772270000000  0.4935030000000 1.0
C      1  0.5722150000000  0.5785360000000  0.5109330000000 1.0
C      1  0.3985610000000  0.4874200000000  0.5430060000000 1.0
C      1  0.5891380000000  0.4973040000000  0.4562730000000 1.0
C      1  0.4157880000000  0.4668550000000  0.5270270000000 1.0
C      1  0.5952710000000  0.4733320000000  0.4709300000000 1.0
C      1  0.5718050000000  0.4598930000000  0.4205160000000 1.0
C      1  0.4315910000000  0.4629670000000  0.5778020000000 1.0
C      1  0.5010130000000  0.5138850000000  0.4593120000000 1.0
C      1  0.4959400000000  0.5241900000000  0.5431630000000 1.0
C      1  0.5583000000000  0.4928900000000  0.5222780000000 1.0
C      1  0.4438780000000  0.4915230000000  0.4772530000000 1.0
C      1  0.5070220000000  0.5906090000000  0.4532700000000 1.0
C      1  0.4898400000000  0.5974420000000  0.5519870000000 1.0
C      1  0.5276310000000  0.5294860000000  0.4739180000000 1.0
C      1  0.4698860000000  0.5326310000000  0.5231750000000 1.0
C      1  0.5826240000000  0.4423340000000  0.5421950000000 1.0
C      1  0.4127200000000  0.4464050000000  0.4525830000000 1.0
C      1  0.4982140000000  0.4802720000000  0.4522630000000 1.0
C      1  0.4930570000000  0.4905990000000  0.5475670000000 1.0
C      1  0.4542420000000  0.5349840000000  0.4712160000000 1.0
C      1  0.5466730000000  0.5295320000000  0.5329350000000 1.0
C      1  0.4525660000000  0.5798240000000  0.5439810000000 1.0
C      1  0.5525120000000  0.5739600000000  0.4630680000000 1.0
C      1  0.5704500000000  0.4897730000000  0.4348150000000 1.0
C      1  0.4169220000000  0.4901540000000  0.5662730000000 1.0
C      1  0.5307810000000  0.5079180000000  0.5768190000000 1.0
C      1  0.4824490000000  0.5104190000000  0.4312640000000 1.0
C      1  0.4313330000000  0.4846600000000  0.4305540000000 1.0
C      1  0.5706680000000  0.4793380000000  0.5683530000000 1.0
C      1  0.5540520000000  0.5162050000000  0.4099070000000 1.0
C      1  0.4546730000000  0.5195460000000  0.5914000000000 1.0
C      1  0.5414160000000  0.4123250000000  0.5035150000000 1.0
C      1  0.4559700000000  0.4090010000000  0.5050620000000 1.0
C      1  0.5378740000000  0.5461400000000  0.4176710000000 1.0
C      1  0.4644540000000  0.5521540000000  0.5911450000000 1.0
C      1  0.4557360000000  0.4442310000000  0.5799290000000 1.0
C      1  0.5460550000000  0.4406170000000  0.4215460000000 1.0
C      1  0.5672010000000  0.4199530000000  0.4914550000000 1.0
C      1  0.4232470000000  0.4138620000000  0.5050510000000 1.0
C      1  0.5543510000000  0.5647110000000  0.5495850000000 1.0
C      1  0.4422100000000  0.5684870000000  0.4477320000000 1.0
C      1  0.4425870000000  0.4470190000000  0.4941800000000 1.0
C      1  0.5495320000000  0.4579580000000  0.4904450000000 1.0
C      1  0.5207340000000  0.5554020000000  0.4948230000000 1.0
C      1  0.4686440000000  0.5631260000000  0.5093330000000 1.0
C      1  0.4466190000000  0.5005560000000  0.5575530000000 1.0
C      1  0.5424250000000  0.4952800000000  0.4418580000000 1.0
C      1  0.4704860000000  0.4791230000000  0.4326190000000 1.0
C      1  0.5217860000000  0.4874740000000  0.5591870000000 1.0
C      1  0.5802380000000  0.5558890000000  0.4549700000000 1.0
C      1  0.4285050000000  0.5583400000000  0.5447080000000 1.0
C      1  0.4663260000000  0.5939110000000  0.5201880000000 1.0
C      1  0.5323230000000  0.5844090000000  0.4831470000000 1.0
C      1  0.4133680000000  0.4750200000000  0.4511610000000 1.0
C      1  0.5898950000000  0.4697390000000  0.5490970000000 1.0
C      1  0.5026330000000  0.4046900000000  0.5295360000000 1.0
C      1  0.4974110000000  0.4193070000000  0.4758400000000 1.0
C      1  0.4406630000000  0.4178850000000  0.5341040000000 1.0
C      1  0.5657270000000  0.4258470000000  0.4631900000000 1.0
C      1  0.5225300000000  0.4286690000000  0.4913320000000 1.0
C      1  0.4866720000000  0.4210180000000  0.5081060000000 1.0
C      1  0.4878220000000  0.4496230000000  0.4623020000000 1.0
C      1  0.5131640000000  0.4574760000000  0.5337290000000 1.0
C      1  0.4112830000000  0.4866660000000  0.4805160000000 1.0
C      1  0.5916070000000  0.4860770000000  0.5216310000000 1.0
C      1  0.5443890000000  0.5112590000000  0.4972460000000 1.0
C      1  0.4553400000000  0.5086150000000  0.5043400000000 1.0
C      1  0.4528890000000  0.4533150000000  0.5208250000000 1.0
C      1  0.5571210000000  0.4648350000000  0.4630780000000 1.0
C      1  0.5291800000000  0.4784710000000  0.6105590000000 1.0
C      1  0.4798440000000  0.4757170000000  0.3821070000000 1.0
C      1  0.5435490000000  0.4230120000000  0.4445710000000 1.0
C      1  0.4660970000000  0.4267820000000  0.5547600000000 1.0
C      1  0.5528380000000  0.5389170000000  0.5650320000000 1.0
C      1  0.4575270000000  0.5427030000000  0.4359910000000 1.0
C      1  0.5934680000000  0.4658590000000  0.4980240000000 1.0
C      1  0.4064730000000  0.4630020000000  0.4990880000000 1.0
C      1  0.6100170000000  0.5387110000000  0.5243180000000 1.0
C      1  0.3945620000000  0.5347970000000  0.4756840000000 1.0
C      1  0.5240660000000  0.5071930000000  0.4155610000000 1.0
C      1  0.4844500000000  0.5217530000000  0.5750850000000 1.0
C      1  0.5459690000000  0.5961270000000  0.5080140000000 1.0
C      1  0.4480660000000  0.6014910000000  0.4955820000000 1.0
C      1  0.5696630000000  0.4464480000000  0.5126330000000 1.0
C      1  0.4140220000000  0.4363940000000  0.4837740000000 1.0
C      1  0.3983150000000  0.5108470000000  0.4931470000000 1.0
C      1  0.5961060000000  0.5150650000000  0.5123830000000 1.0
C      1  0.5102180000000  0.5262830000000  0.5926010000000 1.0
C      1  0.4983550000000  0.5186470000000  0.4060970000000 1.0
C      1  0.4457410000000  0.4822510000000  0.5328340000000 1.0
C      1  0.5387460000000  0.4911550000000  0.4714650000000 1.0
C      1  0.4208310000000  0.5528500000000  0.5165790000000 1.0
C      1  0.5797950000000  0.5562280000000  0.4870800000000 1.0
C      1  0.4887430000000  0.4520760000000  0.5568120000000 1.0
C      1  0.4933470000000  0.4286060000000  0.4373390000000 1.0
C      1  0.5223010000000  0.4533860000000  0.4139110000000 1.0
C      1  0.4772800000000  0.4588660000000  0.5941190000000 1.0
C      1  0.4488660000000  0.4587430000000  0.4186770000000 1.0
C      1  0.5430200000000  0.4612320000000  0.5632850000000 1.0
C      1  0.4762350000000  0.5909130000000  0.4408600000000 1.0
C      1  0.5287140000000  0.5772260000000  0.5469480000000 1.0
C      1  0.5857170000000  0.5237510000000  0.4647550000000 1.0
C      1  0.3963670000000  0.5103100000000  0.5256830000000 1.0
C      1  0.4000140000000  0.5581900000000  0.4901440000000 1.0
C      1  0.6014700000000  0.5624460000000  0.5122680000000 1.0
C      1  0.5465160000000  0.5572640000000  0.5172310000000 1.0
C      1  0.4546720000000  0.5661530000000  0.4784800000000 1.0
C      1  0.4326610000000  0.4474660000000  0.5475260000000 1.0
C      1  0.5844020000000  0.4504100000000  0.4507520000000 1.0
C      1  0.5035970000000  0.4466770000000  0.5874430000000 1.0
C      1  0.4967930000000  0.4409850000000  0.4122180000000 1.0
C      1  0.4998390000000  0.5017050000000  0.5013280000000 1.0
END
