TITL C-2622955-8511-563 0.00594701282889163 125000 -967.68022392228 0 0 170 (C1) n - 1
REM
REM in /nfs/bkarasulu/CARBON/AIRSS/Generating-Clusters/AIREBO/with-SteepDescent/Higher-Symm/SD-CG/HFTN-CG
REM
REM
REM
REM
REM
REM ./C.cell (b20cbc046b6831c77cfcea5457e17084)
REM
REM compiler GCC version 9.2.1 20190827 (Red Hat 9.2.1-1)
REM options -cpp -mtune=generic -march=x86-64 -g -O0 -fpre-include=/usr/include/finclude/math-vector-fortran.h
REM seed 1017183224 485599003 -2043720722 1419170300 -1280818050 2003690440 -1707601759 853140254 -1376796587 245469323 2065608152 1352508712 1064128889 -1027892124 -1057494014 291361 -1434158659 -46305183 -1472069148 -444710702 -111961891 -1800089646 -1296383213 -631467323 540736430 592405706 -1210310192 1203484062 -964412147 1158598745 -997070616 25124357 -838865455
REM
CELL 1.54180   50.00000   50.00000   50.00000   90.00000   90.00000   90.00000
LATT -1
SFAC C  
C      1  0.5839620000000  0.4772600000000  0.4731590000000 1.0
C      1  0.4105250000000  0.5118460000000  0.4658710000000 1.0
C      1  0.5937700000000  0.5315330000000  0.4997330000000 1.0
C      1  0.4045060000000  0.5204320000000  0.5280780000000 1.0
C      1  0.5871210000000  0.4894560000000  0.5317680000000 1.0
C      1  0.4094030000000  0.4661300000000  0.5087010000000 1.0
C      1  0.4792860000000  0.5319430000000  0.5965000000000 1.0
C      1  0.5114060000000  0.4376550000000  0.5742420000000 1.0
C      1  0.4893400000000  0.4092860000000  0.4849960000000 1.0
C      1  0.5195670000000  0.4701070000000  0.4022400000000 1.0
C      1  0.4880420000000  0.5599660000000  0.4274720000000 1.0
C      1  0.5133390000000  0.5902860000000  0.5144550000000 1.0
C      1  0.4874510000000  0.4693670000000  0.4397720000000 1.0
C      1  0.5135850000000  0.5281510000000  0.4496480000000 1.0
C      1  0.4870020000000  0.5534990000000  0.4984790000000 1.0
C      1  0.5155990000000  0.5274200000000  0.5556280000000 1.0
C      1  0.4894590000000  0.4627370000000  0.5522750000000 1.0
C      1  0.5179700000000  0.4430150000000  0.5013940000000 1.0
C      1  0.5191640000000  0.5794320000000  0.4431140000000 1.0
C      1  0.4819780000000  0.5869240000000  0.5387480000000 1.0
C      1  0.5118630000000  0.5095310000000  0.6016610000000 1.0
C      1  0.4826190000000  0.4150210000000  0.5585250000000 1.0
C      1  0.5191260000000  0.4115120000000  0.4586980000000 1.0
C      1  0.4861830000000  0.4918110000000  0.3988860000000 1.0
C      1  0.5196270000000  0.4679950000000  0.5626520000000 1.0
C      1  0.4867500000000  0.4346130000000  0.5056140000000 1.0
C      1  0.5183740000000  0.4662420000000  0.4462700000000 1.0
C      1  0.4839620000000  0.5287530000000  0.4398410000000 1.0
C      1  0.5161080000000  0.5640360000000  0.4950500000000 1.0
C      1  0.4823000000000  0.5338130000000  0.5523780000000 1.0
C      1  0.5678480000000  0.4821040000000  0.4206860000000 1.0
C      1  0.4170220000000  0.5623220000000  0.4404860000000 1.0
C      1  0.5846610000000  0.5803930000000  0.5270820000000 1.0
C      1  0.4332240000000  0.5195210000000  0.5812660000000 1.0
C      1  0.5888170000000  0.4405720000000  0.5595370000000 1.0
C      1  0.4223620000000  0.4202330000000  0.4749140000000 1.0
C      1  0.4067310000000  0.4802410000000  0.4324710000000 1.0
C      1  0.5887700000000  0.5463780000000  0.4558650000000 1.0
C      1  0.4112570000000  0.5649280000000  0.5157530000000 1.0
C      1  0.5927510000000  0.5179030000000  0.5699940000000 1.0
C      1  0.4089900000000  0.4504340000000  0.5538300000000 1.0
C      1  0.5903870000000  0.4319530000000  0.4832660000000 1.0
C      1  0.4383400000000  0.5464510000000  0.4303940000000 1.0
C      1  0.5643430000000  0.5788350000000  0.5039800000000 1.0
C      1  0.4574400000000  0.5403550000000  0.5747100000000 1.0
C      1  0.5676490000000  0.4605220000000  0.5697040000000 1.0
C      1  0.4427700000000  0.4238400000000  0.4936450000000 1.0
C      1  0.5431240000000  0.4604500000000  0.4236760000000 1.0
C      1  0.5515320000000  0.5606990000000  0.4572270000000 1.0
C      1  0.4494140000000  0.5671240000000  0.5266960000000 1.0
C      1  0.5534910000000  0.5086120000000  0.5742450000000 1.0
C      1  0.4501940000000  0.4410950000000  0.5442430000000 1.0
C      1  0.5511330000000  0.4369320000000  0.4799160000000 1.0
C      1  0.4477010000000  0.4920480000000  0.4291140000000 1.0
C      1  0.4482280000000  0.5957340000000  0.5088910000000 1.0
C      1  0.5555960000000  0.5364560000000  0.5891710000000 1.0
C      1  0.4461700000000  0.4425880000000  0.5777280000000 1.0
C      1  0.5552890000000  0.4062410000000  0.4921400000000 1.0
C      1  0.4442820000000  0.4630930000000  0.4116210000000 1.0
C      1  0.5560490000000  0.5615500000000  0.4262530000000 1.0
C      1  0.5797640000000  0.4901800000000  0.5817010000000 1.0
C      1  0.4200450000000  0.4262900000000  0.5389600000000 1.0
C      1  0.5724600000000  0.4319880000000  0.4563530000000 1.0
C      1  0.4182760000000  0.5028150000000  0.4159140000000 1.0
C      1  0.5772770000000  0.5707700000000  0.4735850000000 1.0
C      1  0.4227860000000  0.5677100000000  0.5449490000000 1.0
C      1  0.6002430000000  0.4584850000000  0.4912150000000 1.0
C      1  0.3961770000000  0.4857380000000  0.4595330000000 1.0
C      1  0.5994490000000  0.5253790000000  0.4719730000000 1.0
C      1  0.3990470000000  0.5400210000000  0.5087220000000 1.0
C      1  0.6037570000000  0.5129190000000  0.5429970000000 1.0
C      1  0.3975230000000  0.4717790000000  0.5370730000000 1.0
C      1  0.4577250000000  0.5419570000000  0.4542080000000 1.0
C      1  0.5425060000000  0.5569830000000  0.5139720000000 1.0
C      1  0.4667410000000  0.5061190000000  0.5469650000000 1.0
C      1  0.5462850000000  0.4605540000000  0.5460530000000 1.0
C      1  0.4632830000000  0.4501830000000  0.4865530000000 1.0
C      1  0.5234280000000  0.4961980000000  0.4558770000000 1.0
C      1  0.5556180000000  0.5958890000000  0.4757410000000 1.0
C      1  0.4448220000000  0.5677150000000  0.5663500000000 1.0
C      1  0.5539080000000  0.4756790000000  0.5968660000000 1.0
C      1  0.4402280000000  0.4116140000000  0.5195800000000 1.0
C      1  0.5561200000000  0.4321180000000  0.4327530000000 1.0
C      1  0.4385030000000  0.5258400000000  0.4101750000000 1.0
C      1  0.5209530000000  0.5550290000000  0.4649590000000 1.0
C      1  0.4788160000000  0.5556760000000  0.5294970000000 1.0
C      1  0.5237590000000  0.4995180000000  0.5733120000000 1.0
C      1  0.4795480000000  0.4374420000000  0.5349570000000 1.0
C      1  0.5225990000000  0.4420770000000  0.4683680000000 1.0
C      1  0.4774380000000  0.5000330000000  0.4290220000000 1.0
C      1  0.4365920000000  0.4673460000000  0.5303680000000 1.0
C      1  0.5605240000000  0.4621200000000  0.4925930000000 1.0
C      1  0.4360910000000  0.4871760000000  0.4603710000000 1.0
C      1  0.5500810000000  0.5278280000000  0.4658040000000 1.0
C      1  0.4466360000000  0.5422480000000  0.5044760000000 1.0
C      1  0.5638120000000  0.5113590000000  0.5433520000000 1.0
C      1  0.5543500000000  0.4943400000000  0.4698970000000 1.0
C      1  0.4405920000000  0.5232960000000  0.4768900000000 1.0
C      1  0.5606060000000  0.5332920000000  0.5036080000000 1.0
C      1  0.4376710000000  0.5133650000000  0.5305950000000 1.0
C      1  0.5563420000000  0.4789370000000  0.5218460000000 1.0
C      1  0.4377110000000  0.4722030000000  0.4908630000000 1.0
C      1  0.4615990000000  0.5151070000000  0.3956390000000 1.0
C      1  0.5382730000000  0.6009260000000  0.4554140000000 1.0
C      1  0.4626000000000  0.5885720000000  0.5630450000000 1.0
C      1  0.5334420000000  0.4869000000000  0.6100760000000 1.0
C      1  0.4620750000000  0.4014850000000  0.5357860000000 1.0
C      1  0.5378000000000  0.4112410000000  0.4335980000000 1.0
C      1  0.5141670000000  0.5889120000000  0.5449170000000 1.0
C      1  0.4803040000000  0.5033150000000  0.6046110000000 1.0
C      1  0.5157020000000  0.4140430000000  0.5563110000000 1.0
C      1  0.4868640000000  0.4104860000000  0.4544740000000 1.0
C      1  0.5174830000000  0.4980780000000  0.3919160000000 1.0
C      1  0.4872600000000  0.5864310000000  0.4425700000000 1.0
C      1  0.5810470000000  0.5027490000000  0.4330750000000 1.0
C      1  0.4120510000000  0.5608070000000  0.4682470000000 1.0
C      1  0.5908650000000  0.5573790000000  0.5398350000000 1.0
C      1  0.4198180000000  0.4993100000000  0.5692020000000 1.0
C      1  0.5925280000000  0.4397580000000  0.5327470000000 1.0
C      1  0.4121840000000  0.4430010000000  0.4631640000000 1.0
C      1  0.5158250000000  0.3951760000000  0.4886190000000 1.0
C      1  0.4922710000000  0.4583470000000  0.4004980000000 1.0
C      1  0.5139620000000  0.5654950000000  0.4123280000000 1.0
C      1  0.4871160000000  0.6047590000000  0.5100380000000 1.0
C      1  0.5067060000000  0.5430630000000  0.5987490000000 1.0
C      1  0.4847200000000  0.4334490000000  0.5874030000000 1.0
C      1  0.4007820000000  0.4983200000000  0.5472380000000 1.0
C      1  0.5998350000000  0.4634630000000  0.5190080000000 1.0
C      1  0.3999180000000  0.4641000000000  0.4775470000000 1.0
C      1  0.5952360000000  0.5004100000000  0.4576640000000 1.0
C      1  0.4006550000000  0.5374520000000  0.4800200000000 1.0
C      1  0.6043050000000  0.5356800000000  0.5261080000000 1.0
C      1  0.5299390000000  0.4103430000000  0.5338260000000 1.0
C      1  0.4752940000000  0.4282610000000  0.4376670000000 1.0
C      1  0.5279440000000  0.5218930000000  0.4005390000000 1.0
C      1  0.4734820000000  0.5906860000000  0.4653430000000 1.0
C      1  0.5266880000000  0.5719320000000  0.5618410000000 1.0
C      1  0.4713730000000  0.4798210000000  0.5946730000000 1.0
C      1  0.5032050000000  0.5049230000000  0.4803230000000 1.0
C      1  0.4917760000000  0.5229360000000  0.5029170000000 1.0
C      1  0.5080230000000  0.5154790000000  0.5278570000000 1.0
C      1  0.4884480000000  0.4904640000000  0.5259750000000 1.0
C      1  0.5060620000000  0.4733600000000  0.5046130000000 1.0
C      1  0.4825710000000  0.4780490000000  0.4836140000000 1.0
C      1  0.5729580000000  0.4267160000000  0.5123300000000 1.0
C      1  0.4308320000000  0.4584440000000  0.4425050000000 1.0
C      1  0.5662760000000  0.5305680000000  0.4358510000000 1.0
C      1  0.4332060000000  0.5713420000000  0.4905670000000 1.0
C      1  0.5705550000000  0.5412350000000  0.5590090000000 1.0
C      1  0.4337560000000  0.4714100000000  0.5640140000000 1.0
C      1  0.4635280000000  0.5648760000000  0.4765580000000 1.0
C      1  0.5400080000000  0.5493230000000  0.5464220000000 1.0
C      1  0.4665650000000  0.4803350000000  0.5644590000000 1.0
C      1  0.5423220000000  0.4362690000000  0.5225590000000 1.0
C      1  0.4623550000000  0.4512040000000  0.4530040000000 1.0
C      1  0.5354630000000  0.5215140000000  0.4273910000000 1.0
C      1  0.5198900000000  0.5647850000000  0.5881280000000 1.0
C      1  0.4743610000000  0.4533230000000  0.6038960000000 1.0
C      1  0.5259080000000  0.3905770000000  0.5140940000000 1.0
C      1  0.4809230000000  0.4354970000000  0.4110680000000 1.0
C      1  0.5231770000000  0.5485200000000  0.3924080000000 1.0
C      1  0.4767200000000  0.6104550000000  0.4850300000000 1.0
C      1  0.4644950000000  0.5004470000000  0.4721910000000 1.0
C      1  0.5320950000000  0.5180570000000  0.4930300000000 1.0
C      1  0.4635980000000  0.5163090000000  0.5087780000000 1.0
C      1  0.5377410000000  0.5079050000000  0.5243800000000 1.0
C      1  0.4587140000000  0.4834790000000  0.5151130000000 1.0
C      1  0.5322970000000  0.4782970000000  0.4902080000000 1.0
C      1  0.5677580000000  0.5018650000000  0.4994670000000 1.0
C      1  0.4272570000000  0.5030280000000  0.5007140000000 1.0
END
