TITL C-2622959-7779-312 -0.00149630902596798 125000 -515.540219511925 0 0 100 (C1) n - 1
REM
REM in /nfs/bkarasulu/CARBON/AIRSS/Generating-Clusters/AIREBO/with-SteepDescent/Higher-Symm/SD-CG/HFTN-CG
REM
REM
REM
REM
REM
REM ./C.cell (b20cbc046b6831c77cfcea5457e17084)
REM
REM compiler GCC version 9.2.1 20190827 (Red Hat 9.2.1-1)
REM options -cpp -mtune=generic -march=x86-64 -g -O0 -fpre-include=/usr/include/finclude/math-vector-fortran.h
REM seed 1593721416 -897694157 -769891681 -2014697268 -955365971 589310027 1368350092 857330409 541940864 -1533882051 -1389471393 995659613 714528570 -844725470 -118230077 1094326715 -1488163740 -1564272164 1545698529 244988896 -1416807908 183129165 2110791952 -910646551 -262049428 40118925 -1658250567 1829858459 -1307091527 -512734131 1558741240 990485344 266144914
REM
CELL 1.54180   50.00000   50.00000   50.00000   90.00000   90.00000   90.00000
LATT -1
SFAC C  
C      1  0.5828260000000  0.4325850000000  0.5042040000000 1.0
C      1  0.4176460000000  0.5688050000000  0.4988180000000 1.0
C      1  0.5627700000000  0.4826690000000  0.4435740000000 1.0
C      1  0.4347120000000  0.5153510000000  0.5580860000000 1.0
C      1  0.4635760000000  0.5122370000000  0.5588440000000 1.0
C      1  0.5337960000000  0.4861570000000  0.4440570000000 1.0
C      1  0.5730720000000  0.4562750000000  0.5176030000000 1.0
C      1  0.4267480000000  0.5457860000000  0.4834050000000 1.0
C      1  0.5520260000000  0.4109850000000  0.4568460000000 1.0
C      1  0.4465980000000  0.5868550000000  0.5493150000000 1.0
C      1  0.5002060000000  0.4826460000000  0.5509780000000 1.0
C      1  0.5000960000000  0.5199170000000  0.4500270000000 1.0
C      1  0.4623810000000  0.5132160000000  0.5067410000000 1.0
C      1  0.5367760000000  0.4862170000000  0.4942850000000 1.0
C      1  0.4556080000000  0.4478960000000  0.6023760000000 1.0
C      1  0.5436920000000  0.5538950000000  0.3949950000000 1.0
C      1  0.5183310000000  0.4708560000000  0.5261820000000 1.0
C      1  0.4802280000000  0.5305920000000  0.4754750000000 1.0
C      1  0.4491030000000  0.4735580000000  0.5318560000000 1.0
C      1  0.5501110000000  0.5252290000000  0.4683750000000 1.0
C      1  0.5313760000000  0.5485510000000  0.4182700000000 1.0
C      1  0.4699300000000  0.4485220000000  0.5797830000000 1.0
C      1  0.4420230000000  0.4924950000000  0.4420480000000 1.0
C      1  0.5576110000000  0.5112490000000  0.5580850000000 1.0
C      1  0.4691440000000  0.5664240000000  0.4889090000000 1.0
C      1  0.5273590000000  0.4324710000000  0.5204730000000 1.0
C      1  0.5864640000000  0.5526290000000  0.5416850000000 1.0
C      1  0.4124720000000  0.4507640000000  0.4557860000000 1.0
C      1  0.4686000000000  0.4822740000000  0.4229920000000 1.0
C      1  0.5308330000000  0.5219650000000  0.5766720000000 1.0
C      1  0.5609680000000  0.5365220000000  0.5373250000000 1.0
C      1  0.4381190000000  0.4662630000000  0.4613350000000 1.0
C      1  0.5810120000000  0.4949330000000  0.5517300000000 1.0
C      1  0.4187320000000  0.5086570000000  0.4487050000000 1.0
C      1  0.4282650000000  0.5345090000000  0.5371440000000 1.0
C      1  0.5700540000000  0.4644420000000  0.4648210000000 1.0
C      1  0.4960810000000  0.4961710000000  0.6151920000000 1.0
C      1  0.5098970000000  0.4955010000000  0.3819960000000 1.0
C      1  0.5134140000000  0.5924270000000  0.5032000000000 1.0
C      1  0.4882600000000  0.4109780000000  0.4922480000000 1.0
C      1  0.4907250000000  0.5553780000000  0.4327770000000 1.0
C      1  0.5169830000000  0.4423360000000  0.5548800000000 1.0
C      1  0.5306410000000  0.4912260000000  0.5633600000000 1.0
C      1  0.4693780000000  0.5120240000000  0.4377070000000 1.0
C      1  0.4924920000000  0.4206100000000  0.5456800000000 1.0
C      1  0.5077020000000  0.5763480000000  0.4518380000000 1.0
C      1  0.5071850000000  0.4444190000000  0.4175890000000 1.0
C      1  0.4931560000000  0.5491090000000  0.5864310000000 1.0
C      1  0.4761940000000  0.4770410000000  0.4557250000000 1.0
C      1  0.5231650000000  0.5252040000000  0.5436950000000 1.0
C      1  0.5477940000000  0.5522340000000  0.4633430000000 1.0
C      1  0.4516220000000  0.4461170000000  0.5355300000000 1.0
C      1  0.5079660000000  0.5990830000000  0.4771190000000 1.0
C      1  0.4943440000000  0.4026710000000  0.5173760000000 1.0
C      1  0.4752550000000  0.4151700000000  0.4656510000000 1.0
C      1  0.5267450000000  0.5882640000000  0.5299000000000 1.0
C      1  0.4947170000000  0.4631930000000  0.5755880000000 1.0
C      1  0.5107830000000  0.5269670000000  0.4208620000000 1.0
C      1  0.4955700000000  0.4925880000000  0.5891270000000 1.0
C      1  0.5093930000000  0.5005530000000  0.4076320000000 1.0
C      1  0.4527920000000  0.5490880000000  0.4676030000000 1.0
C      1  0.5473750000000  0.4541760000000  0.5321130000000 1.0
C      1  0.4753350000000  0.5428570000000  0.5600090000000 1.0
C      1  0.5231340000000  0.4547950000000  0.4445450000000 1.0
C      1  0.4680880000000  0.5462250000000  0.5125940000000 1.0
C      1  0.5314080000000  0.4525850000000  0.4932480000000 1.0
C      1  0.4637510000000  0.4468740000000  0.4629310000000 1.0
C      1  0.5351240000000  0.5555960000000  0.5342260000000 1.0
C      1  0.4796780000000  0.4443510000000  0.4923740000000 1.0
C      1  0.5176430000000  0.5584510000000  0.5052020000000 1.0
C      1  0.5335780000000  0.5012270000000  0.5246530000000 1.0
C      1  0.4657190000000  0.4998240000000  0.4756230000000 1.0
C      1  0.4315490000000  0.5231740000000  0.5071670000000 1.0
C      1  0.5683590000000  0.4779690000000  0.4937940000000 1.0
C      1  0.4982060000000  0.5188380000000  0.5675840000000 1.0
C      1  0.5012940000000  0.4768790000000  0.4306660000000 1.0
C      1  0.4985430000000  0.5602320000000  0.4771290000000 1.0
C      1  0.4966260000000  0.4434160000000  0.5215480000000 1.0
C      1  0.4666740000000  0.5427990000000  0.4399950000000 1.0
C      1  0.5389970000000  0.4615220000000  0.5621830000000 1.0
C      1  0.4657310000000  0.4335690000000  0.5561950000000 1.0
C      1  0.5338110000000  0.5631020000000  0.4419390000000 1.0
C      1  0.5833360000000  0.4870080000000  0.5230780000000 1.0
C      1  0.4165690000000  0.5150580000000  0.4775980000000 1.0
C      1  0.5635960000000  0.5110470000000  0.5156810000000 1.0
C      1  0.4355770000000  0.4902670000000  0.4848810000000 1.0
C      1  0.5440090000000  0.4426250000000  0.4663770000000 1.0
C      1  0.4548910000000  0.5556080000000  0.5387730000000 1.0
C      1  0.4738100000000  0.4941140000000  0.5324630000000 1.0
C      1  0.5249410000000  0.5055720000000  0.4689150000000 1.0
C      1  0.4253810000000  0.5677670000000  0.5270200000000 1.0
C      1  0.5746980000000  0.4316040000000  0.4760460000000 1.0
C      1  0.4970130000000  0.5363920000000  0.5116340000000 1.0
C      1  0.5033550000000  0.4650450000000  0.4887770000000 1.0
C      1  0.5685850000000  0.5184340000000  0.4866260000000 1.0
C      1  0.4307260000000  0.4811580000000  0.5135520000000 1.0
C      1  0.5027070000000  0.5126800000000  0.4936400000000 1.0
C      1  0.4960310000000  0.4883300000000  0.5073790000000 1.0
C      1  0.5458480000000  0.5659060000000  0.4877390000000 1.0
C      1  0.4527890000000  0.4338280000000  0.5102510000000 1.0
END
