TITL C-2622967-6265-794 0.049560772471504 125000 -326.532324665984 0 0 59 (C1) n - 1
REM
REM in /nfs/bkarasulu/CARBON/AIRSS/Generating-Clusters/AIREBO/with-SteepDescent/Higher-Symm/SD-CG/HFTN-CG
REM
REM
REM
REM
REM
REM ./C.cell (b20cbc046b6831c77cfcea5457e17084)
REM
REM compiler GCC version 9.2.1 20190827 (Red Hat 9.2.1-1)
REM options -cpp -mtune=generic -march=x86-64 -g -O0 -fpre-include=/usr/include/finclude/math-vector-fortran.h
REM seed -1126131510 -1993935192 1035867630 59297497 1012489760 -993854618 1093005462 1831220290 1651644677 1378015698 1022990251 -1042113253 -269149915 1179138153 -1905005315 -1373153846 -1229402503 1285689422 -1350743742 -2030760265 -149195922 -1988719352 -1376392228 142140300 -186143505 -1632276228 -521179875 1662465688 944624165 2061444810 -1775296058 325286121 219987558
REM
CELL 1.54180   50.00000   50.00000   50.00000   90.00000   90.00000   90.00000
LATT -1
SFAC C  
C      1  0.4772240000000  0.4566290000000  0.4632840000000 1.0
C      1  0.5014470000000  0.4432300000000  0.4725050000000 1.0
C      1  0.5283420000000  0.4522100000000  0.4657150000000 1.0
C      1  0.5354740000000  0.4755460000000  0.4503960000000 1.0
C      1  0.5473320000000  0.5011280000000  0.4565470000000 1.0
C      1  0.5347930000000  0.5269120000000  0.4540780000000 1.0
C      1  0.5074560000000  0.5442600000000  0.4650840000000 1.0
C      1  0.4797890000000  0.5432970000000  0.4709810000000 1.0
C      1  0.4558560000000  0.5221880000000  0.4715370000000 1.0
C      1  0.4460400000000  0.4953310000000  0.4752120000000 1.0
C      1  0.4514060000000  0.4698830000000  0.4610470000000 1.0
C      1  0.5577160000000  0.5052440000000  0.5094680000000 1.0
C      1  0.5321530000000  0.5191210000000  0.5138520000000 1.0
C      1  0.5161320000000  0.5480560000000  0.5095570000000 1.0
C      1  0.4855590000000  0.5469540000000  0.5103250000000 1.0
C      1  0.4602920000000  0.5308520000000  0.5261990000000 1.0
C      1  0.4534740000000  0.5002680000000  0.5262160000000 1.0
C      1  0.4739300000000  0.4831200000000  0.5408410000000 1.0
C      1  0.4956400000000  0.4730970000000  0.5257570000000 1.0
C      1  0.5110030000000  0.4504530000000  0.5186980000000 1.0
C      1  0.5385590000000  0.4549530000000  0.5151270000000 1.0
C      1  0.5579840000000  0.4779140000000  0.5263840000000 1.0
C      1  0.3930430000000  0.4341810000000  0.4178520000000 1.0
C      1  0.4994310000000  0.4324060000000  0.4993490000000 1.0
C      1  0.5495510000000  0.4450260000000  0.4864720000000 1.0
C      1  0.5698230000000  0.4698010000000  0.4955110000000 1.0
C      1  0.5671660000000  0.4979820000000  0.4782290000000 1.0
C      1  0.5462790000000  0.5524290000000  0.4648350000000 1.0
C      1  0.5255880000000  0.5647970000000  0.4852270000000 1.0
C      1  0.4697100000000  0.5685060000000  0.4899270000000 1.0
C      1  0.4489830000000  0.5427850000000  0.4964360000000 1.0
C      1  0.4348440000000  0.4918620000000  0.5001010000000 1.0
C      1  0.4313940000000  0.4586230000000  0.4454720000000 1.0
C      1  0.5552630000000  0.4920770000000  0.5530210000000 1.0
C      1  0.5499240000000  0.5186120000000  0.5496780000000 1.0
C      1  0.5287050000000  0.5411730000000  0.5395290000000 1.0
C      1  0.5111820000000  0.5545290000000  0.5606290000000 1.0
C      1  0.4840480000000  0.5562010000000  0.5620820000000 1.0
C      1  0.4635430000000  0.5379230000000  0.5562340000000 1.0
C      1  0.4619210000000  0.5151110000000  0.5733880000000 1.0
C      1  0.4781850000000  0.4925830000000  0.5670830000000 1.0
C      1  0.4945070000000  0.4787290000000  0.5850740000000 1.0
C      1  0.5207730000000  0.4714170000000  0.5844560000000 1.0
C      1  0.5453480000000  0.4790160000000  0.5755580000000 1.0
C      1  0.4653820000000  0.5950370000000  0.4886260000000 1.0
C      1  0.4195760000000  0.5510760000000  0.4970360000000 1.0
C      1  0.4214500000000  0.4887140000000  0.5281400000000 1.0
C      1  0.4114050000000  0.4465200000000  0.4326910000000 1.0
C      1  0.3740330000000  0.4210890000000  0.4054310000000 1.0
C      1  0.4868650000000  0.4094910000000  0.5055280000000 1.0
C      1  0.5611450000000  0.4197810000000  0.4840860000000 1.0
C      1  0.5988360000000  0.4598370000000  0.4959960000000 1.0
C      1  0.5843280000000  0.5203120000000  0.4973800000000 1.0
C      1  0.5712400000000  0.5623670000000  0.4603190000000 1.0
C      1  0.5251490000000  0.5923940000000  0.4872470000000 1.0
C      1  0.4963700000000  0.4920870000000  0.4570480000000 1.0
C      1  0.5084100000000  0.4981520000000  0.5115310000000 1.0
C      1  0.5007210000000  0.4955080000000  0.4823680000000 1.0
C      1  0.5061090000000  0.5080500000000  0.5417090000000 1.0
END
