TITL C-2622964-2985-787 -0.000918637710757503 125000 -467.839107820815 0 0 84 (C1) n - 1
REM
REM in /nfs/bkarasulu/CARBON/AIRSS/Generating-Clusters/AIREBO/with-SteepDescent/Higher-Symm/SD-CG/HFTN-CG
REM
REM
REM
REM
REM
REM ./C.cell (b20cbc046b6831c77cfcea5457e17084)
REM
REM compiler GCC version 9.2.1 20190827 (Red Hat 9.2.1-1)
REM options -cpp -mtune=generic -march=x86-64 -g -O0 -fpre-include=/usr/include/finclude/math-vector-fortran.h
REM seed 1754112192 639458363 -1924841157 359212248 -827226698 -414637443 -237852084 450833067 1093386034 -1722486452 -1805036399 -899729737 1708946306 1722823160 1645529551 523598154 1762726956 -1885744650 -1829627890 -1085081025 448096121 -766719874 327133605 833839974 -1851131973 -1147916040 1031357383 532575991 -1522534888 -1412000309 107608127 1560338850 -723648727
REM
CELL 1.54180   50.00000   50.00000   50.00000   90.00000   90.00000   90.00000
LATT -1
SFAC C  
C      1  0.5112220000000  0.5411720000000  0.5719240000000 1.0
C      1  0.5221300000000  0.4575930000000  0.5733180000000 1.0
C      1  0.4628410000000  0.4933350000000  0.5712010000000 1.0
C      1  0.5137800000000  0.4521300000000  0.4327980000000 1.0
C      1  0.5271170000000  0.5276460000000  0.4276480000000 1.0
C      1  0.4595620000000  0.5103340000000  0.4297330000000 1.0
C      1  0.5580520000000  0.5129030000000  0.5327920000000 1.0
C      1  0.4877850000000  0.4332900000000  0.5345390000000 1.0
C      1  0.4552780000000  0.5469560000000  0.5372210000000 1.0
C      1  0.5672090000000  0.4692990000000  0.4661530000000 1.0
C      1  0.4905410000000  0.5684990000000  0.4593360000000 1.0
C      1  0.4484530000000  0.4570510000000  0.4706760000000 1.0
C      1  0.5349250000000  0.5715710000000  0.5145290000000 1.0
C      1  0.5410220000000  0.4118290000000  0.5303210000000 1.0
C      1  0.4140670000000  0.5188470000000  0.5391900000000 1.0
C      1  0.5637080000000  0.4193390000000  0.4681860000000 1.0
C      1  0.5290590000000  0.5974850000000  0.4730770000000 1.0
C      1  0.4120770000000  0.4912510000000  0.4691320000000 1.0
C      1  0.4126490000000  0.4649940000000  0.5065090000000 1.0
C      1  0.4919290000000  0.5947860000000  0.5021330000000 1.0
C      1  0.5810460000000  0.4403480000000  0.5065470000000 1.0
C      1  0.4195320000000  0.5430620000000  0.5010370000000 1.0
C      1  0.5187760000000  0.4069070000000  0.4879510000000 1.0
C      1  0.5657270000000  0.5695120000000  0.5059560000000 1.0
C      1  0.4832710000000  0.5011280000000  0.4848040000000 1.0
C      1  0.5066970000000  0.5241830000000  0.4756920000000 1.0
C      1  0.5161710000000  0.4934070000000  0.4810320000000 1.0
C      1  0.4800990000000  0.5041410000000  0.5244360000000 1.0
C      1  0.4936630000000  0.4785520000000  0.5098850000000 1.0
C      1  0.5114750000000  0.5074690000000  0.5116450000000 1.0
C      1  0.4677080000000  0.5682260000000  0.4830390000000 1.0
C      1  0.5751340000000  0.4942250000000  0.4855960000000 1.0
C      1  0.4586590000000  0.4340800000000  0.4890060000000 1.0
C      1  0.4617010000000  0.4325400000000  0.5174220000000 1.0
C      1  0.5753930000000  0.4967520000000  0.5141180000000 1.0
C      1  0.4719560000000  0.5636930000000  0.5164770000000 1.0
C      1  0.4626690000000  0.4101920000000  0.4753650000000 1.0
C      1  0.4434900000000  0.5762020000000  0.4755620000000 1.0
C      1  0.5875440000000  0.5148960000000  0.4717110000000 1.0
C      1  0.4637990000000  0.5962880000000  0.5111990000000 1.0
C      1  0.4388950000000  0.4260190000000  0.5317920000000 1.0
C      1  0.5976270000000  0.4856190000000  0.5265700000000 1.0
C      1  0.4792640000000  0.4475020000000  0.5636730000000 1.0
C      1  0.4641370000000  0.5532610000000  0.5682780000000 1.0
C      1  0.5495000000000  0.4989360000000  0.5627010000000 1.0
C      1  0.4786340000000  0.5560240000000  0.4313630000000 1.0
C      1  0.4649910000000  0.4551410000000  0.4410230000000 1.0
C      1  0.5596980000000  0.4898000000000  0.4398700000000 1.0
C      1  0.4181760000000  0.4883550000000  0.5252250000000 1.0
C      1  0.5046180000000  0.5733360000000  0.5220820000000 1.0
C      1  0.5609470000000  0.4343980000000  0.5250880000000 1.0
C      1  0.4232450000000  0.5195200000000  0.4821580000000 1.0
C      1  0.5354820000000  0.4192980000000  0.4703710000000 1.0
C      1  0.5484350000000  0.5738350000000  0.4774440000000 1.0
C      1  0.5134760000000  0.4204130000000  0.5163080000000 1.0
C      1  0.4265880000000  0.5401230000000  0.5272210000000 1.0
C      1  0.5536590000000  0.5456680000000  0.5269790000000 1.0
C      1  0.5023850000000  0.5923720000000  0.4764860000000 1.0
C      1  0.4204250000000  0.4676660000000  0.4803880000000 1.0
C      1  0.5769690000000  0.4424810000000  0.4786140000000 1.0
C      1  0.5194490000000  0.4645650000000  0.4824150000000 1.0
C      1  0.4546370000000  0.5060640000000  0.4862190000000 1.0
C      1  0.5319810000000  0.5449990000000  0.4848250000000 1.0
C      1  0.5255070000000  0.5327620000000  0.5133440000000 1.0
C      1  0.4473910000000  0.5036110000000  0.5166450000000 1.0
C      1  0.5111940000000  0.4534970000000  0.5094000000000 1.0
C      1  0.4727310000000  0.5315960000000  0.4210520000000 1.0
C      1  0.5486960000000  0.5113060000000  0.4297130000000 1.0
C      1  0.4878830000000  0.4505750000000  0.4286360000000 1.0
C      1  0.4757710000000  0.4707650000000  0.5771190000000 1.0
C      1  0.5409200000000  0.4775890000000  0.5754060000000 1.0
C      1  0.4866290000000  0.5447890000000  0.5814400000000 1.0
C      1  0.5438830000000  0.5523340000000  0.4536150000000 1.0
C      1  0.5259130000000  0.4455250000000  0.4615050000000 1.0
C      1  0.4424550000000  0.5140710000000  0.4567790000000 1.0
C      1  0.5369310000000  0.4514300000000  0.5286690000000 1.0
C      1  0.5156060000000  0.5497570000000  0.5410820000000 1.0
C      1  0.4419260000000  0.4916370000000  0.5476890000000 1.0
C      1  0.5110310000000  0.5439290000000  0.4511130000000 1.0
C      1  0.5456230000000  0.4610360000000  0.4412040000000 1.0
C      1  0.4554010000000  0.4842290000000  0.4510160000000 1.0
C      1  0.5159460000000  0.4463620000000  0.5484300000000 1.0
C      1  0.5315750000000  0.5231100000000  0.5515310000000 1.0
C      1  0.4658530000000  0.5185860000000  0.5486250000000 1.0
END
