TITL C-2622968-4806-680 -0.0369646241143455 125000 -948.744759866684 0 0 173 (C1) n - 1
REM
REM in /nfs/bkarasulu/CARBON/AIRSS/Generating-Clusters/AIREBO/with-SteepDescent/Higher-Symm/SD-CG/HFTN-CG
REM
REM
REM
REM
REM
REM ./C.cell (b20cbc046b6831c77cfcea5457e17084)
REM
REM compiler GCC version 9.2.1 20190827 (Red Hat 9.2.1-1)
REM options -cpp -mtune=generic -march=x86-64 -g -O0 -fpre-include=/usr/include/finclude/math-vector-fortran.h
REM seed 775698957 1117018681 -593637590 154342607 -397164196 -1602644199 -652250744 -1521044990 265625218 -849280421 2127840792 -713079100 493787931 947937527 -496430268 -347680609 71188226 -1041471039 -2066963378 -1622219188 711875688 -1852818864 1151761978 876748033 892927350 -1381350695 1512776041 -55559836 371266164 -798255279 -782087647 941865651 -1839784364
REM
CELL 1.54180   50.00000   50.00000   50.00000   90.00000   90.00000   90.00000
LATT -1
SFAC C  
C      1  0.4616950000000  0.4826880000000  0.5205460000000 1.0
C      1  0.5026770000000  0.4827950000000  0.4600540000000 1.0
C      1  0.5372080000000  0.4865900000000  0.5260490000000 1.0
C      1  0.5440930000000  0.4107020000000  0.5696430000000 1.0
C      1  0.4228660000000  0.4151840000000  0.4944730000000 1.0
C      1  0.5331660000000  0.4193990000000  0.4283990000000 1.0
C      1  0.5213770000000  0.5290320000000  0.4428960000000 1.0
C      1  0.5380880000000  0.5279520000000  0.5417110000000 1.0
C      1  0.4411590000000  0.5310610000000  0.5107390000000 1.0
C      1  0.5633340000000  0.4239650000000  0.4645710000000 1.0
C      1  0.4866670000000  0.4063830000000  0.5678160000000 1.0
C      1  0.4414150000000  0.4187950000000  0.4461400000000 1.0
C      1  0.5447630000000  0.5714880000000  0.4594510000000 1.0
C      1  0.5153120000000  0.5756720000000  0.5494240000000 1.0
C      1  0.4480200000000  0.5794180000000  0.4902110000000 1.0
C      1  0.6087120000000  0.5360850000000  0.5091010000000 1.0
C      1  0.4453490000000  0.5240180000000  0.5943460000000 1.0
C      1  0.4517970000000  0.5367030000000  0.4170240000000 1.0
C      1  0.4909810000000  0.5351260000000  0.5230430000000 1.0
C      1  0.4742600000000  0.5441570000000  0.4766020000000 1.0
C      1  0.5273500000000  0.5346210000000  0.4933660000000 1.0
C      1  0.4933020000000  0.5653260000000  0.4652450000000 1.0
C      1  0.5370910000000  0.5645210000000  0.5035480000000 1.0
C      1  0.4826770000000  0.5664960000000  0.5250340000000 1.0
C      1  0.4624230000000  0.5224950000000  0.5358800000000 1.0
C      1  0.4679000000000  0.5196750000000  0.4557530000000 1.0
C      1  0.5534360000000  0.5229220000000  0.5117780000000 1.0
C      1  0.5164660000000  0.4293440000000  0.5179370000000 1.0
C      1  0.4757680000000  0.4255930000000  0.4991960000000 1.0
C      1  0.5069260000000  0.4251180000000  0.4855680000000 1.0
C      1  0.5689490000000  0.5649720000000  0.5413790000000 1.0
C      1  0.4196750000000  0.5400930000000  0.5521800000000 1.0
C      1  0.5030640000000  0.5426880000000  0.4082500000000 1.0
C      1  0.5370750000000  0.5271920000000  0.5904670000000 1.0
C      1  0.3937550000000  0.5278960000000  0.4768910000000 1.0
C      1  0.5699160000000  0.5133420000000  0.4266980000000 1.0
C      1  0.5043280000000  0.4504520000000  0.4630870000000 1.0
C      1  0.5331670000000  0.4556400000000  0.5261480000000 1.0
C      1  0.4596200000000  0.4514900000000  0.5130790000000 1.0
C      1  0.5664160000000  0.4968000000000  0.5292620000000 1.0
C      1  0.4414840000000  0.4963970000000  0.5419530000000 1.0
C      1  0.4825450000000  0.4939380000000  0.4389750000000 1.0
C      1  0.5900160000000  0.5428650000000  0.5524590000000 1.0
C      1  0.4146740000000  0.5114770000000  0.5349820000000 1.0
C      1  0.5079910000000  0.5089370000000  0.4067960000000 1.0
C      1  0.5528060000000  0.5457650000000  0.5667210000000 1.0
C      1  0.4140560000000  0.5459410000000  0.4962250000000 1.0
C      1  0.5480720000000  0.5362420000000  0.4241840000000 1.0
C      1  0.5714210000000  0.5481720000000  0.5157420000000 1.0
C      1  0.4520200000000  0.5463650000000  0.5566100000000 1.0
C      1  0.4888780000000  0.5375550000000  0.4370030000000 1.0
C      1  0.5500980000000  0.4661040000000  0.4454500000000 1.0
C      1  0.5149900000000  0.4461590000000  0.5735160000000 1.0
C      1  0.4285800000000  0.4565700000000  0.4732080000000 1.0
C      1  0.4972020000000  0.3955810000000  0.4721280000000 1.0
C      1  0.5273020000000  0.4014390000000  0.5261600000000 1.0
C      1  0.4790370000000  0.3972400000000  0.5177550000000 1.0
C      1  0.5651880000000  0.4389820000000  0.5588650000000 1.0
C      1  0.4228650000000  0.4346820000000  0.5224730000000 1.0
C      1  0.5105870000000  0.4371160000000  0.4117550000000 1.0
C      1  0.4098080000000  0.4643700000000  0.5675690000000 1.0
C      1  0.4790170000000  0.4714300000000  0.3851660000000 1.0
C      1  0.6051530000000  0.4772220000000  0.5574590000000 1.0
C      1  0.5719570000000  0.6040550000000  0.4930030000000 1.0
C      1  0.4653770000000  0.6047570000000  0.5588040000000 1.0
C      1  0.4616790000000  0.5956230000000  0.4351980000000 1.0
C      1  0.4750940000000  0.4585490000000  0.4767960000000 1.0
C      1  0.5311470000000  0.4560580000000  0.4922090000000 1.0
C      1  0.4871400000000  0.4522980000000  0.5323630000000 1.0
C      1  0.5191080000000  0.4560260000000  0.4354930000000 1.0
C      1  0.5389900000000  0.4561250000000  0.5583020000000 1.0
C      1  0.4287420000000  0.4622890000000  0.5037120000000 1.0
C      1  0.5223300000000  0.4996410000000  0.5520460000000 1.0
C      1  0.4427030000000  0.4997160000000  0.5021210000000 1.0
C      1  0.5290710000000  0.4991270000000  0.4559340000000 1.0
C      1  0.5501510000000  0.4050860000000  0.5417180000000 1.0
C      1  0.4432130000000  0.3928680000000  0.5005470000000 1.0
C      1  0.5154000000000  0.3971190000000  0.4433750000000 1.0
C      1  0.6010640000000  0.5177070000000  0.4852050000000 1.0
C      1  0.4718570000000  0.5233570000000  0.5892920000000 1.0
C      1  0.4357350000000  0.5157230000000  0.4247300000000 1.0
C      1  0.5166740000000  0.3695080000000  0.4622640000000 1.0
C      1  0.5071160000000  0.3837890000000  0.5225430000000 1.0
C      1  0.4705930000000  0.3877970000000  0.4876890000000 1.0
C      1  0.4809600000000  0.5892630000000  0.4165440000000 1.0
C      1  0.5722380000000  0.6091580000000  0.5200440000000 1.0
C      1  0.4405760000000  0.5989770000000  0.5565050000000 1.0
C      1  0.5633150000000  0.4373940000000  0.5066510000000 1.0
C      1  0.4647000000000  0.4005110000000  0.5457150000000 1.0
C      1  0.4703990000000  0.4146930000000  0.4339540000000 1.0
C      1  0.4855240000000  0.5815050000000  0.5546160000000 1.0
C      1  0.4636260000000  0.5805430000000  0.4639540000000 1.0
C      1  0.5625210000000  0.5753220000000  0.4859410000000 1.0
C      1  0.4978860000000  0.4529730000000  0.3896260000000 1.0
C      1  0.5885640000000  0.4569230000000  0.5644290000000 1.0
C      1  0.4102990000000  0.4460840000000  0.5480310000000 1.0
C      1  0.5163450000000  0.5856370000000  0.4519710000000 1.0
C      1  0.5279110000000  0.5887930000000  0.5238040000000 1.0
C      1  0.4556620000000  0.5859440000000  0.5219450000000 1.0
C      1  0.5316590000000  0.5703060000000  0.5740990000000 1.0
C      1  0.4195800000000  0.5735940000000  0.4847880000000 1.0
C      1  0.5605670000000  0.5619820000000  0.4351010000000 1.0
C      1  0.4947220000000  0.4798180000000  0.5508720000000 1.0
C      1  0.4554330000000  0.4861800000000  0.4736420000000 1.0
C      1  0.5488400000000  0.4803850000000  0.4763060000000 1.0
C      1  0.3686960000000  0.5384490000000  0.4705090000000 1.0
C      1  0.5914550000000  0.5171880000000  0.4087380000000 1.0
C      1  0.5354030000000  0.5390550000000  0.6184890000000 1.0
C      1  0.5878680000000  0.5549760000000  0.4898620000000 1.0
C      1  0.4738920000000  0.5590010000000  0.5715330000000 1.0
C      1  0.4605320000000  0.5560880000000  0.4410010000000 1.0
C      1  0.4606120000000  0.4706370000000  0.3648750000000 1.0
C      1  0.6304740000000  0.4800140000000  0.5676760000000 1.0
C      1  0.3909260000000  0.4649930000000  0.5874530000000 1.0
C      1  0.4146770000000  0.5766740000000  0.4578360000000 1.0
C      1  0.5884140000000  0.5607490000000  0.4388610000000 1.0
C      1  0.5164550000000  0.5666810000000  0.5972070000000 1.0
C      1  0.4846650000000  0.4602700000000  0.5768220000000 1.0
C      1  0.4420660000000  0.4717470000000  0.4458920000000 1.0
C      1  0.5748280000000  0.4640500000000  0.4909690000000 1.0
C      1  0.4674780000000  0.4273130000000  0.4662570000000 1.0
C      1  0.5409220000000  0.4240730000000  0.4860880000000 1.0
C      1  0.4957740000000  0.4242680000000  0.5420240000000 1.0
C      1  0.5682070000000  0.4252350000000  0.5304760000000 1.0
C      1  0.4419310000000  0.4076050000000  0.5282570000000 1.0
C      1  0.4951600000000  0.4109650000000  0.4230440000000 1.0
C      1  0.5351380000000  0.5224500000000  0.3980680000000 1.0
C      1  0.5830620000000  0.5387480000000  0.5805710000000 1.0
C      1  0.3967090000000  0.5278970000000  0.5167280000000 1.0
C      1  0.5018740000000  0.5728750000000  0.4239370000000 1.0
C      1  0.5573240000000  0.5918790000000  0.5349870000000 1.0
C      1  0.4335610000000  0.5701610000000  0.5424840000000 1.0
C      1  0.4126120000000  0.4904540000000  0.5083270000000 1.0
C      1  0.5237280000000  0.4879440000000  0.4250300000000 1.0
C      1  0.5426400000000  0.4835510000000  0.5704800000000 1.0
C      1  0.4269540000000  0.4452850000000  0.4348890000000 1.0
C      1  0.5852390000000  0.4382250000000  0.4734810000000 1.0
C      1  0.4825890000000  0.4300500000000  0.5903400000000 1.0
C      1  0.3929270000000  0.4989970000000  0.4893580000000 1.0
C      1  0.5563250000000  0.4873940000000  0.4222280000000 1.0
C      1  0.5502140000000  0.4989680000000  0.5914480000000 1.0
C      1  0.4618940000000  0.5522630000000  0.5019540000000 1.0
C      1  0.5217200000000  0.5491080000000  0.4665630000000 1.0
C      1  0.5191120000000  0.5503070000000  0.5291970000000 1.0
C      1  0.5944000000000  0.5415190000000  0.4618600000000 1.0
C      1  0.4937820000000  0.5463920000000  0.5924430000000 1.0
C      1  0.4266280000000  0.5550220000000  0.4438340000000 1.0
C      1  0.5781650000000  0.5149040000000  0.4550850000000 1.0
C      1  0.5081660000000  0.5227440000000  0.5731820000000 1.0
C      1  0.4165230000000  0.5315050000000  0.4559390000000 1.0
C      1  0.4850690000000  0.5022850000000  0.4779410000000 1.0
C      1  0.5280910000000  0.4949740000000  0.4989650000000 1.0
C      1  0.4921370000000  0.4890200000000  0.5182410000000 1.0
C      1  0.4259600000000  0.4287330000000  0.4711230000000 1.0
C      1  0.5522880000000  0.4345080000000  0.4414950000000 1.0
C      1  0.5173200000000  0.4181660000000  0.5750100000000 1.0
C      1  0.4368160000000  0.5098050000000  0.4568040000000 1.0
C      1  0.5680930000000  0.5068610000000  0.4855570000000 1.0
C      1  0.4796250000000  0.5083430000000  0.5615790000000 1.0
C      1  0.4572150000000  0.4727250000000  0.5839200000000 1.0
C      1  0.4473930000000  0.4891150000000  0.4208360000000 1.0
C      1  0.5949570000000  0.4817380000000  0.5059310000000 1.0
C      1  0.5026100000000  0.6013910000000  0.4787730000000 1.0
C      1  0.5093910000000  0.6068450000000  0.5095570000000 1.0
C      1  0.4787850000000  0.6012780000000  0.5022570000000 1.0
C      1  0.5967010000000  0.4956680000000  0.5352450000000 1.0
C      1  0.4325760000000  0.4836090000000  0.5691050000000 1.0
C      1  0.4772270000000  0.4945080000000  0.4054210000000 1.0
C      1  0.6027590000000  0.5262460000000  0.5344770000000 1.0
C      1  0.4284100000000  0.5157830000000  0.5743200000000 1.0
C      1  0.4734460000000  0.5280570000000  0.4013730000000 1.0
C      1  0.5018010000000  0.5145530000000  0.5014220000000 1.0
C      1  0.4987230000000  0.4611920000000  0.5011040000000 1.0
END
