TITL C-2622965-4321-819 0.0487049625994297 125000 -213.773654622543 0 0 38 (C1) n - 1
REM
REM in /nfs/bkarasulu/CARBON/AIRSS/Generating-Clusters/AIREBO/with-SteepDescent/Higher-Symm/SD-CG/HFTN-CG
REM
REM
REM
REM
REM
REM ./C.cell (b20cbc046b6831c77cfcea5457e17084)
REM
REM compiler GCC version 9.2.1 20190827 (Red Hat 9.2.1-1)
REM options -cpp -mtune=generic -march=x86-64 -g -O0 -fpre-include=/usr/include/finclude/math-vector-fortran.h
REM seed 1155065906 1546036083 742633409 -830195646 -1655484258 1195043064 -496670718 -468170731 -2141348227 -970828793 1301105002 -797564833 -608055919 806845249 1214134833 -2049623695 -2138840419 -732755707 -1598382270 480284079 -1368351040 -2082764337 -12148837 -2111502082 393136088 -1510428359 1570202171 -2009715026 -1293135409 -616062983 1561272746 -2002291908 843893641
REM
CELL 1.54180   50.00000   50.00000   50.00000   90.00000   90.00000   90.00000
LATT -1
SFAC C  
C      1  0.4577720000000  0.5331010000000  0.5216240000000 1.0
C      1  0.5071110000000  0.4344110000000  0.4913230000000 1.0
C      1  0.5537240000000  0.5277090000000  0.5065010000000 1.0
C      1  0.5408760000000  0.5295650000000  0.4575430000000 1.0
C      1  0.4494740000000  0.5082750000000  0.4738320000000 1.0
C      1  0.5079570000000  0.4523020000000  0.4439730000000 1.0
C      1  0.4669380000000  0.5403290000000  0.5471550000000 1.0
C      1  0.4943290000000  0.4135000000000  0.5059830000000 1.0
C      1  0.5545160000000  0.5420600000000  0.5306140000000 1.0
C      1  0.4520180000000  0.4685970000000  0.4776580000000 1.0
C      1  0.5294350000000  0.4771560000000  0.5061910000000 1.0
C      1  0.4977320000000  0.5503280000000  0.4851510000000 1.0
C      1  0.4676940000000  0.5075970000000  0.4524170000000 1.0
C      1  0.5078310000000  0.4795540000000  0.4384390000000 1.0
C      1  0.5150140000000  0.5230310000000  0.4471900000000 1.0
C      1  0.5596540000000  0.5439600000000  0.4449690000000 1.0
C      1  0.4367310000000  0.4620310000000  0.4562390000000 1.0
C      1  0.5278880000000  0.4495440000000  0.5023410000000 1.0
C      1  0.4802190000000  0.4719250000000  0.4742850000000 1.0
C      1  0.5251480000000  0.4954140000000  0.4851740000000 1.0
C      1  0.4877190000000  0.5243710000000  0.4847510000000 1.0
C      1  0.4545960000000  0.5325890000000  0.5698220000000 1.0
C      1  0.5039660000000  0.3883450000000  0.5061600000000 1.0
C      1  0.5696620000000  0.5639750000000  0.5344430000000 1.0
C      1  0.5434870000000  0.5170810000000  0.4828530000000 1.0
C      1  0.4612630000000  0.5214140000000  0.4968250000000 1.0
C      1  0.4952890000000  0.4475230000000  0.4690710000000 1.0
C      1  0.4717020000000  0.4212980000000  0.5205170000000 1.0
C      1  0.5370850000000  0.5316780000000  0.5509240000000 1.0
C      1  0.4908490000000  0.5560130000000  0.5476610000000 1.0
C      1  0.4440700000000  0.4587050000000  0.5028020000000 1.0
C      1  0.5374860000000  0.4880640000000  0.5303370000000 1.0
C      1  0.5019970000000  0.5712850000000  0.5018870000000 1.0
C      1  0.4936380000000  0.5756610000000  0.5275700000000 1.0
C      1  0.4490510000000  0.4356760000000  0.5164050000000 1.0
C      1  0.5369770000000  0.5035120000000  0.5526190000000 1.0
C      1  0.4982850000000  0.4990770000000  0.4646050000000 1.0
C      1  0.5147380000000  0.5465570000000  0.5588880000000 1.0
END
