TITL C-2622964-2985-64 0.00124906853494563 125000 -481.981694065822 0 0 86 (C1) n - 1
REM
REM in /nfs/bkarasulu/CARBON/AIRSS/Generating-Clusters/AIREBO/with-SteepDescent/Higher-Symm/SD-CG/HFTN-CG
REM
REM
REM
REM
REM
REM ./C.cell (b20cbc046b6831c77cfcea5457e17084)
REM
REM compiler GCC version 9.2.1 20190827 (Red Hat 9.2.1-1)
REM options -cpp -mtune=generic -march=x86-64 -g -O0 -fpre-include=/usr/include/finclude/math-vector-fortran.h
REM seed -1252417153 646858041 1475444031 264619135 1802696909 113403352 1596668452 -1036597674 1954875312 1569954231 2012403303 1421362926 -1528308292 1332322485 183775633 444390894 471269799 -159205668 -394195001 984653679 -1717318336 -1180714445 -745994830 852074027 -1610945424 -571317184 1285156976 -96975585 -600915042 257939616 -272891626 -1371435323 975073149
REM
CELL 1.54180   50.00000   50.00000   50.00000   90.00000   90.00000   90.00000
LATT -1
SFAC C  
C      1  0.4839810000000  0.5061820000000  0.4184180000000 1.0
C      1  0.5707930000000  0.4841270000000  0.4960320000000 1.0
C      1  0.4984680000000  0.5132430000000  0.5758410000000 1.0
C      1  0.4216230000000  0.4868750000000  0.5007370000000 1.0
C      1  0.5360610000000  0.4653020000000  0.4333760000000 1.0
C      1  0.5602790000000  0.5311980000000  0.5382190000000 1.0
C      1  0.4610280000000  0.4637140000000  0.5584750000000 1.0
C      1  0.4363910000000  0.5386670000000  0.4637330000000 1.0
C      1  0.4979520000000  0.4903230000000  0.5567580000000 1.0
C      1  0.4398250000000  0.5099650000000  0.5033020000000 1.0
C      1  0.4898230000000  0.4880320000000  0.4413700000000 1.0
C      1  0.5502560000000  0.5028180000000  0.4963720000000 1.0
C      1  0.4727070000000  0.5447820000000  0.4792850000000 1.0
C      1  0.5204140000000  0.4576500000000  0.4692010000000 1.0
C      1  0.5246670000000  0.5410840000000  0.5232970000000 1.0
C      1  0.4740590000000  0.4696290000000  0.5124820000000 1.0
C      1  0.4850160000000  0.4562220000000  0.4372500000000 1.0
C      1  0.5608980000000  0.5453370000000  0.4887600000000 1.0
C      1  0.5140500000000  0.4615660000000  0.5651560000000 1.0
C      1  0.4391100000000  0.5443950000000  0.5151780000000 1.0
C      1  0.5575360000000  0.4213820000000  0.5089110000000 1.0
C      1  0.4882650000000  0.5848010000000  0.5486900000000 1.0
C      1  0.4526870000000  0.4133860000000  0.4898460000000 1.0
C      1  0.5161990000000  0.5775460000000  0.4503690000000 1.0
C      1  0.5516080000000  0.5798680000000  0.5217830000000 1.0
C      1  0.4970800000000  0.4329790000000  0.5433520000000 1.0
C      1  0.4559860000000  0.5809910000000  0.4813930000000 1.0
C      1  0.5189430000000  0.4205390000000  0.4546100000000 1.0
C      1  0.4932630000000  0.4380420000000  0.4633200000000 1.0
C      1  0.5346620000000  0.5611570000000  0.4995230000000 1.0
C      1  0.5210990000000  0.4529050000000  0.5330370000000 1.0
C      1  0.4654300000000  0.5630660000000  0.5070230000000 1.0
C      1  0.4725910000000  0.5516610000000  0.4484560000000 1.0
C      1  0.5504060000000  0.4479250000000  0.4664000000000 1.0
C      1  0.5261680000000  0.5510890000000  0.5522390000000 1.0
C      1  0.4498370000000  0.4511960000000  0.5221740000000 1.0
C      1  0.5729090000000  0.4706360000000  0.4721290000000 1.0
C      1  0.5210110000000  0.5280380000000  0.5746120000000 1.0
C      1  0.4229150000000  0.4691860000000  0.5215650000000 1.0
C      1  0.4695740000000  0.5280070000000  0.4250170000000 1.0
C      1  0.5108000000000  0.5688030000000  0.4817240000000 1.0
C      1  0.5267170000000  0.4341980000000  0.5072100000000 1.0
C      1  0.4940790000000  0.5719160000000  0.5179120000000 1.0
C      1  0.4831860000000  0.4283890000000  0.4910500000000 1.0
C      1  0.5577310000000  0.5289560000000  0.4670570000000 1.0
C      1  0.5474140000000  0.4607770000000  0.5620280000000 1.0
C      1  0.4418220000000  0.5328760000000  0.5470520000000 1.0
C      1  0.4530620000000  0.4564280000000  0.4374400000000 1.0
C      1  0.5332890000000  0.5086710000000  0.4683610000000 1.0
C      1  0.5226780000000  0.4873860000000  0.5362780000000 1.0
C      1  0.4574480000000  0.5117750000000  0.5291800000000 1.0
C      1  0.4704830000000  0.4939950000000  0.4641840000000 1.0
C      1  0.4357220000000  0.4650370000000  0.4565300000000 1.0
C      1  0.5728030000000  0.5299360000000  0.4441920000000 1.0
C      1  0.5678000000000  0.4611430000000  0.5436790000000 1.0
C      1  0.4512890000000  0.5353480000000  0.5719650000000 1.0
C      1  0.4822390000000  0.5838190000000  0.4701130000000 1.0
C      1  0.5318100000000  0.4150140000000  0.4791370000000 1.0
C      1  0.5233840000000  0.5842770000000  0.5300960000000 1.0
C      1  0.4844070000000  0.4181140000000  0.5239340000000 1.0
C      1  0.5134350000000  0.4855290000000  0.5075240000000 1.0
C      1  0.4810890000000  0.5303510000000  0.5235710000000 1.0
C      1  0.4855880000000  0.4913040000000  0.4901500000000 1.0
C      1  0.5110410000000  0.5135210000000  0.4903030000000 1.0
C      1  0.5518960000000  0.5346700000000  0.5669150000000 1.0
C      1  0.4323590000000  0.4595400000000  0.5507590000000 1.0
C      1  0.4429360000000  0.5424060000000  0.4352920000000 1.0
C      1  0.5652420000000  0.4646870000000  0.4409650000000 1.0
C      1  0.4336170000000  0.5581700000000  0.4842140000000 1.0
C      1  0.5165930000000  0.4437140000000  0.4319220000000 1.0
C      1  0.5676250000000  0.5520260000000  0.5197210000000 1.0
C      1  0.4827500000000  0.4474810000000  0.5657550000000 1.0
C      1  0.5154830000000  0.5794500000000  0.5600000000000 1.0
C      1  0.4550300000000  0.4225290000000  0.5182720000000 1.0
C      1  0.4883970000000  0.5773850000000  0.4398450000000 1.0
C      1  0.5623350000000  0.4209200000000  0.4793570000000 1.0
C      1  0.5394290000000  0.5115980000000  0.5230680000000 1.0
C      1  0.4711710000000  0.4863170000000  0.5398040000000 1.0
C      1  0.4549900000000  0.5172840000000  0.4774290000000 1.0
C      1  0.5196170000000  0.4862520000000  0.4521610000000 1.0
C      1  0.4184840000000  0.4761040000000  0.4746670000000 1.0
C      1  0.4939650000000  0.5004700000000  0.3936000000000 1.0
C      1  0.5781760000000  0.4738400000000  0.5215420000000 1.0
C      1  0.4733390000000  0.5233380000000  0.5833360000000 1.0
C      1  0.5021230000000  0.4557780000000  0.4979480000000 1.0
C      1  0.4992210000000  0.5429690000000  0.5008170000000 1.0
END
