TITL C-2622954-8726-171 -0.00470368958635938 125000 -985.195029697232 0 0 176 (C1) n - 1
REM
REM in /nfs/bkarasulu/CARBON/AIRSS/Generating-Clusters/AIREBO/with-SteepDescent/Higher-Symm/SD-CG/HFTN-CG
REM
REM
REM
REM
REM
REM ./C.cell (b20cbc046b6831c77cfcea5457e17084)
REM
REM compiler GCC version 9.2.1 20190827 (Red Hat 9.2.1-1)
REM options -cpp -mtune=generic -march=x86-64 -g -O0 -fpre-include=/usr/include/finclude/math-vector-fortran.h
REM seed 2033089667 1321048300 -958565080 579682721 -2139754977 1628702685 1652283777 -1248614142 418982684 1986895803 761329561 -1167550962 1072040416 -1296510361 -1380043998 -827113983 -1555604924 -1368703954 -1989159418 -193262382 -104168946 -1090806154 1315263364 -1881940509 -1500462954 -786069545 -1347631717 -886461555 109220524 -207365482 715306260 -1096839421 1832397336
REM
CELL 1.54180   50.00000   50.00000   50.00000   90.00000   90.00000   90.00000
LATT -1
SFAC C  
C      1  0.4510200000000  0.4936810000000  0.5714970000000 1.0
C      1  0.4597450000000  0.5464050000000  0.5325080000000 1.0
C      1  0.4611900000000  0.5374310000000  0.4638340000000 1.0
C      1  0.4451610000000  0.4792710000000  0.4454880000000 1.0
C      1  0.4484850000000  0.4428890000000  0.4973590000000 1.0
C      1  0.5394520000000  0.4860460000000  0.4428190000000 1.0
C      1  0.5401530000000  0.5424110000000  0.4671320000000 1.0
C      1  0.5510860000000  0.5507970000000  0.5370120000000 1.0
C      1  0.5440940000000  0.4871620000000  0.5482080000000 1.0
C      1  0.5448840000000  0.4392670000000  0.4875690000000 1.0
C      1  0.4349170000000  0.4304550000000  0.5612510000000 1.0
C      1  0.4498500000000  0.5348640000000  0.5878030000000 1.0
C      1  0.4444390000000  0.5956730000000  0.5001520000000 1.0
C      1  0.4455710000000  0.5279570000000  0.4065440000000 1.0
C      1  0.4473640000000  0.4163180000000  0.4595210000000 1.0
C      1  0.5566770000000  0.4335030000000  0.4349490000000 1.0
C      1  0.5452970000000  0.5377330000000  0.4177730000000 1.0
C      1  0.5521740000000  0.5936130000000  0.5099990000000 1.0
C      1  0.5461200000000  0.5292400000000  0.5837500000000 1.0
C      1  0.5554040000000  0.4274310000000  0.5456330000000 1.0
C      1  0.5512950000000  0.5155640000000  0.4505040000000 1.0
C      1  0.5491900000000  0.4616630000000  0.4623330000000 1.0
C      1  0.5677640000000  0.4668080000000  0.5346960000000 1.0
C      1  0.5514000000000  0.5202560000000  0.5452810000000 1.0
C      1  0.5591180000000  0.5545010000000  0.5053480000000 1.0
C      1  0.4564250000000  0.5115250000000  0.5512000000000 1.0
C      1  0.4569210000000  0.4517550000000  0.5276900000000 1.0
C      1  0.4519220000000  0.4559220000000  0.4661370000000 1.0
C      1  0.4625080000000  0.5082250000000  0.4499370000000 1.0
C      1  0.4633230000000  0.5542270000000  0.5018660000000 1.0
C      1  0.4256080000000  0.4544990000000  0.4363250000000 1.0
C      1  0.4240380000000  0.4228500000000  0.5098980000000 1.0
C      1  0.4224080000000  0.4904910000000  0.5839940000000 1.0
C      1  0.4344960000000  0.5654010000000  0.5409960000000 1.0
C      1  0.4447660000000  0.5599340000000  0.4461040000000 1.0
C      1  0.5624560000000  0.4733850000000  0.5733080000000 1.0
C      1  0.5740800000000  0.4249230000000  0.4819240000000 1.0
C      1  0.5681960000000  0.4897820000000  0.4250290000000 1.0
C      1  0.5607150000000  0.5675540000000  0.4676340000000 1.0
C      1  0.5716820000000  0.5665500000000  0.5545230000000 1.0
C      1  0.4476720000000  0.5241670000000  0.4988750000000 1.0
C      1  0.4369410000000  0.5072720000000  0.4723980000000 1.0
C      1  0.4337530000000  0.4777150000000  0.4852950000000 1.0
C      1  0.4481960000000  0.4794740000000  0.5134710000000 1.0
C      1  0.4409400000000  0.5078770000000  0.5248650000000 1.0
C      1  0.5611510000000  0.5230250000000  0.5003930000000 1.0
C      1  0.5704620000000  0.5052280000000  0.5243020000000 1.0
C      1  0.5554320000000  0.4787210000000  0.5091850000000 1.0
C      1  0.5682120000000  0.4780110000000  0.4815810000000 1.0
C      1  0.5712100000000  0.5100760000000  0.4742810000000 1.0
C      1  0.5706730000000  0.4217800000000  0.5156460000000 1.0
C      1  0.5661110000000  0.5039360000000  0.5878460000000 1.0
C      1  0.5547040000000  0.5904360000000  0.5402730000000 1.0
C      1  0.5555550000000  0.5620290000000  0.4359930000000 1.0
C      1  0.5568380000000  0.4599160000000  0.4133880000000 1.0
C      1  0.4384360000000  0.4057870000000  0.4870280000000 1.0
C      1  0.4211090000000  0.5110470000000  0.4023740000000 1.0
C      1  0.4415000000000  0.5861600000000  0.4675530000000 1.0
C      1  0.4407000000000  0.5616690000000  0.5733540000000 1.0
C      1  0.4283450000000  0.4569920000000  0.5816190000000 1.0
C      1  0.6193230000000  0.4356870000000  0.4979500000000 1.0
C      1  0.5941780000000  0.4712500000000  0.5643220000000 1.0
C      1  0.5988660000000  0.5632100000000  0.5391860000000 1.0
C      1  0.5983440000000  0.5569010000000  0.4600450000000 1.0
C      1  0.5918370000000  0.4694230000000  0.4385620000000 1.0
C      1  0.3955400000000  0.4318730000000  0.5055490000000 1.0
C      1  0.3986660000000  0.4615580000000  0.4387220000000 1.0
C      1  0.4130340000000  0.5573080000000  0.4536790000000 1.0
C      1  0.4093680000000  0.5479370000000  0.5528100000000 1.0
C      1  0.3799860000000  0.4810930000000  0.5603600000000 1.0
C      1  0.4705280000000  0.4752370000000  0.5758770000000 1.0
C      1  0.4850060000000  0.5551180000000  0.5511510000000 1.0
C      1  0.4781560000000  0.5667180000000  0.4667470000000 1.0
C      1  0.4637350000000  0.4814410000000  0.4203780000000 1.0
C      1  0.4977870000000  0.4134630000000  0.4905370000000 1.0
C      1  0.5106300000000  0.4839420000000  0.4281640000000 1.0
C      1  0.5189310000000  0.5624800000000  0.4519770000000 1.0
C      1  0.5235700000000  0.5640300000000  0.5414750000000 1.0
C      1  0.5173440000000  0.4874830000000  0.5692080000000 1.0
C      1  0.5271520000000  0.4148000000000  0.5002310000000 1.0
C      1  0.4262890000000  0.4139760000000  0.5394520000000 1.0
C      1  0.4353450000000  0.5149390000000  0.6013840000000 1.0
C      1  0.4331080000000  0.5918680000000  0.5256430000000 1.0
C      1  0.4554400000000  0.5513400000000  0.4178780000000 1.0
C      1  0.4355990000000  0.4278750000000  0.4363750000000 1.0
C      1  0.5665590000000  0.4144610000000  0.4530980000000 1.0
C      1  0.5555330000000  0.5146430000000  0.4056430000000 1.0
C      1  0.5605480000000  0.5946450000000  0.4840010000000 1.0
C      1  0.5609960000000  0.5559410000000  0.5826440000000 1.0
C      1  0.5583520000000  0.4414980000000  0.5719350000000 1.0
C      1  0.5659650000000  0.5696330000000  0.6044980000000 1.0
C      1  0.5725500000000  0.6165290000000  0.4726000000000 1.0
C      1  0.5566440000000  0.5111280000000  0.3784170000000 1.0
C      1  0.5720160000000  0.3883800000000  0.4466920000000 1.0
C      1  0.5620260000000  0.4275310000000  0.5939170000000 1.0
C      1  0.4823330000000  0.5537230000000  0.4131940000000 1.0
C      1  0.4192910000000  0.6125360000000  0.5375160000000 1.0
C      1  0.4301030000000  0.5156830000000  0.6283120000000 1.0
C      1  0.4180340000000  0.3882510000000  0.5451360000000 1.0
C      1  0.4336350000000  0.4130340000000  0.4137990000000 1.0
C      1  0.4899510000000  0.5158430000000  0.5534830000000 1.0
C      1  0.4936730000000  0.5696000000000  0.5025970000000 1.0
C      1  0.4892180000000  0.5106070000000  0.4287190000000 1.0
C      1  0.4833340000000  0.4454970000000  0.4582420000000 1.0
C      1  0.4781670000000  0.4410890000000  0.5420880000000 1.0
C      1  0.5187350000000  0.5202430000000  0.4418680000000 1.0
C      1  0.5270540000000  0.5631360000000  0.5016940000000 1.0
C      1  0.5216680000000  0.5260300000000  0.5603420000000 1.0
C      1  0.5082060000000  0.4529560000000  0.5345950000000 1.0
C      1  0.5158200000000  0.4551350000000  0.4615580000000 1.0
C      1  0.4110830000000  0.5466750000000  0.4819910000000 1.0
C      1  0.3954730000000  0.4898430000000  0.4411600000000 1.0
C      1  0.3912940000000  0.4480040000000  0.4834420000000 1.0
C      1  0.3834930000000  0.4686860000000  0.5354170000000 1.0
C      1  0.4024090000000  0.5220110000000  0.5495440000000 1.0
C      1  0.6016460000000  0.5525740000000  0.5142480000000 1.0
C      1  0.6049270000000  0.4966600000000  0.5596820000000 1.0
C      1  0.6110300000000  0.4531060000000  0.5187980000000 1.0
C      1  0.6011110000000  0.4619410000000  0.4626990000000 1.0
C      1  0.5996120000000  0.5300930000000  0.4545500000000 1.0
C      1  0.4810170000000  0.4141290000000  0.4610690000000 1.0
C      1  0.4669030000000  0.4294200000000  0.5655440000000 1.0
C      1  0.4828020000000  0.5354120000000  0.5793020000000 1.0
C      1  0.4743730000000  0.5920280000000  0.4891320000000 1.0
C      1  0.4706750000000  0.5086430000000  0.4024230000000 1.0
C      1  0.5257160000000  0.4283060000000  0.5308370000000 1.0
C      1  0.5279530000000  0.4427300000000  0.4344780000000 1.0
C      1  0.5117390000000  0.5433380000000  0.4178980000000 1.0
C      1  0.5200760000000  0.5905770000000  0.5205190000000 1.0
C      1  0.5131590000000  0.5145360000000  0.5893850000000 1.0
C      1  0.5250350000000  0.4617150000000  0.4109130000000 1.0
C      1  0.5455170000000  0.4011720000000  0.5255760000000 1.0
C      1  0.5367620000000  0.4926260000000  0.5968250000000 1.0
C      1  0.5262950000000  0.5955670000000  0.5538980000000 1.0
C      1  0.5277750000000  0.5725630000000  0.4245930000000 1.0
C      1  0.4591560000000  0.4512180000000  0.5848730000000 1.0
C      1  0.4679980000000  0.3986260000000  0.4885590000000 1.0
C      1  0.4430060000000  0.4898310000000  0.3948690000000 1.0
C      1  0.4710370000000  0.5980460000000  0.4556160000000 1.0
C      1  0.4708640000000  0.5672430000000  0.5787310000000 1.0
C      1  0.3817390000000  0.4413250000000  0.5284520000000 1.0
C      1  0.3989420000000  0.5005210000000  0.5677910000000 1.0
C      1  0.4366900000000  0.5599970000000  0.4856990000000 1.0
C      1  0.3988580000000  0.5051780000000  0.4180020000000 1.0
C      1  0.3837960000000  0.4455700000000  0.4567210000000 1.0
C      1  0.6014730000000  0.4373180000000  0.4760260000000 1.0
C      1  0.5895090000000  0.5142320000000  0.4352510000000 1.0
C      1  0.5863670000000  0.5646960000000  0.4897680000000 1.0
C      1  0.5957590000000  0.5124100000000  0.5806460000000 1.0
C      1  0.5863310000000  0.4463600000000  0.5295110000000 1.0
C      1  0.4780710000000  0.4883580000000  0.5270580000000 1.0
C      1  0.4806390000000  0.5217860000000  0.5213100000000 1.0
C      1  0.4794880000000  0.5209520000000  0.4873050000000 1.0
C      1  0.4825190000000  0.4884600000000  0.4776950000000 1.0
C      1  0.4777440000000  0.4600710000000  0.4950140000000 1.0
C      1  0.5212830000000  0.4821710000000  0.4815200000000 1.0
C      1  0.5203580000000  0.5157540000000  0.4755530000000 1.0
C      1  0.5281680000000  0.5293150000000  0.5057420000000 1.0
C      1  0.5263020000000  0.4998010000000  0.5221170000000 1.0
C      1  0.5268250000000  0.4604500000000  0.5071030000000 1.0
C      1  0.4036320000000  0.5220030000000  0.4914120000000 1.0
C      1  0.4047610000000  0.4991670000000  0.4681390000000 1.0
C      1  0.4021600000000  0.4748400000000  0.4894980000000 1.0
C      1  0.3936980000000  0.4854860000000  0.5158710000000 1.0
C      1  0.4095020000000  0.5116500000000  0.5219370000000 1.0
C      1  0.6093790000000  0.5261380000000  0.5092880000000 1.0
C      1  0.6012000000000  0.5035080000000  0.5302520000000 1.0
C      1  0.6121690000000  0.4801170000000  0.5115280000000 1.0
C      1  0.6006060000000  0.4847400000000  0.4834570000000 1.0
C      1  0.6041440000000  0.5153150000000  0.4810440000000 1.0
C      1  0.4998170000000  0.5422420000000  0.4698480000000 1.0
C      1  0.5060030000000  0.5421690000000  0.5280970000000 1.0
C      1  0.4848010000000  0.4752310000000  0.4463490000000 1.0
C      1  0.5001310000000  0.4439310000000  0.4965120000000 1.0
C      1  0.4931600000000  0.4758060000000  0.5548370000000 1.0
C      1  0.5006720000000  0.4906220000000  0.5063620000000 1.0
END
