TITL C-2622956-4641-730 -437.254361759351 125000 -884.931952957337 0 0 163 (C1) n - 1
REM
REM in /nfs/bkarasulu/CARBON/AIRSS/Generating-Clusters/AIREBO/with-SteepDescent/Higher-Symm/SD-CG/HFTN-CG
REM
REM
REM
REM
REM
REM ./C.cell (b20cbc046b6831c77cfcea5457e17084)
REM
REM compiler GCC version 9.2.1 20190827 (Red Hat 9.2.1-1)
REM options -cpp -mtune=generic -march=x86-64 -g -O0 -fpre-include=/usr/include/finclude/math-vector-fortran.h
REM seed -1713275439 1096168420 -1596464938 612343547 -1789849883 -596262244 1790258956 -1338080628 -1099121371 892472394 1867887665 582993181 -58118795 -906180309 1813802499 649426600 -258995589 444394627 434361469 390442867 -1781186084 612261639 -1497124007 -582155450 -1345223825 1121961559 952480240 664440573 -893436078 1102949787 21789690 1134810337 13638444
REM
CELL 1.54180   50.00000   50.00000   50.00000   90.00000   90.00000   90.00000
LATT -1
SFAC C  
C      1  0.4895750000000  0.6106700000000  0.5098240000000 1.0
C      1  0.5724360000000  0.5663590000000  0.5103280000000 1.0
C      1  0.6056960000000  0.4816530000000  0.5150160000000 1.0
C      1  0.5536410000000  0.4063210000000  0.5116250000000 1.0
C      1  0.4580930000000  0.3955660000000  0.5074310000000 1.0
C      1  0.4000700000000  0.4733240000000  0.5129420000000 1.0
C      1  0.4149710000000  0.5612850000000  0.5113390000000 1.0
C      1  0.5469830000000  0.5166110000000  0.5611580000000 1.0
C      1  0.5219100000000  0.4699510000000  0.5802310000000 1.0
C      1  0.4942660000000  0.4519620000000  0.5811390000000 1.0
C      1  0.4662110000000  0.4704380000000  0.5808230000000 1.0
C      1  0.4636270000000  0.5199050000000  0.5771740000000 1.0
C      1  0.4877860000000  0.5428990000000  0.5719130000000 1.0
C      1  0.5166140000000  0.5250700000000  0.5692450000000 1.0
C      1  0.4305960000000  0.4479810000000  0.4465620000000 1.0
C      1  0.4116820000000  0.5218850000000  0.4439290000000 1.0
C      1  0.4592130000000  0.5798710000000  0.4431190000000 1.0
C      1  0.5378090000000  0.5801850000000  0.4454810000000 1.0
C      1  0.5812440000000  0.5095380000000  0.4406060000000 1.0
C      1  0.5669490000000  0.4445250000000  0.4467460000000 1.0
C      1  0.4983230000000  0.4134470000000  0.4458950000000 1.0
C      1  0.5756510000000  0.4158190000000  0.4512660000000 1.0
C      1  0.4852560000000  0.3865400000000  0.4503730000000 1.0
C      1  0.4009820000000  0.4469730000000  0.4540620000000 1.0
C      1  0.3866550000000  0.5385720000000  0.4473660000000 1.0
C      1  0.4587490000000  0.6102280000000  0.4444970000000 1.0
C      1  0.5619540000000  0.5988370000000  0.4474140000000 1.0
C      1  0.6108930000000  0.5051560000000  0.4499070000000 1.0
C      1  0.4670750000000  0.5194640000000  0.4651700000000 1.0
C      1  0.4952460000000  0.5379420000000  0.4562540000000 1.0
C      1  0.5281250000000  0.5286870000000  0.4589480000000 1.0
C      1  0.5359090000000  0.4976730000000  0.4705090000000 1.0
C      1  0.5194280000000  0.4713320000000  0.4566710000000 1.0
C      1  0.4873810000000  0.4661770000000  0.4668120000000 1.0
C      1  0.4664370000000  0.4874720000000  0.4546050000000 1.0
C      1  0.3932070000000  0.5117410000000  0.5204210000000 1.0
C      1  0.4376110000000  0.5936150000000  0.5174440000000 1.0
C      1  0.5360380000000  0.5972420000000  0.5067360000000 1.0
C      1  0.6101770000000  0.5347820000000  0.5239430000000 1.0
C      1  0.5965140000000  0.4407410000000  0.5214000000000 1.0
C      1  0.5150940000000  0.3856080000000  0.5168740000000 1.0
C      1  0.4170450000000  0.4190440000000  0.5175090000000 1.0
C      1  0.5358790000000  0.4992390000000  0.5375010000000 1.0
C      1  0.5321180000000  0.4671200000000  0.5418320000000 1.0
C      1  0.5023980000000  0.4561480000000  0.5483900000000 1.0
C      1  0.4839700000000  0.4771340000000  0.5366640000000 1.0
C      1  0.4657860000000  0.5017270000000  0.5485070000000 1.0
C      1  0.4780500000000  0.5306670000000  0.5417180000000 1.0
C      1  0.5101790000000  0.5394980000000  0.5390150000000 1.0
C      1  0.4467630000000  0.5405680000000  0.4084780000000 1.0
C      1  0.4997140000000  0.5642230000000  0.4116590000000 1.0
C      1  0.5559950000000  0.5228240000000  0.4224190000000 1.0
C      1  0.5656020000000  0.4855860000000  0.4117440000000 1.0
C      1  0.5157100000000  0.4463000000000  0.4111690000000 1.0
C      1  0.4691110000000  0.4416480000000  0.4092710000000 1.0
C      1  0.4431080000000  0.4985920000000  0.4112630000000 1.0
C      1  0.4382310000000  0.4755840000000  0.4608760000000 1.0
C      1  0.4365700000000  0.5342160000000  0.4620310000000 1.0
C      1  0.4865430000000  0.5707920000000  0.4584110000000 1.0
C      1  0.5459910000000  0.5539250000000  0.4633910000000 1.0
C      1  0.5668760000000  0.4929460000000  0.4639560000000 1.0
C      1  0.5379340000000  0.4451960000000  0.4602710000000 1.0
C      1  0.4791700000000  0.4340380000000  0.4610180000000 1.0
C      1  0.4538850000000  0.4332860000000  0.4296460000000 1.0
C      1  0.4201460000000  0.4953940000000  0.4278750000000 1.0
C      1  0.4412890000000  0.5572350000000  0.4287460000000 1.0
C      1  0.5099730000000  0.5829250000000  0.4284810000000 1.0
C      1  0.5765450000000  0.5410260000000  0.4414020000000 1.0
C      1  0.5759530000000  0.4709490000000  0.4315390000000 1.0
C      1  0.5227640000000  0.4243580000000  0.4275820000000 1.0
C      1  0.4125820000000  0.4950530000000  0.4618890000000 1.0
C      1  0.4344130000000  0.5672920000000  0.4606860000000 1.0
C      1  0.5113140000000  0.5939650000000  0.4610420000000 1.0
C      1  0.5793230000000  0.5526810000000  0.4700790000000 1.0
C      1  0.5864330000000  0.4656890000000  0.4635120000000 1.0
C      1  0.5274660000000  0.4137850000000  0.4600780000000 1.0
C      1  0.4473280000000  0.4237800000000  0.4618040000000 1.0
C      1  0.5231380000000  0.4415360000000  0.5105110000000 1.0
C      1  0.4694150000000  0.4428860000000  0.5087080000000 1.0
C      1  0.4399660000000  0.4910000000000  0.5129560000000 1.0
C      1  0.4517810000000  0.5385600000000  0.5100530000000 1.0
C      1  0.4966710000000  0.5707200000000  0.5056340000000 1.0
C      1  0.5563440000000  0.5307470000000  0.5215980000000 1.0
C      1  0.5612480000000  0.4807170000000  0.5117380000000 1.0
C      1  0.4641840000000  0.5641420000000  0.4980430000000 1.0
C      1  0.5242460000000  0.5582500000000  0.4966160000000 1.0
C      1  0.5784410000000  0.5256560000000  0.5014600000000 1.0
C      1  0.5680830000000  0.4544900000000  0.4970590000000 1.0
C      1  0.5093010000000  0.4184710000000  0.4951550000000 1.0
C      1  0.4414330000000  0.4424490000000  0.4965890000000 1.0
C      1  0.4271780000000  0.5172830000000  0.5000990000000 1.0
C      1  0.5934240000000  0.5207150000000  0.5408610000000 1.0
C      1  0.5745750000000  0.4420340000000  0.5381690000000 1.0
C      1  0.5020520000000  0.4042290000000  0.5327510000000 1.0
C      1  0.4279240000000  0.4383400000000  0.5342740000000 1.0
C      1  0.4129840000000  0.5195290000000  0.5378630000000 1.0
C      1  0.4570130000000  0.5842620000000  0.5346880000000 1.0
C      1  0.5363300000000  0.5845630000000  0.5330720000000 1.0
C      1  0.4329460000000  0.4932280000000  0.5461630000000 1.0
C      1  0.4526470000000  0.5532480000000  0.5407160000000 1.0
C      1  0.5072020000000  0.5733510000000  0.5378700000000 1.0
C      1  0.5676080000000  0.5395920000000  0.5524460000000 1.0
C      1  0.5654160000000  0.4734130000000  0.5446990000000 1.0
C      1  0.5213210000000  0.4287860000000  0.5413320000000 1.0
C      1  0.4583320000000  0.4333910000000  0.5394750000000 1.0
C      1  0.4943290000000  0.5347140000000  0.4224130000000 1.0
C      1  0.5232240000000  0.5247810000000  0.4277470000000 1.0
C      1  0.5355590000000  0.4965100000000  0.4156110000000 1.0
C      1  0.5179010000000  0.4752710000000  0.4257520000000 1.0
C      1  0.4883210000000  0.4666720000000  0.4132370000000 1.0
C      1  0.4711710000000  0.4888090000000  0.4241130000000 1.0
C      1  0.4706200000000  0.5197450000000  0.4122480000000 1.0
C      1  0.4006440000000  0.4986600000000  0.4902380000000 1.0
C      1  0.4356180000000  0.5768280000000  0.4892350000000 1.0
C      1  0.5146710000000  0.6074160000000  0.4920900000000 1.0
C      1  0.5976780000000  0.5510750000000  0.4982630000000 1.0
C      1  0.5996150000000  0.4574390000000  0.4919300000000 1.0
C      1  0.5309130000000  0.3958820000000  0.4885700000000 1.0
C      1  0.4352750000000  0.4118580000000  0.4897130000000 1.0
C      1  0.5524900000000  0.5755280000000  0.4888490000000 1.0
C      1  0.5846800000000  0.4963960000000  0.4927160000000 1.0
C      1  0.5482660000000  0.4318160000000  0.4897730000000 1.0
C      1  0.4787300000000  0.4162150000000  0.4899780000000 1.0
C      1  0.4262230000000  0.4681700000000  0.4918150000000 1.0
C      1  0.4136120000000  0.5437600000000  0.4852850000000 1.0
C      1  0.4790260000000  0.5914920000000  0.4843340000000 1.0
C      1  0.4949990000000  0.5708130000000  0.5695040000000 1.0
C      1  0.5772790000000  0.5508330000000  0.5779030000000 1.0
C      1  0.5566720000000  0.4885270000000  0.5739430000000 1.0
C      1  0.5306060000000  0.4384410000000  0.5725880000000 1.0
C      1  0.4661090000000  0.4416890000000  0.5658570000000 1.0
C      1  0.4396490000000  0.4879950000000  0.5791200000000 1.0
C      1  0.4479490000000  0.5455640000000  0.5725260000000 1.0
C      1  0.4211640000000  0.5461540000000  0.5346330000000 1.0
C      1  0.4825800000000  0.5959020000000  0.5333180000000 1.0
C      1  0.5595090000000  0.5679760000000  0.5355610000000 1.0
C      1  0.5928850000000  0.4926580000000  0.5390900000000 1.0
C      1  0.5543150000000  0.4222100000000  0.5363870000000 1.0
C      1  0.4747880000000  0.4086410000000  0.5290510000000 1.0
C      1  0.4177610000000  0.4645160000000  0.5360780000000 1.0
C      1  0.4682600000000  0.6173150000000  0.4671430000000 1.0
C      1  0.5702640000000  0.5977520000000  0.4717100000000 1.0
C      1  0.6132640000000  0.4994850000000  0.4745600000000 1.0
C      1  0.5659360000000  0.4077690000000  0.4734590000000 1.0
C      1  0.4756780000000  0.3863420000000  0.4740020000000 1.0
C      1  0.3975240000000  0.4573940000000  0.4770810000000 1.0
C      1  0.3869120000000  0.5494800000000  0.4704540000000 1.0
C      1  0.5401040000000  0.4827440000000  0.6030240000000 1.0
C      1  0.5093770000000  0.4781030000000  0.6170210000000 1.0
C      1  0.4831210000000  0.4788180000000  0.6091370000000 1.0
C      1  0.4593670000000  0.5024280000000  0.6032600000000 1.0
C      1  0.4862810000000  0.5217720000000  0.6099930000000 1.0
C      1  0.5122860000000  0.5239400000000  0.6024870000000 1.0
C      1  0.5320990000000  0.5109430000000  0.6156930000000 1.0
C      1  0.4699080000000  0.4924260000000  0.5097460000000 1.0
C      1  0.4738770000000  0.5193630000000  0.4976180000000 1.0
C      1  0.5004060000000  0.5339770000000  0.4896290000000 1.0
C      1  0.5258730000000  0.5276020000000  0.5112500000000 1.0
C      1  0.5313130000000  0.4948020000000  0.5040900000000 1.0
C      1  0.5129580000000  0.4686180000000  0.5067520000000 1.0
C      1  0.4847770000000  0.4677100000000  0.4979070000000 1.0
C      1  0.5036180000000  0.5016740000000  0.5320280000000 1.0
C      1  0.5074220000000  0.4931030000000  0.5647100000000 1.0
END
