TITL C-2622961-1971-558 0.00048066797391249 125000 -905.952426190106 0 0 164 (C1) n - 1
REM
REM in /nfs/bkarasulu/CARBON/AIRSS/Generating-Clusters/AIREBO/with-SteepDescent/Higher-Symm/SD-CG/HFTN-CG
REM
REM
REM
REM
REM
REM ./C.cell (b20cbc046b6831c77cfcea5457e17084)
REM
REM compiler GCC version 9.2.1 20190827 (Red Hat 9.2.1-1)
REM options -cpp -mtune=generic -march=x86-64 -g -O0 -fpre-include=/usr/include/finclude/math-vector-fortran.h
REM seed -1336110478 -1492365080 480621259 -1394253245 -716902465 1294923286 1917304691 -940378429 -1435091681 1947449895 1275014134 -1347520740 1092975546 1107965157 -262446059 -676317233 1785915881 -2091125763 -211025626 1448261625 -543991487 -2130852966 8095837 -937341933 -1829354483 -1374866080 -330440230 -828725117 -975500017 -1806433548 64178633 -2027774007 1453930754
REM
CELL 1.54180   50.00000   50.00000   50.00000   90.00000   90.00000   90.00000
LATT -1
SFAC C  
C      1  0.4833900000000  0.5063100000000  0.5402300000000 1.0
C      1  0.4828330000000  0.4640350000000  0.4806430000000 1.0
C      1  0.4816620000000  0.5370070000000  0.4785190000000 1.0
C      1  0.5141090000000  0.4930590000000  0.5472450000000 1.0
C      1  0.5156510000000  0.4582940000000  0.4736610000000 1.0
C      1  0.5140900000000  0.5418440000000  0.4875780000000 1.0
C      1  0.4838660000000  0.5054330000000  0.4660340000000 1.0
C      1  0.4861630000000  0.4713610000000  0.5137310000000 1.0
C      1  0.4796940000000  0.5341180000000  0.5199560000000 1.0
C      1  0.5145400000000  0.4937310000000  0.4553130000000 1.0
C      1  0.5147250000000  0.4588230000000  0.5272730000000 1.0
C      1  0.5278200000000  0.5525820000000  0.5258200000000 1.0
C      1  0.5647190000000  0.4246870000000  0.4436320000000 1.0
C      1  0.5558720000000  0.5917680000000  0.4715840000000 1.0
C      1  0.5616780000000  0.4892600000000  0.5875440000000 1.0
C      1  0.4311310000000  0.4281380000000  0.4445380000000 1.0
C      1  0.4417770000000  0.5902140000000  0.4622250000000 1.0
C      1  0.4413290000000  0.4846470000000  0.5943110000000 1.0
C      1  0.5627230000000  0.4308950000000  0.5536570000000 1.0
C      1  0.5561770000000  0.5913110000000  0.5305070000000 1.0
C      1  0.5613890000000  0.4858290000000  0.4112250000000 1.0
C      1  0.4355500000000  0.4341470000000  0.5615270000000 1.0
C      1  0.4433190000000  0.5844840000000  0.5347870000000 1.0
C      1  0.4365020000000  0.4791340000000  0.4108040000000 1.0
C      1  0.4854650000000  0.5087100000000  0.4330120000000 1.0
C      1  0.4828430000000  0.5475520000000  0.5472410000000 1.0
C      1  0.4799290000000  0.4136000000000  0.5170930000000 1.0
C      1  0.5165250000000  0.5190620000000  0.4327110000000 1.0
C      1  0.5136280000000  0.5484540000000  0.5526860000000 1.0
C      1  0.5088080000000  0.4315350000000  0.5177560000000 1.0
C      1  0.4819100000000  0.5235760000000  0.5694880000000 1.0
C      1  0.4851610000000  0.5408910000000  0.4440410000000 1.0
C      1  0.4805710000000  0.4330180000000  0.4898800000000 1.0
C      1  0.5141380000000  0.5183140000000  0.5627870000000 1.0
C      1  0.5159540000000  0.5382340000000  0.4582090000000 1.0
C      1  0.5125240000000  0.4271830000000  0.4854970000000 1.0
C      1  0.5104390000000  0.4984760000000  0.6023050000000 1.0
C      1  0.5109190000000  0.4127990000000  0.4471590000000 1.0
C      1  0.5162550000000  0.5852200000000  0.4623790000000 1.0
C      1  0.4796520000000  0.4939580000000  0.5961360000000 1.0
C      1  0.4827620000000  0.4254860000000  0.4428260000000 1.0
C      1  0.4889090000000  0.5862090000000  0.4556280000000 1.0
C      1  0.5113800000000  0.5003290000000  0.3984010000000 1.0
C      1  0.5173700000000  0.4188940000000  0.5543820000000 1.0
C      1  0.5114350000000  0.5914640000000  0.5487820000000 1.0
C      1  0.4801680000000  0.4997880000000  0.3938180000000 1.0
C      1  0.4863310000000  0.4283480000000  0.5536430000000 1.0
C      1  0.4856250000000  0.5963830000000  0.5578200000000 1.0
C      1  0.5450760000000  0.4400360000000  0.5739110000000 1.0
C      1  0.5417580000000  0.4668590000000  0.4182960000000 1.0
C      1  0.5369610000000  0.6052100000000  0.5134730000000 1.0
C      1  0.4622220000000  0.4374150000000  0.5746970000000 1.0
C      1  0.4561800000000  0.4593450000000  0.4141960000000 1.0
C      1  0.4623610000000  0.5885210000000  0.5134170000000 1.0
C      1  0.5444680000000  0.4451910000000  0.4342500000000 1.0
C      1  0.5437050000000  0.4669790000000  0.5851210000000 1.0
C      1  0.5446760000000  0.6123340000000  0.4872220000000 1.0
C      1  0.4553880000000  0.4359320000000  0.4286050000000 1.0
C      1  0.4665670000000  0.4632320000000  0.5896950000000 1.0
C      1  0.4572140000000  0.5996510000000  0.4868540000000 1.0
C      1  0.5819600000000  0.4977220000000  0.5248950000000 1.0
C      1  0.5876880000000  0.4707920000000  0.4828020000000 1.0
C      1  0.5921700000000  0.5270780000000  0.4844990000000 1.0
C      1  0.4200940000000  0.4975010000000  0.5233660000000 1.0
C      1  0.4059260000000  0.4696880000000  0.4852510000000 1.0
C      1  0.4089820000000  0.5249240000000  0.4829540000000 1.0
C      1  0.5896610000000  0.4974160000000  0.4709450000000 1.0
C      1  0.5891110000000  0.4708150000000  0.5125140000000 1.0
C      1  0.5921130000000  0.5259270000000  0.5156450000000 1.0
C      1  0.4174930000000  0.4958920000000  0.4729620000000 1.0
C      1  0.4090700000000  0.4699460000000  0.5146980000000 1.0
C      1  0.4097980000000  0.5256500000000  0.5143240000000 1.0
C      1  0.3915030000000  0.5180210000000  0.5419390000000 1.0
C      1  0.3983710000000  0.4531460000000  0.5391760000000 1.0
C      1  0.3928420000000  0.5025650000000  0.4391420000000 1.0
C      1  0.6128880000000  0.5180100000000  0.5398310000000 1.0
C      1  0.6118380000000  0.4522260000000  0.5289520000000 1.0
C      1  0.6093200000000  0.5018410000000  0.4418410000000 1.0
C      1  0.3879070000000  0.5181650000000  0.4582680000000 1.0
C      1  0.3837990000000  0.4520390000000  0.4676620000000 1.0
C      1  0.3996230000000  0.5046370000000  0.5616680000000 1.0
C      1  0.6147910000000  0.5265720000000  0.4619290000000 1.0
C      1  0.6067660000000  0.4497090000000  0.4691510000000 1.0
C      1  0.6090320000000  0.5023600000000  0.5591590000000 1.0
C      1  0.5575670000000  0.5259390000000  0.4309800000000 1.0
C      1  0.5567330000000  0.5462630000000  0.5525560000000 1.0
C      1  0.5540610000000  0.4324290000000  0.5120600000000 1.0
C      1  0.4387710000000  0.5236200000000  0.4296600000000 1.0
C      1  0.4420770000000  0.5481030000000  0.5511970000000 1.0
C      1  0.4464450000000  0.4357140000000  0.5131270000000 1.0
C      1  0.5545830000000  0.5226140000000  0.5655470000000 1.0
C      1  0.5565610000000  0.5483240000000  0.4464950000000 1.0
C      1  0.5522510000000  0.4323020000000  0.4855510000000 1.0
C      1  0.4422550000000  0.5248700000000  0.5651200000000 1.0
C      1  0.4428400000000  0.5462720000000  0.4454030000000 1.0
C      1  0.4414160000000  0.4326690000000  0.4854900000000 1.0
C      1  0.4324380000000  0.5446020000000  0.4744520000000 1.0
C      1  0.4371440000000  0.4989380000000  0.5491500000000 1.0
C      1  0.4346660000000  0.4593980000000  0.4731250000000 1.0
C      1  0.5659600000000  0.5441170000000  0.4781070000000 1.0
C      1  0.5609880000000  0.4985330000000  0.5487990000000 1.0
C      1  0.5590660000000  0.4591390000000  0.4726410000000 1.0
C      1  0.4334620000000  0.5463700000000  0.5216730000000 1.0
C      1  0.4370800000000  0.4973970000000  0.4477670000000 1.0
C      1  0.4391860000000  0.4620510000000  0.5213500000000 1.0
C      1  0.5679960000000  0.5443850000000  0.5238190000000 1.0
C      1  0.5757850000000  0.5069490000000  0.4418990000000 1.0
C      1  0.5617970000000  0.4580460000000  0.5243940000000 1.0
C      1  0.5850120000000  0.4827430000000  0.5644450000000 1.0
C      1  0.5812270000000  0.4542010000000  0.4471610000000 1.0
C      1  0.5713410000000  0.5737010000000  0.4865180000000 1.0
C      1  0.4214170000000  0.4808840000000  0.5708320000000 1.0
C      1  0.4119330000000  0.4533370000000  0.4493790000000 1.0
C      1  0.4270580000000  0.5737220000000  0.4827410000000 1.0
C      1  0.5873270000000  0.4785230000000  0.4292760000000 1.0
C      1  0.5847940000000  0.4549820000000  0.5488520000000 1.0
C      1  0.5720040000000  0.5736550000000  0.5150090000000 1.0
C      1  0.4137220000000  0.4786740000000  0.4325670000000 1.0
C      1  0.4153780000000  0.4528280000000  0.5607700000000 1.0
C      1  0.4248900000000  0.5749310000000  0.5108690000000 1.0
C      1  0.5429000000000  0.5124220000000  0.4034180000000 1.0
C      1  0.5413220000000  0.5764690000000  0.5555220000000 1.0
C      1  0.5433060000000  0.4112680000000  0.5337180000000 1.0
C      1  0.4497520000000  0.5047150000000  0.4076640000000 1.0
C      1  0.4589270000000  0.5756700000000  0.5619270000000 1.0
C      1  0.4566620000000  0.4201200000000  0.5391710000000 1.0
C      1  0.5392090000000  0.5144240000000  0.5935110000000 1.0
C      1  0.5427990000000  0.5786890000000  0.4444320000000 1.0
C      1  0.5408550000000  0.4104790000000  0.4632660000000 1.0
C      1  0.4539170000000  0.5162290000000  0.5945400000000 1.0
C      1  0.4606470000000  0.5724590000000  0.4426260000000 1.0
C      1  0.4571840000000  0.4156790000000  0.4629660000000 1.0
C      1  0.4831530000000  0.4008520000000  0.4791670000000 1.0
C      1  0.4861190000000  0.5651650000000  0.4222130000000 1.0
C      1  0.4805640000000  0.5365600000000  0.6003710000000 1.0
C      1  0.5165350000000  0.3940380000000  0.4804330000000 1.0
C      1  0.5190080000000  0.5587780000000  0.4327030000000 1.0
C      1  0.5132980000000  0.5363030000000  0.5907330000000 1.0
C      1  0.4893990000000  0.3826810000000  0.5072360000000 1.0
C      1  0.4857550000000  0.5620870000000  0.5778460000000 1.0
C      1  0.5013040000000  0.5575690000000  0.3971350000000 1.0
C      1  0.5180160000000  0.3998360000000  0.5141500000000 1.0
C      1  0.5192330000000  0.5680010000000  0.5799600000000 1.0
C      1  0.5227060000000  0.5378570000000  0.4061190000000 1.0
C      1  0.5207110000000  0.4414840000000  0.4484380000000 1.0
C      1  0.5189700000000  0.5728690000000  0.4871240000000 1.0
C      1  0.5162790000000  0.4792720000000  0.5778590000000 1.0
C      1  0.4833720000000  0.4576530000000  0.4472450000000 1.0
C      1  0.4742090000000  0.5701500000000  0.4801360000000 1.0
C      1  0.4732710000000  0.4844460000000  0.5642370000000 1.0
C      1  0.5173610000000  0.4525810000000  0.5589580000000 1.0
C      1  0.5140700000000  0.5809910000000  0.5172710000000 1.0
C      1  0.5161600000000  0.4802190000000  0.4241160000000 1.0
C      1  0.4788350000000  0.4592950000000  0.5445520000000 1.0
C      1  0.4845400000000  0.5669200000000  0.5123690000000 1.0
C      1  0.4824320000000  0.4783070000000  0.4202490000000 1.0
C      1  0.5357760000000  0.4827400000000  0.4767990000000 1.0
C      1  0.5391700000000  0.4824530000000  0.5282590000000 1.0
C      1  0.4588710000000  0.4879770000000  0.5253890000000 1.0
C      1  0.4574030000000  0.4849250000000  0.4720260000000 1.0
C      1  0.4540750000000  0.5331500000000  0.4980580000000 1.0
C      1  0.5438620000000  0.5341970000000  0.5021230000000 1.0
C      1  0.4512640000000  0.5021000000000  0.4984800000000 1.0
C      1  0.5394420000000  0.5004290000000  0.5015870000000 1.0
END
