TITL C-2622963-3633-570 -0.00239555922934568 125000 -1009.35349436025 0 0 191 (C1) n - 1
REM
REM in /nfs/bkarasulu/CARBON/AIRSS/Generating-Clusters/AIREBO/with-SteepDescent/Higher-Symm/SD-CG/HFTN-CG
REM
REM
REM
REM
REM
REM ./C.cell (b20cbc046b6831c77cfcea5457e17084)
REM
REM compiler GCC version 9.2.1 20190827 (Red Hat 9.2.1-1)
REM options -cpp -mtune=generic -march=x86-64 -g -O0 -fpre-include=/usr/include/finclude/math-vector-fortran.h
REM seed -1953102512 638471652 -2127415249 -1282396947 1298783809 -1191743503 -875189847 346540201 -645414386 824373818 687481618 28074252 -422839730 1589894459 -419351757 620922111 986629142 -622888330 1117140276 -1579425222 -1518337252 -1953332121 1193300675 891372563 -1429583488 -248579219 -774680730 -918900850 690990095 1651862319 1255673859 -1290227778 -1236651995
REM
CELL 1.54180   50.00000   50.00000   50.00000   90.00000   90.00000   90.00000
LATT -1
SFAC C  
C      1  0.5062900000000  0.5020420000000  0.6130490000000 1.0
C      1  0.5108940000000  0.3959060000000  0.5325070000000 1.0
C      1  0.5130790000000  0.4439710000000  0.4185860000000 1.0
C      1  0.5115460000000  0.5703120000000  0.4140940000000 1.0
C      1  0.5129340000000  0.5894750000000  0.5306350000000 1.0
C      1  0.3913340000000  0.5239620000000  0.5009200000000 1.0
C      1  0.3897030000000  0.5040490000000  0.5250460000000 1.0
C      1  0.3849220000000  0.4760300000000  0.5112050000000 1.0
C      1  0.4055380000000  0.4748070000000  0.4857710000000 1.0
C      1  0.4034030000000  0.5077640000000  0.4774590000000 1.0
C      1  0.5402840000000  0.5459710000000  0.4269510000000 1.0
C      1  0.5366340000000  0.5713870000000  0.5024260000000 1.0
C      1  0.5351440000000  0.5192820000000  0.5759590000000 1.0
C      1  0.5379230000000  0.4292620000000  0.5312160000000 1.0
C      1  0.5572980000000  0.4329380000000  0.4348880000000 1.0
C      1  0.5235550000000  0.4037250000000  0.5042640000000 1.0
C      1  0.5309350000000  0.4715410000000  0.4214990000000 1.0
C      1  0.5242030000000  0.5810470000000  0.4374420000000 1.0
C      1  0.5259580000000  0.5654190000000  0.5421910000000 1.0
C      1  0.5161540000000  0.4777070000000  0.6002380000000 1.0
C      1  0.5900700000000  0.5430550000000  0.5424180000000 1.0
C      1  0.5846950000000  0.4646240000000  0.5649560000000 1.0
C      1  0.5836850000000  0.4376370000000  0.4846380000000 1.0
C      1  0.5855480000000  0.4976450000000  0.4268610000000 1.0
C      1  0.5875550000000  0.5582980000000  0.4700900000000 1.0
C      1  0.4801740000000  0.5722510000000  0.5649920000000 1.0
C      1  0.4822770000000  0.4544780000000  0.6015240000000 1.0
C      1  0.4877850000000  0.3936820000000  0.4896390000000 1.0
C      1  0.4828470000000  0.4810520000000  0.4019270000000 1.0
C      1  0.4848110000000  0.5872410000000  0.4386840000000 1.0
C      1  0.4495370000000  0.4743180000000  0.4447320000000 1.0
C      1  0.4508710000000  0.5464920000000  0.4525460000000 1.0
C      1  0.4534690000000  0.5643190000000  0.5279130000000 1.0
C      1  0.4486720000000  0.4935980000000  0.5811380000000 1.0
C      1  0.4476560000000  0.4361980000000  0.5178390000000 1.0
C      1  0.4943680000000  0.5952540000000  0.5026950000000 1.0
C      1  0.4893100000000  0.5303520000000  0.5906230000000 1.0
C      1  0.4978140000000  0.4193430000000  0.5487090000000 1.0
C      1  0.4806980000000  0.4371060000000  0.4257790000000 1.0
C      1  0.4996020000000  0.5387320000000  0.4181460000000 1.0
C      1  0.5792910000000  0.5306380000000  0.4520170000000 1.0
C      1  0.5789910000000  0.5508030000000  0.5112030000000 1.0
C      1  0.5778580000000  0.4952380000000  0.5663200000000 1.0
C      1  0.5723670000000  0.4426290000000  0.5163330000000 1.0
C      1  0.5819110000000  0.4737170000000  0.4406750000000 1.0
C      1  0.5551720000000  0.5739310000000  0.5551360000000 1.0
C      1  0.5488570000000  0.4698320000000  0.5997920000000 1.0
C      1  0.5562200000000  0.3960980000000  0.5045260000000 1.0
C      1  0.5479330000000  0.4800580000000  0.3955840000000 1.0
C      1  0.5561720000000  0.5864470000000  0.4427570000000 1.0
C      1  0.5139550000000  0.5231030000000  0.3913820000000 1.0
C      1  0.5156400000000  0.6058110000000  0.4798630000000 1.0
C      1  0.5132760000000  0.5503180000000  0.5938940000000 1.0
C      1  0.5214640000000  0.4329470000000  0.5691600000000 1.0
C      1  0.5174850000000  0.4098480000000  0.4541070000000 1.0
C      1  0.5629950000000  0.4068220000000  0.5360990000000 1.0
C      1  0.5602780000000  0.4499110000000  0.4054080000000 1.0
C      1  0.5700570000000  0.5620690000000  0.4245310000000 1.0
C      1  0.5587670000000  0.5868300000000  0.5231370000000 1.0
C      1  0.5553120000000  0.5031870000000  0.5981230000000 1.0
C      1  0.4608200000000  0.5989400000000  0.5069420000000 1.0
C      1  0.4562620000000  0.5321420000000  0.5984110000000 1.0
C      1  0.4734070000000  0.4094620000000  0.5664030000000 1.0
C      1  0.4572960000000  0.4181370000000  0.4285230000000 1.0
C      1  0.4681980000000  0.5451880000000  0.4055800000000 1.0
C      1  0.4470350000000  0.5786640000000  0.4914900000000 1.0
C      1  0.4368900000000  0.5360220000000  0.5746490000000 1.0
C      1  0.4557620000000  0.4279900000000  0.5680360000000 1.0
C      1  0.4416660000000  0.4145650000000  0.4475740000000 1.0
C      1  0.4464570000000  0.5226230000000  0.4128660000000 1.0
C      1  0.5042420000000  0.5072950000000  0.5500220000000 1.0
C      1  0.5257810000000  0.4568100000000  0.5362310000000 1.0
C      1  0.5096810000000  0.4579140000000  0.4652590000000 1.0
C      1  0.5206520000000  0.5242920000000  0.4406320000000 1.0
C      1  0.5120130000000  0.5492130000000  0.5084430000000 1.0
C      1  0.4261080000000  0.4873900000000  0.5939920000000 1.0
C      1  0.4332230000000  0.4142260000000  0.5348750000000 1.0
C      1  0.3731660000000  0.4386780000000  0.4241940000000 1.0
C      1  0.4402460000000  0.5663910000000  0.4278230000000 1.0
C      1  0.3789930000000  0.6044840000000  0.5519980000000 1.0
C      1  0.4317580000000  0.5284220000000  0.4976260000000 1.0
C      1  0.4206450000000  0.5178560000000  0.5279810000000 1.0
C      1  0.4301470000000  0.4856750000000  0.5335640000000 1.0
C      1  0.4337580000000  0.4773280000000  0.5045700000000 1.0
C      1  0.4350960000000  0.5011580000000  0.4823770000000 1.0
C      1  0.4081630000000  0.5200870000000  0.4500970000000 1.0
C      1  0.3997240000000  0.5501880000000  0.5070240000000 1.0
C      1  0.3922710000000  0.5133760000000  0.5576420000000 1.0
C      1  0.3977820000000  0.4464000000000  0.5217350000000 1.0
C      1  0.4104110000000  0.4555900000000  0.4635390000000 1.0
C      1  0.5506970000000  0.5474710000000  0.4594970000000 1.0
C      1  0.5482170000000  0.5486720000000  0.5249440000000 1.0
C      1  0.5444460000000  0.4903550000000  0.5623080000000 1.0
C      1  0.5429590000000  0.4382080000000  0.4998230000000 1.0
C      1  0.5529350000000  0.4634560000000  0.4421750000000 1.0
C      1  0.4075800000000  0.4173300000000  0.5337780000000 1.0
C      1  0.3923280000000  0.4503640000000  0.4358540000000 1.0
C      1  0.4223300000000  0.5389570000000  0.4255670000000 1.0
C      1  0.3881590000000  0.5814910000000  0.5433910000000 1.0
C      1  0.4008800000000  0.4952190000000  0.5851930000000 1.0
C      1  0.5159060000000  0.5373650000000  0.5562530000000 1.0
C      1  0.5204980000000  0.4669380000000  0.5682580000000 1.0
C      1  0.5156170000000  0.4285310000000  0.4823750000000 1.0
C      1  0.5157840000000  0.4952130000000  0.4315550000000 1.0
C      1  0.5297140000000  0.5700010000000  0.4691270000000 1.0
C      1  0.5344130000000  0.4050830000000  0.5544530000000 1.0
C      1  0.5290090000000  0.4218700000000  0.4319370000000 1.0
C      1  0.5310720000000  0.5493520000000  0.3960590000000 1.0
C      1  0.5327600000000  0.6046290000000  0.5084860000000 1.0
C      1  0.5245820000000  0.5237990000000  0.6079650000000 1.0
C      1  0.5849250000000  0.4802180000000  0.5177090000000 1.0
C      1  0.5743360000000  0.4759690000000  0.4900660000000 1.0
C      1  0.5925300000000  0.4973790000000  0.4709160000000 1.0
C      1  0.5912860000000  0.5166970000000  0.4951720000000 1.0
C      1  0.5821380000000  0.5089700000000  0.5231100000000 1.0
C      1  0.4126430000000  0.5378760000000  0.5550740000000 1.0
C      1  0.4070590000000  0.4678750000000  0.5430400000000 1.0
C      1  0.4305350000000  0.4326970000000  0.4713300000000 1.0
C      1  0.4305620000000  0.5007040000000  0.4332970000000 1.0
C      1  0.4226280000000  0.5592660000000  0.4865700000000 1.0
C      1  0.5092470000000  0.3870390000000  0.4711070000000 1.0
C      1  0.4951530000000  0.4975810000000  0.3839630000000 1.0
C      1  0.4989060000000  0.6102410000000  0.4508910000000 1.0
C      1  0.5004650000000  0.5777130000000  0.5824540000000 1.0
C      1  0.5016300000000  0.4430390000000  0.6137690000000 1.0
C      1  0.4665360000000  0.4533850000000  0.5537500000000 1.0
C      1  0.4638710000000  0.4392030000000  0.4730890000000 1.0
C      1  0.4698570000000  0.5169770000000  0.4336050000000 1.0
C      1  0.4725380000000  0.5605710000000  0.4830270000000 1.0
C      1  0.4642920000000  0.5272190000000  0.5596390000000 1.0
C      1  0.5971980000000  0.4637050000000  0.4680820000000 1.0
C      1  0.6105140000000  0.5172190000000  0.4508440000000 1.0
C      1  0.6099010000000  0.5414070000000  0.5005760000000 1.0
C      1  0.5987200000000  0.5150900000000  0.5486740000000 1.0
C      1  0.6034330000000  0.4553420000000  0.5225710000000 1.0
C      1  0.5308240000000  0.4960440000000  0.5321280000000 1.0
C      1  0.5186980000000  0.4749380000000  0.5083380000000 1.0
C      1  0.5343180000000  0.4814910000000  0.4641940000000 1.0
C      1  0.5319070000000  0.5241910000000  0.4727190000000 1.0
C      1  0.5222980000000  0.5214990000000  0.5112550000000 1.0
C      1  0.4868790000000  0.4689050000000  0.5729890000000 1.0
C      1  0.4841840000000  0.4254390000000  0.4949680000000 1.0
C      1  0.4856080000000  0.4884410000000  0.4347730000000 1.0
C      1  0.4962670000000  0.5685630000000  0.4631300000000 1.0
C      1  0.4862010000000  0.5471170000000  0.5428910000000 1.0
C      1  0.5692570000000  0.5010330000000  0.4004340000000 1.0
C      1  0.5756610000000  0.5869130000000  0.4648140000000 1.0
C      1  0.5736700000000  0.5499890000000  0.5639820000000 1.0
C      1  0.5633910000000  0.4489250000000  0.5802180000000 1.0
C      1  0.5770760000000  0.4051840000000  0.4853980000000 1.0
C      1  0.5725530000000  0.4365550000000  0.5498040000000 1.0
C      1  0.5734250000000  0.4207380000000  0.4567320000000 1.0
C      1  0.5753580000000  0.5290270000000  0.4184410000000 1.0
C      1  0.5781220000000  0.5788940000000  0.4959080000000 1.0
C      1  0.5740300000000  0.5257870000000  0.5808170000000 1.0
C      1  0.4001510000000  0.5586400000000  0.5340310000000 1.0
C      1  0.3897440000000  0.4802550000000  0.5604260000000 1.0
C      1  0.4211020000000  0.4379350000000  0.5012920000000 1.0
C      1  0.4185860000000  0.4699810000000  0.4349720000000 1.0
C      1  0.4173500000000  0.5519130000000  0.4566070000000 1.0
C      1  0.4831640000000  0.5441700000000  0.4474100000000 1.0
C      1  0.4844020000000  0.5646720000000  0.5137910000000 1.0
C      1  0.4809340000000  0.5017850000000  0.5741630000000 1.0
C      1  0.4804700000000  0.4387450000000  0.5263910000000 1.0
C      1  0.4792730000000  0.4585560000000  0.4497490000000 1.0
C      1  0.5341170000000  0.3764220000000  0.4873900000000 1.0
C      1  0.5265600000000  0.4940450000000  0.3789450000000 1.0
C      1  0.5330180000000  0.6103390000000  0.4509870000000 1.0
C      1  0.5326690000000  0.5748330000000  0.5801720000000 1.0
C      1  0.5281670000000  0.4428550000000  0.5990540000000 1.0
C      1  0.4880540000000  0.4534900000000  0.3989930000000 1.0
C      1  0.4792040000000  0.5727240000000  0.4130610000000 1.0
C      1  0.4823070000000  0.6054870000000  0.5328050000000 1.0
C      1  0.4769150000000  0.5117190000000  0.6161350000000 1.0
C      1  0.4900700000000  0.3808420000000  0.5139440000000 1.0
C      1  0.4619270000000  0.4602520000000  0.4983890000000 1.0
C      1  0.4585160000000  0.4829490000000  0.4736990000000 1.0
C      1  0.4604420000000  0.5318640000000  0.4803280000000 1.0
C      1  0.4494670000000  0.5352800000000  0.5326990000000 1.0
C      1  0.4543630000000  0.4827690000000  0.5511200000000 1.0
C      1  0.4781170000000  0.5200000000000  0.5226160000000 1.0
C      1  0.4791250000000  0.4920150000000  0.5354970000000 1.0
C      1  0.4875390000000  0.4704400000000  0.5163150000000 1.0
C      1  0.4847600000000  0.4966870000000  0.4677480000000 1.0
C      1  0.4864530000000  0.5177110000000  0.4935880000000 1.0
C      1  0.5614120000000  0.5024670000000  0.4592340000000 1.0
C      1  0.5619880000000  0.5323430000000  0.4878110000000 1.0
C      1  0.5543280000000  0.5180940000000  0.5243260000000 1.0
C      1  0.5556080000000  0.4695370000000  0.5286720000000 1.0
C      1  0.5464560000000  0.4673910000000  0.4901990000000 1.0
C      1  0.5145760000000  0.5001730000000  0.4859180000000 1.0
END
