TITL C-2622967-6265-877 -0.000959746670030895 125000 -497.527902471809 0 0 88 (C1) n - 1
REM
REM in /nfs/bkarasulu/CARBON/AIRSS/Generating-Clusters/AIREBO/with-SteepDescent/Higher-Symm/SD-CG/HFTN-CG
REM
REM
REM
REM
REM
REM ./C.cell (b20cbc046b6831c77cfcea5457e17084)
REM
REM compiler GCC version 9.2.1 20190827 (Red Hat 9.2.1-1)
REM options -cpp -mtune=generic -march=x86-64 -g -O0 -fpre-include=/usr/include/finclude/math-vector-fortran.h
REM seed 606930681 1717123452 -181598351 900207270 -1023672296 1799901048 1987033059 -1578753955 562261892 694167575 -423733786 -1875097681 -2071356807 1280652161 -506610965 -1662912455 1688054059 -1541969110 1199714719 374412287 2112561672 -1657006550 2082385134 -506581242 711460885 -1787537241 -1457750993 2092404092 520429339 -310712438 2042307228 1402100807 -1570119524
REM
CELL 1.54180   50.00000   50.00000   50.00000   90.00000   90.00000   90.00000
LATT -1
SFAC C  
C      1  0.5326250000000  0.5343640000000  0.5780230000000 1.0
C      1  0.5304630000000  0.5778540000000  0.5126640000000 1.0
C      1  0.4445250000000  0.5392960000000  0.4515130000000 1.0
C      1  0.4644740000000  0.5281720000000  0.4323630000000 1.0
C      1  0.4902280000000  0.4223720000000  0.4528030000000 1.0
C      1  0.5333260000000  0.5388280000000  0.5209380000000 1.0
C      1  0.4320570000000  0.4825020000000  0.5043730000000 1.0
C      1  0.5012920000000  0.5330610000000  0.5110140000000 1.0
C      1  0.4627580000000  0.4938940000000  0.5135640000000 1.0
C      1  0.4826500000000  0.4666670000000  0.4276610000000 1.0
C      1  0.5246070000000  0.4130820000000  0.4958780000000 1.0
C      1  0.4704230000000  0.4660590000000  0.5315340000000 1.0
C      1  0.5891990000000  0.5182760000000  0.5015050000000 1.0
C      1  0.4789200000000  0.4947000000000  0.4771300000000 1.0
C      1  0.5731530000000  0.5626190000000  0.4564810000000 1.0
C      1  0.4957130000000  0.4218610000000  0.5424300000000 1.0
C      1  0.4902220000000  0.4901200000000  0.4071350000000 1.0
C      1  0.4553790000000  0.4817420000000  0.4242300000000 1.0
C      1  0.5643140000000  0.4750840000000  0.4994250000000 1.0
C      1  0.5238550000000  0.4878010000000  0.5183410000000 1.0
C      1  0.4329790000000  0.4315840000000  0.4977540000000 1.0
C      1  0.5721430000000  0.4987090000000  0.5478020000000 1.0
C      1  0.5364680000000  0.5657200000000  0.5415170000000 1.0
C      1  0.4491550000000  0.5626430000000  0.4645180000000 1.0
C      1  0.4566410000000  0.4213160000000  0.5183110000000 1.0
C      1  0.4954110000000  0.5001570000000  0.5063680000000 1.0
C      1  0.4088200000000  0.5021220000000  0.4987380000000 1.0
C      1  0.4572560000000  0.4818880000000  0.5887910000000 1.0
C      1  0.5205540000000  0.5787220000000  0.5633190000000 1.0
C      1  0.4592500000000  0.4522700000000  0.5039570000000 1.0
C      1  0.5232300000000  0.5580740000000  0.4488320000000 1.0
C      1  0.5557640000000  0.5148700000000  0.4606340000000 1.0
C      1  0.4597430000000  0.4816580000000  0.5565710000000 1.0
C      1  0.5508970000000  0.5468780000000  0.4601130000000 1.0
C      1  0.4312320000000  0.5015650000000  0.5393920000000 1.0
C      1  0.5088080000000  0.5077220000000  0.4686250000000 1.0
C      1  0.4305790000000  0.4692080000000  0.5323810000000 1.0
C      1  0.5626010000000  0.5545590000000  0.5134880000000 1.0
C      1  0.5175110000000  0.4578580000000  0.5180060000000 1.0
C      1  0.4975040000000  0.4038950000000  0.4976990000000 1.0
C      1  0.4829410000000  0.4094050000000  0.5215630000000 1.0
C      1  0.5136610000000  0.4500510000000  0.4854360000000 1.0
C      1  0.5501850000000  0.5408400000000  0.5571980000000 1.0
C      1  0.5645280000000  0.5037880000000  0.4881650000000 1.0
C      1  0.5360260000000  0.4495690000000  0.4523470000000 1.0
C      1  0.4591560000000  0.5170720000000  0.5380460000000 1.0
C      1  0.5393370000000  0.5011810000000  0.4427080000000 1.0
C      1  0.5034170000000  0.4677630000000  0.5663350000000 1.0
C      1  0.4285970000000  0.5210980000000  0.5133180000000 1.0
C      1  0.5264610000000  0.5167870000000  0.4229390000000 1.0
C      1  0.5461670000000  0.4575950000000  0.4901040000000 1.0
C      1  0.5333160000000  0.4296410000000  0.5171340000000 1.0
C      1  0.4707890000000  0.5741660000000  0.5136940000000 1.0
C      1  0.4782730000000  0.5648650000000  0.5381140000000 1.0
C      1  0.5114670000000  0.5376890000000  0.4347610000000 1.0
C      1  0.4811580000000  0.5361770000000  0.4837750000000 1.0
C      1  0.4968960000000  0.4533110000000  0.5403970000000 1.0
C      1  0.4966540000000  0.4549200000000  0.4563880000000 1.0
C      1  0.4853550000000  0.4032760000000  0.4720070000000 1.0
C      1  0.4311650000000  0.4414500000000  0.5301390000000 1.0
C      1  0.4952960000000  0.5249500000000  0.5677440000000 1.0
C      1  0.5124680000000  0.5612000000000  0.4955160000000 1.0
C      1  0.4891950000000  0.5760640000000  0.5611050000000 1.0
C      1  0.4419010000000  0.4618480000000  0.4632140000000 1.0
C      1  0.5693000000000  0.4751200000000  0.5266410000000 1.0
C      1  0.4854200000000  0.4943290000000  0.5742750000000 1.0
C      1  0.5429010000000  0.4839910000000  0.5445760000000 1.0
C      1  0.5053850000000  0.5715920000000  0.4667270000000 1.0
C      1  0.4274780000000  0.4399270000000  0.4692640000000 1.0
C      1  0.4833810000000  0.5342950000000  0.5399420000000 1.0
C      1  0.5268950000000  0.5339800000000  0.4805080000000 1.0
C      1  0.5579430000000  0.5824940000000  0.5025580000000 1.0
C      1  0.5227570000000  0.5072590000000  0.5801730000000 1.0
C      1  0.5726820000000  0.5264880000000  0.5469700000000 1.0
C      1  0.4879880000000  0.5275090000000  0.4515420000000 1.0
C      1  0.5319030000000  0.4262720000000  0.4693720000000 1.0
C      1  0.4643400000000  0.5084680000000  0.4125140000000 1.0
C      1  0.4709330000000  0.4633410000000  0.4764580000000 1.0
C      1  0.5145630000000  0.5026260000000  0.4017020000000 1.0
C      1  0.5365820000000  0.5115170000000  0.5026970000000 1.0
C      1  0.4506230000000  0.5091560000000  0.4645620000000 1.0
C      1  0.4548040000000  0.5210680000000  0.4947280000000 1.0
C      1  0.5825100000000  0.5368340000000  0.5220500000000 1.0
C      1  0.5273550000000  0.4831180000000  0.5688640000000 1.0
C      1  0.5204310000000  0.4791810000000  0.4546190000000 1.0
C      1  0.4407300000000  0.4848150000000  0.4477520000000 1.0
C      1  0.4753810000000  0.5680110000000  0.4824570000000 1.0
C      1  0.5065750000000  0.5541310000000  0.5810760000000 1.0
END
