TITL C-2622956-4641-586 -0.00148095777620597 125000 -863.833387498502 0 0 158 (C1) n - 1
REM
REM in /nfs/bkarasulu/CARBON/AIRSS/Generating-Clusters/AIREBO/with-SteepDescent/Higher-Symm/SD-CG/HFTN-CG
REM
REM
REM
REM
REM
REM ./C.cell (b20cbc046b6831c77cfcea5457e17084)
REM
REM compiler GCC version 9.2.1 20190827 (Red Hat 9.2.1-1)
REM options -cpp -mtune=generic -march=x86-64 -g -O0 -fpre-include=/usr/include/finclude/math-vector-fortran.h
REM seed -398819364 657558086 -1088232527 2052047905 -1970823996 -209150738 37501920 -703286799 805262817 -1280548777 1618281820 1201901361 477309634 1884975597 1750815142 -818971714 -543059586 1618746990 -2050408908 -73289929 1700978659 -1118448183 -664848808 -690883475 -461041479 1396134108 1927996280 -619386218 456175455 1633247496 -1144209481 251684736 1018663298
REM
CELL 1.54180   50.00000   50.00000   50.00000   90.00000   90.00000   90.00000
LATT -1
SFAC C  
C      1  0.3864960000000  0.5195360000000  0.4628190000000 1.0
C      1  0.3796150000000  0.4851290000000  0.5214950000000 1.0
C      1  0.3724370000000  0.5133690000000  0.5216830000000 1.0
C      1  0.3753490000000  0.4944120000000  0.4597080000000 1.0
C      1  0.5049970000000  0.5094250000000  0.5322100000000 1.0
C      1  0.5008670000000  0.4822970000000  0.4682500000000 1.0
C      1  0.4995670000000  0.5121590000000  0.4690870000000 1.0
C      1  0.5115980000000  0.4814190000000  0.5230370000000 1.0
C      1  0.5288480000000  0.4483980000000  0.4896830000000 1.0
C      1  0.5325070000000  0.5572360000000  0.5073060000000 1.0
C      1  0.5357180000000  0.4496330000000  0.5209290000000 1.0
C      1  0.5401300000000  0.5492740000000  0.4783890000000 1.0
C      1  0.5648540000000  0.5227180000000  0.5149610000000 1.0
C      1  0.5889090000000  0.4984090000000  0.4896700000000 1.0
C      1  0.5714210000000  0.5248770000000  0.4832380000000 1.0
C      1  0.5749330000000  0.4761050000000  0.5066520000000 1.0
C      1  0.5016980000000  0.4143770000000  0.4575280000000 1.0
C      1  0.5109010000000  0.5735180000000  0.5616960000000 1.0
C      1  0.5141160000000  0.4222540000000  0.5630660000000 1.0
C      1  0.5109420000000  0.5736170000000  0.4376800000000 1.0
C      1  0.5183000000000  0.4891630000000  0.4256610000000 1.0
C      1  0.5285170000000  0.5130160000000  0.5803480000000 1.0
C      1  0.5231720000000  0.4853410000000  0.5761080000000 1.0
C      1  0.5257820000000  0.5185350000000  0.4197210000000 1.0
C      1  0.5596180000000  0.4394930000000  0.4866150000000 1.0
C      1  0.5592150000000  0.5541520000000  0.5260650000000 1.0
C      1  0.5754260000000  0.4442770000000  0.5163420000000 1.0
C      1  0.5713500000000  0.5575000000000  0.4737340000000 1.0
C      1  0.4538490000000  0.4267100000000  0.4699970000000 1.0
C      1  0.4508200000000  0.5877650000000  0.5268520000000 1.0
C      1  0.4580840000000  0.4075590000000  0.5438460000000 1.0
C      1  0.4451610000000  0.5902720000000  0.5021930000000 1.0
C      1  0.6001910000000  0.4894120000000  0.4653750000000 1.0
C      1  0.5942550000000  0.5154200000000  0.5300000000000 1.0
C      1  0.5953170000000  0.4874210000000  0.5291310000000 1.0
C      1  0.6078420000000  0.5118430000000  0.4491690000000 1.0
C      1  0.4698680000000  0.5823330000000  0.4831150000000 1.0
C      1  0.4664690000000  0.4204920000000  0.5199080000000 1.0
C      1  0.4792940000000  0.5737500000000  0.5318750000000 1.0
C      1  0.4774690000000  0.4201890000000  0.4888890000000 1.0
C      1  0.5220870000000  0.4189010000000  0.5157810000000 1.0
C      1  0.5188400000000  0.5984220000000  0.4842520000000 1.0
C      1  0.5237740000000  0.4096230000000  0.4829490000000 1.0
C      1  0.5211720000000  0.5867600000000  0.5161610000000 1.0
C      1  0.4903400000000  0.4285960000000  0.5807980000000 1.0
C      1  0.4871330000000  0.5652710000000  0.4176100000000 1.0
C      1  0.4889310000000  0.4288480000000  0.4293720000000 1.0
C      1  0.4876800000000  0.5664180000000  0.5755470000000 1.0
C      1  0.4668490000000  0.5218780000000  0.4182980000000 1.0
C      1  0.4524810000000  0.4637540000000  0.5831330000000 1.0
C      1  0.4524270000000  0.5292940000000  0.5844060000000 1.0
C      1  0.4518640000000  0.4625170000000  0.4121240000000 1.0
C      1  0.5628310000000  0.4056450000000  0.4868250000000 1.0
C      1  0.5603130000000  0.5847100000000  0.5154220000000 1.0
C      1  0.5615990000000  0.4145280000000  0.5174150000000 1.0
C      1  0.5562990000000  0.5850230000000  0.4851000000000 1.0
C      1  0.5320190000000  0.4689080000000  0.4470710000000 1.0
C      1  0.5396350000000  0.5317390000000  0.5578360000000 1.0
C      1  0.5341010000000  0.4647520000000  0.5513470000000 1.0
C      1  0.5309660000000  0.5366240000000  0.4481850000000 1.0
C      1  0.5591630000000  0.4882890000000  0.4416610000000 1.0
C      1  0.5564810000000  0.5117380000000  0.5451200000000 1.0
C      1  0.5595580000000  0.4857450000000  0.5596030000000 1.0
C      1  0.5581190000000  0.5167320000000  0.4530610000000 1.0
C      1  0.5744560000000  0.5507290000000  0.5531650000000 1.0
C      1  0.5700340000000  0.4470590000000  0.4586870000000 1.0
C      1  0.5811190000000  0.5595020000000  0.4433990000000 1.0
C      1  0.5784210000000  0.4456120000000  0.5478940000000 1.0
C      1  0.5390460000000  0.4601130000000  0.4087750000000 1.0
C      1  0.5394030000000  0.5409840000000  0.5963400000000 1.0
C      1  0.5419330000000  0.4607990000000  0.5902770000000 1.0
C      1  0.5522100000000  0.5373330000000  0.4144020000000 1.0
C      1  0.4663310000000  0.5495890000000  0.4560070000000 1.0
C      1  0.4685980000000  0.4536530000000  0.5480600000000 1.0
C      1  0.4686380000000  0.5454250000000  0.5473800000000 1.0
C      1  0.4603270000000  0.4567430000000  0.4567640000000 1.0
C      1  0.4802370000000  0.5276870000000  0.4863800000000 1.0
C      1  0.4889240000000  0.4660780000000  0.5162720000000 1.0
C      1  0.4829840000000  0.5234350000000  0.5173600000000 1.0
C      1  0.4784170000000  0.4721450000000  0.4887100000000 1.0
C      1  0.5068510000000  0.4469280000000  0.4507220000000 1.0
C      1  0.5181650000000  0.5499840000000  0.5451080000000 1.0
C      1  0.5025850000000  0.4519630000000  0.5511870000000 1.0
C      1  0.5003520000000  0.5494990000000  0.4555970000000 1.0
C      1  0.4289020000000  0.4819160000000  0.4526380000000 1.0
C      1  0.4235860000000  0.5292250000000  0.5568700000000 1.0
C      1  0.4322670000000  0.4786230000000  0.5380740000000 1.0
C      1  0.4248110000000  0.5335870000000  0.4318430000000 1.0
C      1  0.5510360000000  0.4389200000000  0.5655620000000 1.0
C      1  0.5492070000000  0.5628930000000  0.4366280000000 1.0
C      1  0.5466790000000  0.4403740000000  0.4357710000000 1.0
C      1  0.5479680000000  0.5615770000000  0.5699140000000 1.0
C      1  0.4937340000000  0.4359050000000  0.5226000000000 1.0
C      1  0.4904450000000  0.5590830000000  0.4859830000000 1.0
C      1  0.4961890000000  0.4451710000000  0.4823070000000 1.0
C      1  0.5003290000000  0.5516840000000  0.5168050000000 1.0
C      1  0.4846580000000  0.5355700000000  0.5833210000000 1.0
C      1  0.4805930000000  0.4555970000000  0.4107210000000 1.0
C      1  0.4855160000000  0.5381260000000  0.4045110000000 1.0
C      1  0.4855750000000  0.4596180000000  0.5871560000000 1.0
C      1  0.4610860000000  0.4278190000000  0.5679510000000 1.0
C      1  0.4598440000000  0.5665120000000  0.4312440000000 1.0
C      1  0.4575090000000  0.4312900000000  0.4364500000000 1.0
C      1  0.4596450000000  0.5722820000000  0.5662080000000 1.0
C      1  0.5058680000000  0.3892820000000  0.5121880000000 1.0
C      1  0.4886920000000  0.6075880000000  0.4815030000000 1.0
C      1  0.4938830000000  0.3934210000000  0.4832760000000 1.0
C      1  0.4916190000000  0.5976220000000  0.5128200000000 1.0
C      1  0.4107380000000  0.4893190000000  0.5175530000000 1.0
C      1  0.4189460000000  0.5277900000000  0.4615370000000 1.0
C      1  0.4153960000000  0.4824720000000  0.4845510000000 1.0
C      1  0.4202460000000  0.5200650000000  0.5285700000000 1.0
C      1  0.4397800000000  0.5134670000000  0.4181630000000 1.0
C      1  0.4338360000000  0.4819280000000  0.5660780000000 1.0
C      1  0.4326660000000  0.5074850000000  0.5756730000000 1.0
C      1  0.4361580000000  0.4858650000000  0.4251580000000 1.0
C      1  0.4523640000000  0.4502660000000  0.5183380000000 1.0
C      1  0.4507500000000  0.5543470000000  0.4858440000000 1.0
C      1  0.4431620000000  0.4539380000000  0.4869980000000 1.0
C      1  0.4518060000000  0.5481960000000  0.5181890000000 1.0
C      1  0.4375030000000  0.4352000000000  0.5892140000000 1.0
C      1  0.4328680000000  0.5602070000000  0.4246390000000 1.0
C      1  0.4359220000000  0.4360740000000  0.4125550000000 1.0
C      1  0.4371950000000  0.5532030000000  0.5707920000000 1.0
C      1  0.4503660000000  0.5145060000000  0.5138090000000 1.0
C      1  0.4488100000000  0.4867110000000  0.4797990000000 1.0
C      1  0.4462800000000  0.5206330000000  0.4806060000000 1.0
C      1  0.4598330000000  0.4827520000000  0.5221450000000 1.0
C      1  0.4736780000000  0.4829180000000  0.5646940000000 1.0
C      1  0.4748590000000  0.5199580000000  0.4476130000000 1.0
C      1  0.4707630000000  0.4889870000000  0.4539220000000 1.0
C      1  0.4816080000000  0.5150130000000  0.5563530000000 1.0
C      1  0.5353890000000  0.5855420000000  0.4582170000000 1.0
C      1  0.5404540000000  0.4144350000000  0.5440560000000 1.0
C      1  0.5388680000000  0.5838080000000  0.5451000000000 1.0
C      1  0.5466630000000  0.4147800000000  0.4583280000000 1.0
C      1  0.3857770000000  0.4744210000000  0.4768530000000 1.0
C      1  0.3945720000000  0.5290560000000  0.5127020000000 1.0
C      1  0.3711260000000  0.4679880000000  0.5004210000000 1.0
C      1  0.3975060000000  0.5368000000000  0.4865860000000 1.0
C      1  0.5070460000000  0.4698360000000  0.4022960000000 1.0
C      1  0.5079870000000  0.5272580000000  0.6007490000000 1.0
C      1  0.5103950000000  0.4702210000000  0.6012730000000 1.0
C      1  0.5068600000000  0.5218960000000  0.3965400000000 1.0
C      1  0.5597040000000  0.5120650000000  0.3996850000000 1.0
C      1  0.5595670000000  0.4903360000000  0.5915210000000 1.0
C      1  0.5609660000000  0.5155900000000  0.6032640000000 1.0
C      1  0.5552900000000  0.4859960000000  0.4110050000000 1.0
C      1  0.5868540000000  0.5304800000000  0.4455340000000 1.0
C      1  0.5857290000000  0.4732520000000  0.5519240000000 1.0
C      1  0.5969230000000  0.5358140000000  0.5500030000000 1.0
C      1  0.5816880000000  0.4720920000000  0.4532440000000 1.0
C      1  0.5324200000000  0.5130630000000  0.5116090000000 1.0
C      1  0.5295700000000  0.4772160000000  0.4777760000000 1.0
C      1  0.5233440000000  0.5235160000000  0.4850870000000 1.0
C      1  0.5424590000000  0.4806970000000  0.5087760000000 1.0
C      1  0.5043460000000  0.4973640000000  0.3836790000000 1.0
C      1  0.5081780000000  0.4987090000000  0.6130390000000 1.0
END
