TITL C-2622967-6265-438 -0.000209572870045193 125000 -939.441170888582 0 0 172 (C1) n - 1
REM
REM in /nfs/bkarasulu/CARBON/AIRSS/Generating-Clusters/AIREBO/with-SteepDescent/Higher-Symm/SD-CG/HFTN-CG
REM
REM
REM
REM
REM
REM ./C.cell (b20cbc046b6831c77cfcea5457e17084)
REM
REM compiler GCC version 9.2.1 20190827 (Red Hat 9.2.1-1)
REM options -cpp -mtune=generic -march=x86-64 -g -O0 -fpre-include=/usr/include/finclude/math-vector-fortran.h
REM seed -2145650316 497827089 -1170956630 -2048040708 786876284 1510585531 62071413 1959924358 -1480305912 -1592690859 343014566 -2072828647 -1568358913 -1110389933 1843944085 -1822459189 114427993 -358060629 1821676695 -117112524 125919205 -1413217139 -1410025495 -1360132398 36403984 -156194118 2070238838 -57627683 -948067186 369117354 56781783 -734237994 230439134
REM
CELL 1.54180   50.00000   50.00000   50.00000   90.00000   90.00000   90.00000
LATT -1
SFAC C  
C      1  0.5210130000000  0.4784380000000  0.4657920000000 1.0
C      1  0.5109460000000  0.5119350000000  0.5382200000000 1.0
C      1  0.5746450000000  0.4474000000000  0.5458810000000 1.0
C      1  0.5748390000000  0.5452530000000  0.4644780000000 1.0
C      1  0.5408230000000  0.4504210000000  0.4174500000000 1.0
C      1  0.5321500000000  0.5542640000000  0.5705410000000 1.0
C      1  0.5859040000000  0.4754890000000  0.5691690000000 1.0
C      1  0.5863620000000  0.5264290000000  0.4313380000000 1.0
C      1  0.4092340000000  0.5079080000000  0.4401700000000 1.0
C      1  0.4175200000000  0.5025840000000  0.5683830000000 1.0
C      1  0.4878510000000  0.4690980000000  0.4291480000000 1.0
C      1  0.4936890000000  0.5307720000000  0.5705200000000 1.0
C      1  0.4500170000000  0.4112550000000  0.5285580000000 1.0
C      1  0.4476550000000  0.5958400000000  0.4663510000000 1.0
C      1  0.5209700000000  0.4295400000000  0.4100140000000 1.0
C      1  0.5177670000000  0.5805480000000  0.5836930000000 1.0
C      1  0.5330390000000  0.4417630000000  0.5811650000000 1.0
C      1  0.5314910000000  0.5478050000000  0.4152230000000 1.0
C      1  0.4188070000000  0.5624020000000  0.5301430000000 1.0
C      1  0.4237020000000  0.4484170000000  0.4709240000000 1.0
C      1  0.4503890000000  0.4560540000000  0.4304330000000 1.0
C      1  0.4601200000000  0.5349500000000  0.5502570000000 1.0
C      1  0.5501090000000  0.4951940000000  0.3982050000000 1.0
C      1  0.5482730000000  0.5082390000000  0.6015140000000 1.0
C      1  0.3926490000000  0.4348340000000  0.4919650000000 1.0
C      1  0.3980020000000  0.5515410000000  0.5043080000000 1.0
C      1  0.4905180000000  0.5777790000000  0.4669380000000 1.0
C      1  0.5061910000000  0.4357440000000  0.5210190000000 1.0
C      1  0.3848750000000  0.5226370000000  0.4513330000000 1.0
C      1  0.3983410000000  0.4955840000000  0.5435610000000 1.0
C      1  0.4995580000000  0.3970390000000  0.4421760000000 1.0
C      1  0.4933640000000  0.6053210000000  0.5442140000000 1.0
C      1  0.5366730000000  0.4907600000000  0.5620240000000 1.0
C      1  0.5379680000000  0.5157190000000  0.4439370000000 1.0
C      1  0.4684510000000  0.4611650000000  0.4853190000000 1.0
C      1  0.4635710000000  0.5416210000000  0.5066180000000 1.0
C      1  0.4683130000000  0.5330060000000  0.6131450000000 1.0
C      1  0.4607230000000  0.4518930000000  0.3833730000000 1.0
C      1  0.5125990000000  0.5934850000000  0.4965010000000 1.0
C      1  0.5143270000000  0.4046670000000  0.5203460000000 1.0
C      1  0.5212870000000  0.4293290000000  0.5508760000000 1.0
C      1  0.5149970000000  0.5675200000000  0.4456830000000 1.0
C      1  0.5931790000000  0.5237140000000  0.5549760000000 1.0
C      1  0.5965970000000  0.4866940000000  0.4446030000000 1.0
C      1  0.4126890000000  0.4849570000000  0.4595320000000 1.0
C      1  0.4347630000000  0.5136340000000  0.5412330000000 1.0
C      1  0.4894770000000  0.3885370000000  0.5344280000000 1.0
C      1  0.5209000000000  0.5958110000000  0.4636000000000 1.0
C      1  0.4895980000000  0.5004010000000  0.5620510000000 1.0
C      1  0.4795810000000  0.4994850000000  0.4423090000000 1.0
C      1  0.5222040000000  0.4099960000000  0.4305640000000 1.0
C      1  0.5171090000000  0.6007520000000  0.5634030000000 1.0
C      1  0.5675990000000  0.5373490000000  0.5631540000000 1.0
C      1  0.5687610000000  0.4701770000000  0.4374990000000 1.0
C      1  0.4594620000000  0.4460530000000  0.5683020000000 1.0
C      1  0.4562500000000  0.5460230000000  0.4290270000000 1.0
C      1  0.4982230000000  0.5335370000000  0.4320560000000 1.0
C      1  0.4974030000000  0.4576360000000  0.5643950000000 1.0
C      1  0.4100690000000  0.4798960000000  0.5237210000000 1.0
C      1  0.3924910000000  0.5356830000000  0.4764140000000 1.0
C      1  0.5005900000000  0.5290240000000  0.4876500000000 1.0
C      1  0.5017340000000  0.4674310000000  0.5094400000000 1.0
C      1  0.5317700000000  0.5010570000000  0.4867490000000 1.0
C      1  0.5263610000000  0.4892010000000  0.5181580000000 1.0
C      1  0.4522720000000  0.5163510000000  0.5993110000000 1.0
C      1  0.4530950000000  0.4702720000000  0.4060970000000 1.0
C      1  0.5821370000000  0.5575470000000  0.4953350000000 1.0
C      1  0.5871070000000  0.4451420000000  0.5139260000000 1.0
C      1  0.4319360000000  0.4799180000000  0.5829890000000 1.0
C      1  0.4379060000000  0.5124980000000  0.4181080000000 1.0
C      1  0.5750340000000  0.4176640000000  0.5293950000000 1.0
C      1  0.6007990000000  0.5628090000000  0.4529780000000 1.0
C      1  0.4767580000000  0.4411440000000  0.4442660000000 1.0
C      1  0.4880320000000  0.5543690000000  0.5489380000000 1.0
C      1  0.3941690000000  0.4635290000000  0.4783720000000 1.0
C      1  0.4176390000000  0.5306590000000  0.5235310000000 1.0
C      1  0.5390770000000  0.5291010000000  0.4980080000000 1.0
C      1  0.5450230000000  0.4651020000000  0.5030870000000 1.0
C      1  0.5599130000000  0.5260810000000  0.5183440000000 1.0
C      1  0.5647630000000  0.4761150000000  0.4834630000000 1.0
C      1  0.4739910000000  0.4231350000000  0.5675860000000 1.0
C      1  0.4706960000000  0.5697160000000  0.4264920000000 1.0
C      1  0.4302610000000  0.4617100000000  0.4461000000000 1.0
C      1  0.4387390000000  0.5272120000000  0.5744220000000 1.0
C      1  0.4563220000000  0.4005850000000  0.4657190000000 1.0
C      1  0.4531670000000  0.6228140000000  0.5187220000000 1.0
C      1  0.4104020000000  0.4884180000000  0.4939020000000 1.0
C      1  0.4170530000000  0.5186760000000  0.4926500000000 1.0
C      1  0.4454520000000  0.5700890000000  0.5108640000000 1.0
C      1  0.4463060000000  0.4345030000000  0.4917920000000 1.0
C      1  0.4321390000000  0.4568450000000  0.5684460000000 1.0
C      1  0.4283670000000  0.5349170000000  0.4402580000000 1.0
C      1  0.5533720000000  0.5372090000000  0.5909110000000 1.0
C      1  0.5615170000000  0.4699510000000  0.4055510000000 1.0
C      1  0.5205990000000  0.5561210000000  0.5392530000000 1.0
C      1  0.5017590000000  0.4305060000000  0.4649550000000 1.0
C      1  0.5641450000000  0.4253930000000  0.4978610000000 1.0
C      1  0.5613960000000  0.5739030000000  0.5049860000000 1.0
C      1  0.5851130000000  0.5128650000000  0.4628270000000 1.0
C      1  0.5857120000000  0.4944300000000  0.5455470000000 1.0
C      1  0.5443650000000  0.5500240000000  0.4761620000000 1.0
C      1  0.5478470000000  0.4469130000000  0.5273400000000 1.0
C      1  0.4496340000000  0.4855000000000  0.5292460000000 1.0
C      1  0.4439600000000  0.5247570000000  0.4762010000000 1.0
C      1  0.5412940000000  0.6021100000000  0.5496570000000 1.0
C      1  0.5416670000000  0.4150660000000  0.4506560000000 1.0
C      1  0.4235850000000  0.5809690000000  0.4666040000000 1.0
C      1  0.4301090000000  0.4302390000000  0.5280490000000 1.0
C      1  0.5477060000000  0.4351520000000  0.4738290000000 1.0
C      1  0.5465370000000  0.5771390000000  0.5327700000000 1.0
C      1  0.5725770000000  0.4525330000000  0.4646710000000 1.0
C      1  0.5598750000000  0.5492640000000  0.5364150000000 1.0
C      1  0.4594930000000  0.4983680000000  0.4078270000000 1.0
C      1  0.4570810000000  0.4881560000000  0.5960370000000 1.0
C      1  0.4885060000000  0.5771170000000  0.5283880000000 1.0
C      1  0.5004550000000  0.4007980000000  0.4734200000000 1.0
C      1  0.4921900000000  0.5070110000000  0.4116250000000 1.0
C      1  0.4893170000000  0.4796660000000  0.5890070000000 1.0
C      1  0.4733910000000  0.4858020000000  0.5052340000000 1.0
C      1  0.4713180000000  0.5125010000000  0.4908560000000 1.0
C      1  0.5351450000000  0.4757000000000  0.4390840000000 1.0
C      1  0.5366760000000  0.5242550000000  0.5570340000000 1.0
C      1  0.5425200000000  0.4138930000000  0.5211190000000 1.0
C      1  0.5403870000000  0.5802390000000  0.4840100000000 1.0
C      1  0.6095310000000  0.5378760000000  0.5384520000000 1.0
C      1  0.6031890000000  0.4581850000000  0.4536270000000 1.0
C      1  0.5979930000000  0.5428320000000  0.5115910000000 1.0
C      1  0.5995190000000  0.4662770000000  0.5003930000000 1.0
C      1  0.5917180000000  0.4951250000000  0.4917150000000 1.0
C      1  0.5892270000000  0.5116160000000  0.5161710000000 1.0
C      1  0.4728460000000  0.4102420000000  0.4462360000000 1.0
C      1  0.4683050000000  0.6240520000000  0.5389380000000 1.0
C      1  0.5172730000000  0.5589380000000  0.6068820000000 1.0
C      1  0.5181150000000  0.4524380000000  0.3852210000000 1.0
C      1  0.5179200000000  0.4980260000000  0.5900900000000 1.0
C      1  0.5240480000000  0.4984850000000  0.4199130000000 1.0
C      1  0.5213250000000  0.5250710000000  0.6112140000000 1.0
C      1  0.5024880000000  0.4822350000000  0.3907220000000 1.0
C      1  0.5552540000000  0.4971290000000  0.5342560000000 1.0
C      1  0.5543260000000  0.5004880000000  0.4639260000000 1.0
C      1  0.5655650000000  0.4492430000000  0.5778970000000 1.0
C      1  0.5598890000000  0.5476280000000  0.4340150000000 1.0
C      1  0.5262830000000  0.4628880000000  0.5482310000000 1.0
C      1  0.5182040000000  0.5366100000000  0.4594810000000 1.0
C      1  0.4561770000000  0.5982000000000  0.4970000000000 1.0
C      1  0.4592740000000  0.4037500000000  0.4983380000000 1.0
C      1  0.4152960000000  0.4271980000000  0.5037340000000 1.0
C      1  0.4161330000000  0.5769830000000  0.4950840000000 1.0
C      1  0.4730390000000  0.4405060000000  0.5119430000000 1.0
C      1  0.4830780000000  0.5665670000000  0.4981660000000 1.0
C      1  0.4942530000000  0.5378130000000  0.5994760000000 1.0
C      1  0.4888380000000  0.4539700000000  0.3998120000000 1.0
C      1  0.4893080000000  0.4741390000000  0.4627440000000 1.0
C      1  0.4798270000000  0.5214660000000  0.5283650000000 1.0
C      1  0.5013540000000  0.5635310000000  0.4163530000000 1.0
C      1  0.5025610000000  0.4269800000000  0.5781730000000 1.0
C      1  0.4678950000000  0.5876250000000  0.4491310000000 1.0
C      1  0.4691520000000  0.4036050000000  0.5478140000000 1.0
C      1  0.5126220000000  0.4580520000000  0.6011570000000 1.0
C      1  0.5134030000000  0.5288490000000  0.3964070000000 1.0
C      1  0.4299090000000  0.4590120000000  0.5374040000000 1.0
C      1  0.4215650000000  0.5490000000000  0.4671310000000 1.0
C      1  0.5142240000000  0.5364820000000  0.5149190000000 1.0
C      1  0.5199410000000  0.4517220000000  0.4844240000000 1.0
C      1  0.5581480000000  0.5184160000000  0.4167050000000 1.0
C      1  0.5583330000000  0.4814730000000  0.5859560000000 1.0
C      1  0.4899550000000  0.3945250000000  0.5006030000000 1.0
C      1  0.4873600000000  0.6047910000000  0.5088420000000 1.0
C      1  0.4641340000000  0.4782250000000  0.5580050000000 1.0
C      1  0.4651060000000  0.5245030000000  0.4519930000000 1.0
C      1  0.4817370000000  0.4624420000000  0.5365110000000 1.0
C      1  0.4800230000000  0.5456260000000  0.4704370000000 1.0
END
