TITL C-2622963-3633-403 3.32620869119218e-05 125000 -154.259189337672 0 0 35 (C3h) n - 1
REM
REM in /nfs/bkarasulu/CARBON/AIRSS/Generating-Clusters/AIREBO/with-SteepDescent/Higher-Symm/SD-CG/HFTN-CG
REM
REM
REM
REM
REM
REM ./C.cell (b20cbc046b6831c77cfcea5457e17084)
REM
REM compiler GCC version 9.2.1 20190827 (Red Hat 9.2.1-1)
REM options -cpp -mtune=generic -march=x86-64 -g -O0 -fpre-include=/usr/include/finclude/math-vector-fortran.h
REM seed -467672690 -836028788 -1493437650 -853240155 -1657824140 -439496687 1020333088 -390978783 1842147634 -1250988323 835292311 -1687315443 2003972135 -79049713 -1752035206 803836904 -1822163729 -292957787 -1455069350 2026781533 -102214042 -57033715 -685325081 -1990251943 -1458621331 -114180318 -416513879 159560182 1352438268 -678071546 1572808566 1809906556 963433262
REM
CELL 1.54180   50.00000   50.00000   50.00000   90.00000   90.00000   90.00000
LATT -1
SFAC C  
C      1  0.5425880000000  0.5072300000000  0.4405300000000 1.0
C      1  0.5426770000000  0.4462610000000  0.5236460000000 1.0
C      1  0.5425830000000  0.5487260000000  0.5348880000000 1.0
C      1  0.4506400000000  0.5071420000000  0.4405640000000 1.0
C      1  0.4507290000000  0.4461730000000  0.5236800000000 1.0
C      1  0.4506350000000  0.5486370000000  0.5349220000000 1.0
C      1  0.4674300000000  0.5070260000000  0.4648000000000 1.0
C      1  0.4674850000000  0.4672500000000  0.5116660000000 1.0
C      1  0.4674320000000  0.5277250000000  0.5226800000000 1.0
C      1  0.5258170000000  0.5070820000000  0.4647790000000 1.0
C      1  0.5258720000000  0.4673060000000  0.5116450000000 1.0
C      1  0.5258180000000  0.5277810000000  0.5226590000000 1.0
C      1  0.5397900000000  0.4834340000000  0.4848320000000 1.0
C      1  0.5397900000000  0.4965200000000  0.5221020000000 1.0
C      1  0.5397550000000  0.5222540000000  0.4921340000000 1.0
C      1  0.4535170000000  0.4833520000000  0.4848630000000 1.0
C      1  0.4535180000000  0.4964380000000  0.5221330000000 1.0
C      1  0.4534830000000  0.5221720000000  0.4921650000000 1.0
C      1  0.4767750000000  0.4848470000000  0.5519200000000 1.0
C      1  0.4766850000000  0.5538040000000  0.4873150000000 1.0
C      1  0.4767610000000  0.4633750000000  0.4599000000000 1.0
C      1  0.5165790000000  0.4848860000000  0.5519070000000 1.0
C      1  0.5164880000000  0.5538420000000  0.4873020000000 1.0
C      1  0.5165650000000  0.4634150000000  0.4598850000000 1.0
C      1  0.5108160000000  0.5372370000000  0.4645900000000 1.0
C      1  0.5109050000000  0.4520390000000  0.4856200000000 1.0
C      1  0.5108700000000  0.5128510000000  0.5488890000000 1.0
C      1  0.4823730000000  0.5372090000000  0.4646000000000 1.0
C      1  0.4824620000000  0.4520110000000  0.4856310000000 1.0
C      1  0.4824270000000  0.5128230000000  0.5488990000000 1.0
C      1  0.4966060000000  0.5416330000000  0.5120440000000 1.0
C      1  0.4966350000000  0.4909120000000  0.4580820000000 1.0
C      1  0.4966840000000  0.4695400000000  0.5289890000000 1.0
C      1  0.4291280000000  0.5006300000000  0.4997290000000 1.0
C      1  0.5641570000000  0.5007600000000  0.4996810000000 1.0
END
