TITL C-2622963-3633-517 0.00924851892617696 125000 -570.621226140907 0 0 103 (C1) n - 1
REM
REM in /nfs/bkarasulu/CARBON/AIRSS/Generating-Clusters/AIREBO/with-SteepDescent/Higher-Symm/SD-CG/HFTN-CG
REM
REM
REM
REM
REM
REM ./C.cell (b20cbc046b6831c77cfcea5457e17084)
REM
REM compiler GCC version 9.2.1 20190827 (Red Hat 9.2.1-1)
REM options -cpp -mtune=generic -march=x86-64 -g -O0 -fpre-include=/usr/include/finclude/math-vector-fortran.h
REM seed -1736745380 1020034629 586289180 -302772455 -833107836 1281029036 -1950877416 -1305742085 -490289855 -1368054769 -23385929 -749004969 -758159982 1826418720 -481451964 -489160891 1163905660 -1425381673 2005953688 -1273587375 1900684239 -9506452 1664216865 -342708753 59020276 -1076358916 -2126087052 -1992669385 1623830330 1253613063 -1545395114 1586139357 202205074
REM
CELL 1.54180   50.00000   50.00000   50.00000   90.00000   90.00000   90.00000
LATT -1
SFAC C  
C      1  0.4316720000000  0.5599660000000  0.4685050000000 1.0
C      1  0.4317240000000  0.4376800000000  0.5403450000000 1.0
C      1  0.4947990000000  0.5579290000000  0.5817910000000 1.0
C      1  0.5692190000000  0.4419810000000  0.5442940000000 1.0
C      1  0.5650470000000  0.5533910000000  0.4704600000000 1.0
C      1  0.4974930000000  0.4442280000000  0.4186010000000 1.0
C      1  0.5023890000000  0.4328730000000  0.5493580000000 1.0
C      1  0.5418730000000  0.5696310000000  0.5302990000000 1.0
C      1  0.5474620000000  0.4291880000000  0.4816760000000 1.0
C      1  0.5042990000000  0.5725620000000  0.4501660000000 1.0
C      1  0.4584340000000  0.4302220000000  0.4780620000000 1.0
C      1  0.4591830000000  0.5664030000000  0.5252980000000 1.0
C      1  0.5204570000000  0.5241020000000  0.5138830000000 1.0
C      1  0.5253660000000  0.4761940000000  0.4873960000000 1.0
C      1  0.5155790000000  0.5197250000000  0.4719660000000 1.0
C      1  0.4857120000000  0.4821210000000  0.4740100000000 1.0
C      1  0.4741770000000  0.5176360000000  0.4998690000000 1.0
C      1  0.4978390000000  0.4820490000000  0.5251800000000 1.0
C      1  0.4807930000000  0.5799420000000  0.4350060000000 1.0
C      1  0.4327450000000  0.4229190000000  0.4932460000000 1.0
C      1  0.4563760000000  0.5728910000000  0.5549150000000 1.0
C      1  0.5271870000000  0.4287540000000  0.5669310000000 1.0
C      1  0.5666110000000  0.5683680000000  0.5188280000000 1.0
C      1  0.5475110000000  0.4242540000000  0.4541630000000 1.0
C      1  0.5309780000000  0.5472400000000  0.5471100000000 1.0
C      1  0.5578440000000  0.4544680000000  0.4953410000000 1.0
C      1  0.5238170000000  0.5468930000000  0.4430930000000 1.0
C      1  0.4630510000000  0.4515570000000  0.4542020000000 1.0
C      1  0.4451160000000  0.5478130000000  0.5039870000000 1.0
C      1  0.4793390000000  0.4544680000000  0.5485920000000 1.0
C      1  0.4842900000000  0.5152040000000  0.5554800000000 1.0
C      1  0.5373920000000  0.4860230000000  0.5403590000000 1.0
C      1  0.5491540000000  0.5145150000000  0.4749550000000 1.0
C      1  0.5006890000000  0.4845550000000  0.4449430000000 1.0
C      1  0.4557060000000  0.5151250000000  0.4730330000000 1.0
C      1  0.4441860000000  0.4828550000000  0.5140880000000 1.0
C      1  0.4444040000000  0.5161000000000  0.5162510000000 1.0
C      1  0.4925420000000  0.4842510000000  0.5587020000000 1.0
C      1  0.5445910000000  0.5175940000000  0.5369410000000 1.0
C      1  0.5559900000000  0.4812330000000  0.4735010000000 1.0
C      1  0.5074980000000  0.5173410000000  0.4390150000000 1.0
C      1  0.4529490000000  0.4822240000000  0.4648730000000 1.0
C      1  0.4352980000000  0.5141230000000  0.4303270000000 1.0
C      1  0.3998760000000  0.4910320000000  0.5165780000000 1.0
C      1  0.4619540000000  0.5053890000000  0.5934610000000 1.0
C      1  0.5655640000000  0.4950790000000  0.5771530000000 1.0
C      1  0.5969450000000  0.5080690000000  0.4792460000000 1.0
C      1  0.5315820000000  0.4864000000000  0.4077250000000 1.0
C      1  0.5255830000000  0.5108710000000  0.4113790000000 1.0
C      1  0.4383260000000  0.4893650000000  0.4352570000000 1.0
C      1  0.4104700000000  0.5141910000000  0.5152940000000 1.0
C      1  0.4706010000000  0.4830660000000  0.5846510000000 1.0
C      1  0.5604230000000  0.5179650000000  0.5670330000000 1.0
C      1  0.5891360000000  0.4851130000000  0.4712900000000 1.0
C      1  0.5252270000000  0.5512800000000  0.4991660000000 1.0
C      1  0.5133130000000  0.4494910000000  0.4781720000000 1.0
C      1  0.4963060000000  0.5477370000000  0.4720500000000 1.0
C      1  0.4763200000000  0.4560660000000  0.4915570000000 1.0
C      1  0.4826570000000  0.5429840000000  0.5167020000000 1.0
C      1  0.5084670000000  0.4502260000000  0.5212620000000 1.0
C      1  0.4964270000000  0.4452050000000  0.4528160000000 1.0
C      1  0.4645070000000  0.5539210000000  0.4768800000000 1.0
C      1  0.4686060000000  0.4668340000000  0.5187860000000 1.0
C      1  0.5010320000000  0.5330200000000  0.5395330000000 1.0
C      1  0.5354100000000  0.4670620000000  0.5175860000000 1.0
C      1  0.5357020000000  0.5542020000000  0.4729890000000 1.0
C      1  0.4178510000000  0.4663260000000  0.5060920000000 1.0
C      1  0.4596000000000  0.5280160000000  0.5711090000000 1.0
C      1  0.5441410000000  0.4733420000000  0.5690690000000 1.0
C      1  0.5745200000000  0.5232620000000  0.4949730000000 1.0
C      1  0.5257290000000  0.4682150000000  0.4334320000000 1.0
C      1  0.4573890000000  0.5323940000000  0.4440590000000 1.0
C      1  0.5772580000000  0.5541830000000  0.4969730000000 1.0
C      1  0.5251260000000  0.4364470000000  0.4368240000000 1.0
C      1  0.4561890000000  0.5643280000000  0.4455990000000 1.0
C      1  0.4231190000000  0.4384290000000  0.5134160000000 1.0
C      1  0.4679150000000  0.5564120000000  0.5731810000000 1.0
C      1  0.5490160000000  0.4447140000000  0.5639600000000 1.0
C      1  0.4870840000000  0.5745730000000  0.5108120000000 1.0
C      1  0.5025970000000  0.4162080000000  0.5217110000000 1.0
C      1  0.5192590000000  0.5817620000000  0.5121300000000 1.0
C      1  0.5200370000000  0.4219220000000  0.4941650000000 1.0
C      1  0.5028450000000  0.5794620000000  0.4823930000000 1.0
C      1  0.4861890000000  0.4251410000000  0.4940780000000 1.0
C      1  0.4413640000000  0.4843870000000  0.5566150000000 1.0
C      1  0.5219410000000  0.5157980000000  0.5836320000000 1.0
C      1  0.5819490000000  0.4857310000000  0.5257180000000 1.0
C      1  0.5607050000000  0.5054270000000  0.4301810000000 1.0
C      1  0.4708810000000  0.4964580000000  0.4131320000000 1.0
C      1  0.4098260000000  0.5051980000000  0.4763340000000 1.0
C      1  0.4450500000000  0.5106170000000  0.5492740000000 1.0
C      1  0.5185860000000  0.4899750000000  0.5754480000000 1.0
C      1  0.5715630000000  0.5103890000000  0.5214060000000 1.0
C      1  0.5519050000000  0.4815850000000  0.4418210000000 1.0
C      1  0.4785280000000  0.5199720000000  0.4263010000000 1.0
C      1  0.4235210000000  0.4809400000000  0.4793270000000 1.0
C      1  0.5544780000000  0.5319420000000  0.4462490000000 1.0
C      1  0.4763740000000  0.4689190000000  0.4281400000000 1.0
C      1  0.4275580000000  0.5300500000000  0.4809120000000 1.0
C      1  0.4482660000000  0.4574330000000  0.5519000000000 1.0
C      1  0.5171220000000  0.5421760000000  0.5749620000000 1.0
C      1  0.5742480000000  0.4588490000000  0.5221120000000 1.0
C      1  0.5032200000000  0.5001870000000  0.4969070000000 1.0
END
