TITL C-2622965-4321-824 0.00279117190680963 125000 -815.615211829191 0 0 144 (C1) n - 1
REM
REM in /nfs/bkarasulu/CARBON/AIRSS/Generating-Clusters/AIREBO/with-SteepDescent/Higher-Symm/SD-CG/HFTN-CG
REM
REM
REM
REM
REM
REM ./C.cell (b20cbc046b6831c77cfcea5457e17084)
REM
REM compiler GCC version 9.2.1 20190827 (Red Hat 9.2.1-1)
REM options -cpp -mtune=generic -march=x86-64 -g -O0 -fpre-include=/usr/include/finclude/math-vector-fortran.h
REM seed -1115688255 2084872191 -1173694463 320243344 -641982403 1364610481 -1714996147 814922593 -1778772499 -258685100 -997837171 2086828336 1771014083 515042473 861814324 -1009545650 -566674666 1904329664 29696356 72180350 1528931604 1996339559 2012630485 -447711225 1191017089 710849869 -1403086907 1384533653 -1645989432 -2042931783 906745899 -754312093 2046931349
REM
CELL 1.54180   50.00000   50.00000   50.00000   90.00000   90.00000   90.00000
LATT -1
SFAC C  
C      1  0.4698360000000  0.5370990000000  0.5319350000000 1.0
C      1  0.4961650000000  0.5334280000000  0.5504540000000 1.0
C      1  0.5310530000000  0.5101040000000  0.5318040000000 1.0
C      1  0.5390680000000  0.4814800000000  0.5483280000000 1.0
C      1  0.5076450000000  0.4794420000000  0.5414410000000 1.0
C      1  0.4811760000000  0.4593810000000  0.5484520000000 1.0
C      1  0.4662870000000  0.4979390000000  0.5571580000000 1.0
C      1  0.5807520000000  0.4734880000000  0.5583200000000 1.0
C      1  0.5151420000000  0.4005660000000  0.5804980000000 1.0
C      1  0.4604450000000  0.4221420000000  0.5573850000000 1.0
C      1  0.4128170000000  0.4866230000000  0.5606250000000 1.0
C      1  0.4383360000000  0.5529360000000  0.5685530000000 1.0
C      1  0.5045510000000  0.5757430000000  0.5482230000000 1.0
C      1  0.5663780000000  0.5466440000000  0.5701920000000 1.0
C      1  0.5842160000000  0.4700730000000  0.5101170000000 1.0
C      1  0.5273710000000  0.4078150000000  0.5071160000000 1.0
C      1  0.4532880000000  0.4349840000000  0.5094360000000 1.0
C      1  0.4047440000000  0.5034020000000  0.5153620000000 1.0
C      1  0.4366710000000  0.5711980000000  0.5026740000000 1.0
C      1  0.5117310000000  0.5886770000000  0.5214820000000 1.0
C      1  0.5705050000000  0.5371680000000  0.5113900000000 1.0
C      1  0.5504120000000  0.4983190000000  0.4108320000000 1.0
C      1  0.5132260000000  0.4587010000000  0.4158750000000 1.0
C      1  0.4818350000000  0.4693220000000  0.4134740000000 1.0
C      1  0.4659780000000  0.4963710000000  0.4162390000000 1.0
C      1  0.4626530000000  0.5277600000000  0.4032790000000 1.0
C      1  0.4929750000000  0.5405750000000  0.4105280000000 1.0
C      1  0.5399430000000  0.5305390000000  0.4062520000000 1.0
C      1  0.4710240000000  0.5182150000000  0.6057650000000 1.0
C      1  0.5005370000000  0.5312330000000  0.6133820000000 1.0
C      1  0.5247370000000  0.5241430000000  0.5971920000000 1.0
C      1  0.5464200000000  0.4766490000000  0.6126820000000 1.0
C      1  0.5214810000000  0.4617260000000  0.6122100000000 1.0
C      1  0.4916100000000  0.4627560000000  0.6036810000000 1.0
C      1  0.4685510000000  0.4846390000000  0.6073920000000 1.0
C      1  0.4976020000000  0.4675240000000  0.4917830000000 1.0
C      1  0.4515860000000  0.4898140000000  0.5350940000000 1.0
C      1  0.4770160000000  0.5239720000000  0.5039810000000 1.0
C      1  0.4963520000000  0.5483480000000  0.4902470000000 1.0
C      1  0.5184420000000  0.5311770000000  0.5095780000000 1.0
C      1  0.5303520000000  0.5044210000000  0.4923050000000 1.0
C      1  0.5070970000000  0.4584060000000  0.5181620000000 1.0
C      1  0.5801600000000  0.5232160000000  0.4433910000000 1.0
C      1  0.5581800000000  0.4540670000000  0.4438480000000 1.0
C      1  0.5034750000000  0.4138440000000  0.4339760000000 1.0
C      1  0.4451880000000  0.4425710000000  0.4338930000000 1.0
C      1  0.4191520000000  0.5135060000000  0.4357920000000 1.0
C      1  0.4515200000000  0.5729670000000  0.4223900000000 1.0
C      1  0.5266210000000  0.5695960000000  0.4308530000000 1.0
C      1  0.5293820000000  0.5699990000000  0.5689250000000 1.0
C      1  0.5666360000000  0.5202720000000  0.5769840000000 1.0
C      1  0.5968990000000  0.4588200000000  0.5724330000000 1.0
C      1  0.5094390000000  0.4244500000000  0.5709530000000 1.0
C      1  0.4474300000000  0.4459180000000  0.5654250000000 1.0
C      1  0.4289090000000  0.5078980000000  0.5670770000000 1.0
C      1  0.4624660000000  0.5637730000000  0.5754450000000 1.0
C      1  0.4632250000000  0.4881920000000  0.4491300000000 1.0
C      1  0.4528310000000  0.5187780000000  0.4576820000000 1.0
C      1  0.4771880000000  0.5338910000000  0.4398960000000 1.0
C      1  0.5092510000000  0.5305400000000  0.4453600000000 1.0
C      1  0.5328020000000  0.5070720000000  0.4382130000000 1.0
C      1  0.5307020000000  0.4731070000000  0.4412480000000 1.0
C      1  0.4899030000000  0.4671510000000  0.4464320000000 1.0
C      1  0.4910190000000  0.4272280000000  0.5433830000000 1.0
C      1  0.4249510000000  0.4618320000000  0.5453260000000 1.0
C      1  0.4400220000000  0.5296020000000  0.5466720000000 1.0
C      1  0.4753720000000  0.5747640000000  0.5532390000000 1.0
C      1  0.5517290000000  0.5607140000000  0.5450380000000 1.0
C      1  0.5796310000000  0.5031590000000  0.5564840000000 1.0
C      1  0.5508780000000  0.4352840000000  0.5312890000000 1.0
C      1  0.5144280000000  0.3975740000000  0.4789640000000 1.0
C      1  0.4499370000000  0.4496720000000  0.4816970000000 1.0
C      1  0.4177230000000  0.5065420000000  0.4843580000000 1.0
C      1  0.4506690000000  0.5760450000000  0.4732510000000 1.0
C      1  0.5224660000000  0.5818620000000  0.4772170000000 1.0
C      1  0.5734990000000  0.5283080000000  0.4824210000000 1.0
C      1  0.5849120000000  0.4540170000000  0.4866090000000 1.0
C      1  0.5608660000000  0.5133860000000  0.5310880000000 1.0
C      1  0.5626740000000  0.4631870000000  0.5341550000000 1.0
C      1  0.5200750000000  0.4321440000000  0.5264160000000 1.0
C      1  0.4543050000000  0.4594900000000  0.5286810000000 1.0
C      1  0.4366670000000  0.5111610000000  0.5191550000000 1.0
C      1  0.4602500000000  0.5680890000000  0.5270320000000 1.0
C      1  0.5214640000000  0.5484580000000  0.5367390000000 1.0
C      1  0.5692870000000  0.5241180000000  0.4179100000000 1.0
C      1  0.5581830000000  0.4680600000000  0.4128430000000 1.0
C      1  0.5128800000000  0.4311420000000  0.4138720000000 1.0
C      1  0.4596480000000  0.4467250000000  0.4111900000000 1.0
C      1  0.4360780000000  0.5085410000000  0.4122540000000 1.0
C      1  0.4515160000000  0.5574540000000  0.4003690000000 1.0
C      1  0.5199540000000  0.5492420000000  0.4117560000000 1.0
C      1  0.4531860000000  0.5015190000000  0.5843070000000 1.0
C      1  0.4801080000000  0.5475780000000  0.5919900000000 1.0
C      1  0.5100990000000  0.5458140000000  0.5775490000000 1.0
C      1  0.5448780000000  0.5083320000000  0.5889120000000 1.0
C      1  0.5384490000000  0.4771230000000  0.5796210000000 1.0
C      1  0.5184400000000  0.4494190000000  0.5819820000000 1.0
C      1  0.4686780000000  0.4649670000000  0.5795790000000 1.0
C      1  0.4359820000000  0.5675010000000  0.4469930000000 1.0
C      1  0.5054830000000  0.5855440000000  0.4480200000000 1.0
C      1  0.5780570000000  0.5506080000000  0.4601280000000 1.0
C      1  0.5799380000000  0.4649020000000  0.4613890000000 1.0
C      1  0.5222750000000  0.4102520000000  0.4557870000000 1.0
C      1  0.4559860000000  0.4314240000000  0.4582480000000 1.0
C      1  0.4142870000000  0.4903490000000  0.4567250000000 1.0
C      1  0.5977230000000  0.4945010000000  0.5081310000000 1.0
C      1  0.5499410000000  0.4166830000000  0.4837870000000 1.0
C      1  0.4762150000000  0.4172640000000  0.5144260000000 1.0
C      1  0.4172870000000  0.4727250000000  0.5136760000000 1.0
C      1  0.4134790000000  0.5525750000000  0.5011330000000 1.0
C      1  0.4905900000000  0.5800970000000  0.5011960000000 1.0
C      1  0.5577960000000  0.5660720000000  0.5124960000000 1.0
C      1  0.4687490000000  0.4739340000000  0.4795100000000 1.0
C      1  0.4491250000000  0.5190900000000  0.4899000000000 1.0
C      1  0.4728860000000  0.5519720000000  0.4669890000000 1.0
C      1  0.5190350000000  0.5503200000000  0.4649880000000 1.0
C      1  0.5466200000000  0.5186050000000  0.4670700000000 1.0
C      1  0.5465610000000  0.4854540000000  0.4686810000000 1.0
C      1  0.5045540000000  0.4471140000000  0.4658200000000 1.0
C      1  0.5808390000000  0.4267270000000  0.4895660000000 1.0
C      1  0.4833300000000  0.4006960000000  0.4857310000000 1.0
C      1  0.4216390000000  0.4670060000000  0.4803380000000 1.0
C      1  0.4126880000000  0.5373820000000  0.4777130000000 1.0
C      1  0.4813310000000  0.5906860000000  0.4714020000000 1.0
C      1  0.5653160000000  0.5740540000000  0.4812040000000 1.0
C      1  0.5963840000000  0.5065060000000  0.4834120000000 1.0
C      1  0.4231790000000  0.4416330000000  0.5110520000000 1.0
C      1  0.4029480000000  0.5368370000000  0.5213260000000 1.0
C      1  0.4611560000000  0.5945430000000  0.5060740000000 1.0
C      1  0.5333210000000  0.5848590000000  0.5026420000000 1.0
C      1  0.5938810000000  0.5153890000000  0.5295470000000 1.0
C      1  0.5652690000000  0.4176510000000  0.5147960000000 1.0
C      1  0.4989600000000  0.3919900000000  0.5148190000000 1.0
C      1  0.5369320000000  0.4377440000000  0.4613030000000 1.0
C      1  0.4841460000000  0.4209610000000  0.4611650000000 1.0
C      1  0.4360550000000  0.4677510000000  0.4488950000000 1.0
C      1  0.4275260000000  0.5393240000000  0.4513210000000 1.0
C      1  0.4750330000000  0.5745790000000  0.4416830000000 1.0
C      1  0.5483350000000  0.5629850000000  0.4538810000000 1.0
C      1  0.5783090000000  0.4957000000000  0.4598800000000 1.0
C      1  0.4968220000000  0.5003670000000  0.4965770000000 1.0
C      1  0.4928780000000  0.5036840000000  0.5526110000000 1.0
C      1  0.4999850000000  0.4982360000000  0.4370360000000 1.0
C      1  0.4998020000000  0.4991890000000  0.4675220000000 1.0
END
