TITL C-2622957-9142-556 -0.00187965350702633 125000 -657.926891434625 0 0 122 (C1) n - 1
REM
REM in /nfs/bkarasulu/CARBON/AIRSS/Generating-Clusters/AIREBO/with-SteepDescent/Higher-Symm/SD-CG/HFTN-CG
REM
REM
REM
REM
REM
REM ./C.cell (b20cbc046b6831c77cfcea5457e17084)
REM
REM compiler GCC version 9.2.1 20190827 (Red Hat 9.2.1-1)
REM options -cpp -mtune=generic -march=x86-64 -g -O0 -fpre-include=/usr/include/finclude/math-vector-fortran.h
REM seed 999169288 775092952 1640101791 1916064164 -1695373890 -310831938 -296901571 -1774783520 1238891057 -2118408047 -509562995 -1441800302 1399646825 -130072276 -1241095325 2092328169 1094344619 1643015827 339132934 1195167696 2098321659 1364826167 252905774 1060074472 -888475420 359266418 -1294056205 1294949060 7190962 -1630126377 -1768591185 832377646 564889407
REM
CELL 1.54180   50.00000   50.00000   50.00000   90.00000   90.00000   90.00000
LATT -1
SFAC C  
C      1  0.4529930000000  0.5104920000000  0.5736750000000 1.0
C      1  0.5153730000000  0.5518780000000  0.5826250000000 1.0
C      1  0.5402300000000  0.5047230000000  0.6199210000000 1.0
C      1  0.5198230000000  0.4641410000000  0.5734730000000 1.0
C      1  0.4747970000000  0.4598390000000  0.5724250000000 1.0
C      1  0.4603410000000  0.4071030000000  0.4669310000000 1.0
C      1  0.4052940000000  0.5232910000000  0.4358500000000 1.0
C      1  0.4813600000000  0.5906400000000  0.4393080000000 1.0
C      1  0.5818460000000  0.5412090000000  0.4272860000000 1.0
C      1  0.5731250000000  0.4393030000000  0.4719820000000 1.0
C      1  0.5254890000000  0.4452030000000  0.5458000000000 1.0
C      1  0.4590910000000  0.4580300000000  0.5446950000000 1.0
C      1  0.4394780000000  0.5232630000000  0.5529760000000 1.0
C      1  0.5162380000000  0.5566050000000  0.5511370000000 1.0
C      1  0.5581650000000  0.5013190000000  0.5504400000000 1.0
C      1  0.4261180000000  0.4396210000000  0.4971780000000 1.0
C      1  0.4210590000000  0.5473530000000  0.4990180000000 1.0
C      1  0.5200030000000  0.5887550000000  0.5000850000000 1.0
C      1  0.5999930000000  0.5071320000000  0.4931690000000 1.0
C      1  0.5328690000000  0.4039490000000  0.4952650000000 1.0
C      1  0.4658780000000  0.5656220000000  0.4405330000000 1.0
C      1  0.5579630000000  0.5523730000000  0.4188950000000 1.0
C      1  0.5704680000000  0.4614340000000  0.4462910000000 1.0
C      1  0.4819940000000  0.4186270000000  0.4436480000000 1.0
C      1  0.4211040000000  0.5006150000000  0.4418560000000 1.0
C      1  0.5355480000000  0.4660710000000  0.5132360000000 1.0
C      1  0.4833660000000  0.4602090000000  0.5131310000000 1.0
C      1  0.4654370000000  0.5050430000000  0.5159160000000 1.0
C      1  0.4933010000000  0.5358480000000  0.5174180000000 1.0
C      1  0.5422700000000  0.5181040000000  0.5144410000000 1.0
C      1  0.5517650000000  0.5865440000000  0.5027540000000 1.0
C      1  0.5937910000000  0.4805990000000  0.5061780000000 1.0
C      1  0.5045700000000  0.4037980000000  0.5072550000000 1.0
C      1  0.4148200000000  0.4659860000000  0.5070840000000 1.0
C      1  0.4432330000000  0.5650910000000  0.5135460000000 1.0
C      1  0.5884740000000  0.5175690000000  0.5589810000000 1.0
C      1  0.5185110000000  0.4029160000000  0.5705830000000 1.0
C      1  0.4166710000000  0.4449170000000  0.5657840000000 1.0
C      1  0.4117610000000  0.5570080000000  0.5366790000000 1.0
C      1  0.5173670000000  0.5897820000000  0.5420310000000 1.0
C      1  0.5517250000000  0.4411640000000  0.5244990000000 1.0
C      1  0.4694600000000  0.4337310000000  0.5232850000000 1.0
C      1  0.4335160000000  0.5060370000000  0.5270310000000 1.0
C      1  0.4888710000000  0.5639120000000  0.5322380000000 1.0
C      1  0.5700740000000  0.5264300000000  0.5308440000000 1.0
C      1  0.4648420000000  0.5349320000000  0.4995610000000 1.0
C      1  0.5237310000000  0.5419410000000  0.5034610000000 1.0
C      1  0.5441520000000  0.4922600000000  0.4982610000000 1.0
C      1  0.5113380000000  0.4542980000000  0.4990440000000 1.0
C      1  0.4641660000000  0.4780350000000  0.4957800000000 1.0
C      1  0.5633110000000  0.5775330000000  0.5264950000000 1.0
C      1  0.5930260000000  0.4691840000000  0.5313910000000 1.0
C      1  0.4883920000000  0.4105640000000  0.5318700000000 1.0
C      1  0.4158690000000  0.4815720000000  0.5324750000000 1.0
C      1  0.4599630000000  0.5709460000000  0.5400300000000 1.0
C      1  0.4852820000000  0.5634960000000  0.4683890000000 1.0
C      1  0.5624200000000  0.5386630000000  0.4727510000000 1.0
C      1  0.5443350000000  0.4663160000000  0.4674930000000 1.0
C      1  0.4769840000000  0.4429320000000  0.4669060000000 1.0
C      1  0.4322100000000  0.5036250000000  0.4715720000000 1.0
C      1  0.4722770000000  0.5016290000000  0.4247550000000 1.0
C      1  0.4936580000000  0.5272420000000  0.4292000000000 1.0
C      1  0.5243100000000  0.5150460000000  0.4269330000000 1.0
C      1  0.5224580000000  0.4844770000000  0.4185630000000 1.0
C      1  0.4908070000000  0.4739670000000  0.4204720000000 1.0
C      1  0.5103590000000  0.4191800000000  0.5517080000000 1.0
C      1  0.4298620000000  0.4610770000000  0.5500230000000 1.0
C      1  0.4351580000000  0.5508650000000  0.5500230000000 1.0
C      1  0.5443760000000  0.5751580000000  0.5466300000000 1.0
C      1  0.5878000000000  0.4862430000000  0.5523400000000 1.0
C      1  0.5465710000000  0.5162680000000  0.4526250000000 1.0
C      1  0.5217910000000  0.4618870000000  0.4424090000000 1.0
C      1  0.4681260000000  0.4677970000000  0.4450480000000 1.0
C      1  0.4563210000000  0.5164390000000  0.4512940000000 1.0
C      1  0.5088870000000  0.5493190000000  0.4483930000000 1.0
C      1  0.5709450000000  0.4828940000000  0.4810560000000 1.0
C      1  0.5018060000000  0.4257960000000  0.4831580000000 1.0
C      1  0.4358780000000  0.4758640000000  0.4838800000000 1.0
C      1  0.4538820000000  0.5617680000000  0.4817880000000 1.0
C      1  0.5439830000000  0.5611820000000  0.4840330000000 1.0
C      1  0.5327970000000  0.4881930000000  0.5391670000000 1.0
C      1  0.5041990000000  0.4698810000000  0.5373120000000 1.0
C      1  0.4770460000000  0.4868270000000  0.5421790000000 1.0
C      1  0.4900640000000  0.5179150000000  0.5461300000000 1.0
C      1  0.5216350000000  0.5203020000000  0.5406440000000 1.0
C      1  0.4843710000000  0.5182440000000  0.5765620000000 1.0
C      1  0.5073430000000  0.5280090000000  0.5917950000000 1.0
C      1  0.5203700000000  0.5052250000000  0.6019600000000 1.0
C      1  0.5082160000000  0.4823020000000  0.5898370000000 1.0
C      1  0.4753000000000  0.4879690000000  0.5864330000000 1.0
C      1  0.4465960000000  0.4339880000000  0.4539080000000 1.0
C      1  0.4081740000000  0.5479230000000  0.4483990000000 1.0
C      1  0.5053510000000  0.5883780000000  0.4562400000000 1.0
C      1  0.5846800000000  0.5278720000000  0.4518180000000 1.0
C      1  0.5448480000000  0.4334530000000  0.4582270000000 1.0
C      1  0.5817810000000  0.5572660000000  0.5225880000000 1.0
C      1  0.5807950000000  0.4439550000000  0.5341820000000 1.0
C      1  0.4733780000000  0.3886910000000  0.5419070000000 1.0
C      1  0.3905310000000  0.4891240000000  0.5424480000000 1.0
C      1  0.4581570000000  0.5964040000000  0.5519480000000 1.0
C      1  0.5534480000000  0.4263900000000  0.4966220000000 1.0
C      1  0.4577630000000  0.4308210000000  0.4922460000000 1.0
C      1  0.4266100000000  0.5195560000000  0.4979870000000 1.0
C      1  0.4963570000000  0.5716650000000  0.4999740000000 1.0
C      1  0.5822560000000  0.5315680000000  0.4995120000000 1.0
C      1  0.4961310000000  0.4424500000000  0.4319050000000 1.0
C      1  0.4429270000000  0.4853490000000  0.4301930000000 1.0
C      1  0.4638930000000  0.5402550000000  0.4285140000000 1.0
C      1  0.5325610000000  0.5468500000000  0.4249220000000 1.0
C      1  0.5520250000000  0.4875550000000  0.4347350000000 1.0
C      1  0.5295000000000  0.4959760000000  0.4693790000000 1.0
C      1  0.5045820000000  0.4627220000000  0.4686450000000 1.0
C      1  0.4799820000000  0.4826380000000  0.4704830000000 1.0
C      1  0.4762040000000  0.5307300000000  0.4693900000000 1.0
C      1  0.5153780000000  0.5356620000000  0.4744250000000 1.0
C      1  0.5276380000000  0.4145690000000  0.4665900000000 1.0
C      1  0.4269240000000  0.4473980000000  0.4673390000000 1.0
C      1  0.4220680000000  0.5586840000000  0.4699060000000 1.0
C      1  0.5288570000000  0.5886450000000  0.4703040000000 1.0
C      1  0.5926880000000  0.5036680000000  0.4641570000000 1.0
C      1  0.4976170000000  0.5054900000000  0.5049480000000 1.0
C      1  0.5002780000000  0.5071200000000  0.4737700000000 1.0
END
