TITL C-2622961-1971-797 0.00531888007188172 125000 -333.822103146693 0 0 55 (C1) n - 1
REM
REM in /nfs/bkarasulu/CARBON/AIRSS/Generating-Clusters/AIREBO/with-SteepDescent/Higher-Symm/SD-CG/HFTN-CG
REM
REM
REM
REM
REM
REM ./C.cell (b20cbc046b6831c77cfcea5457e17084)
REM
REM compiler GCC version 9.2.1 20190827 (Red Hat 9.2.1-1)
REM options -cpp -mtune=generic -march=x86-64 -g -O0 -fpre-include=/usr/include/finclude/math-vector-fortran.h
REM seed -1373645174 -1033466504 -455732899 -661429492 1977369454 48176873 -833766090 -1204057744 544717038 588254166 2069889625 1369378732 -484145428 -1853311699 862098439 81053382 1811328166 1869702861 -1569056 1500709872 1632238885 1416788883 -1642406934 -375582976 329589099 -766278719 1257439028 107280856 -2036366373 1690655609 -638328149 1970320264 501142738
REM
CELL 1.54180   50.00000   50.00000   50.00000   90.00000   90.00000   90.00000
LATT -1
SFAC C  
C      1  0.4502680000000  0.5273230000000  0.5595730000000 1.0
C      1  0.4766780000000  0.5428790000000  0.5550930000000 1.0
C      1  0.5039480000000  0.5408900000000  0.5516760000000 1.0
C      1  0.5223940000000  0.5282900000000  0.5691010000000 1.0
C      1  0.5465170000000  0.5170410000000  0.5598840000000 1.0
C      1  0.5544380000000  0.4902560000000  0.5560260000000 1.0
C      1  0.5404690000000  0.4651930000000  0.5578630000000 1.0
C      1  0.5120830000000  0.4634100000000  0.5480230000000 1.0
C      1  0.4848420000000  0.4589110000000  0.5513430000000 1.0
C      1  0.4601850000000  0.4738030000000  0.5644760000000 1.0
C      1  0.4479960000000  0.4990840000000  0.5563960000000 1.0
C      1  0.4597810000000  0.5211260000000  0.4314260000000 1.0
C      1  0.4767420000000  0.5403480000000  0.4489020000000 1.0
C      1  0.5042610000000  0.5421090000000  0.4518700000000 1.0
C      1  0.5228910000000  0.5353660000000  0.4315750000000 1.0
C      1  0.5407520000000  0.5137380000000  0.4355270000000 1.0
C      1  0.5423010000000  0.4902310000000  0.4199180000000 1.0
C      1  0.5357820000000  0.4658660000000  0.4323300000000 1.0
C      1  0.5096900000000  0.4556870000000  0.4457320000000 1.0
C      1  0.4823620000000  0.4535960000000  0.4420070000000 1.0
C      1  0.4601630000000  0.4731210000000  0.4327080000000 1.0
C      1  0.4598890000000  0.4968150000000  0.4175390000000 1.0
C      1  0.5632490000000  0.4872350000000  0.5029740000000 1.0
C      1  0.5483710000000  0.4634220000000  0.5186950000000 1.0
C      1  0.5047270000000  0.4584450000000  0.4979030000000 1.0
C      1  0.4734140000000  0.4554020000000  0.4967560000000 1.0
C      1  0.4490690000000  0.4697940000000  0.5129860000000 1.0
C      1  0.4372200000000  0.4977710000000  0.4993300000000 1.0
C      1  0.4424570000000  0.5263620000000  0.5107970000000 1.0
C      1  0.4701440000000  0.5440500000000  0.5020170000000 1.0
C      1  0.5003620000000  0.5460970000000  0.5017040000000 1.0
C      1  0.5564380000000  0.5386280000000  0.5020860000000 1.0
C      1  0.5750760000000  0.5163360000000  0.5159850000000 1.0
C      1  0.4427180000000  0.5220710000000  0.4581020000000 1.0
C      1  0.4583140000000  0.5449190000000  0.4733400000000 1.0
C      1  0.5148410000000  0.5417270000000  0.4780890000000 1.0
C      1  0.5417030000000  0.5323200000000  0.4798580000000 1.0
C      1  0.5499870000000  0.5115440000000  0.4623300000000 1.0
C      1  0.5570640000000  0.4867910000000  0.4739230000000 1.0
C      1  0.5447610000000  0.4641840000000  0.4625860000000 1.0
C      1  0.5183900000000  0.4537460000000  0.4748310000000 1.0
C      1  0.4644290000000  0.4546000000000  0.4676630000000 1.0
C      1  0.4420090000000  0.4738990000000  0.4579900000000 1.0
C      1  0.4357150000000  0.4980340000000  0.4704120000000 1.0
C      1  0.5741790000000  0.4889110000000  0.5352920000000 1.0
C      1  0.5591980000000  0.4458710000000  0.5414730000000 1.0
C      1  0.5200050000000  0.4636980000000  0.5199520000000 1.0
C      1  0.4726000000000  0.4417300000000  0.5278770000000 1.0
C      1  0.4464130000000  0.4540020000000  0.5430220000000 1.0
C      1  0.4343920000000  0.4936240000000  0.5322650000000 1.0
C      1  0.4316080000000  0.5403010000000  0.5367690000000 1.0
C      1  0.4604960000000  0.5541590000000  0.5318930000000 1.0
C      1  0.5140820000000  0.5489370000000  0.5261530000000 1.0
C      1  0.5422330000000  0.5526780000000  0.5246980000000 1.0
C      1  0.5599010000000  0.5336300000000  0.5412600000000 1.0
END
