TITL C-2622962-9663-580 -7.61554998217921e-05 125000 -544.367154220616 0 0 101 (C1) n - 1
REM
REM in /nfs/bkarasulu/CARBON/AIRSS/Generating-Clusters/AIREBO/with-SteepDescent/Higher-Symm/SD-CG/HFTN-CG
REM
REM
REM
REM
REM
REM ./C.cell (b20cbc046b6831c77cfcea5457e17084)
REM
REM compiler GCC version 9.2.1 20190827 (Red Hat 9.2.1-1)
REM options -cpp -mtune=generic -march=x86-64 -g -O0 -fpre-include=/usr/include/finclude/math-vector-fortran.h
REM seed -1909804484 -1904169655 -1612530535 -697993152 569524331 2113375834 888042814 -1408208626 -380794799 139348920 290193494 -56717156 -1704994977 -86556740 -2134995284 1801751661 -474842826 -577635774 -301830360 -1697776383 2063425129 -1760253936 -621246104 -1434525902 940255692 1693333918 -2096944006 -527630008 1647379698 1484166758 323369940 1559975800 1148306556
REM
CELL 1.54180   50.00000   50.00000   50.00000   90.00000   90.00000   90.00000
LATT -1
SFAC C  
C      1  0.5942750000000  0.4923400000000  0.4810400000000 1.0
C      1  0.5944530000000  0.4790160000000  0.5121620000000 1.0
C      1  0.5945920000000  0.5123210000000  0.5191730000000 1.0
C      1  0.5950430000000  0.5257630000000  0.4880540000000 1.0
C      1  0.4035000000000  0.4930160000000  0.5187420000000 1.0
C      1  0.4020030000000  0.4792650000000  0.4877350000000 1.0
C      1  0.4032000000000  0.5126290000000  0.4812960000000 1.0
C      1  0.4045200000000  0.5264090000000  0.5124270000000 1.0
C      1  0.4387980000000  0.4813560000000  0.4364460000000 1.0
C      1  0.4403010000000  0.4425670000000  0.5313130000000 1.0
C      1  0.4393530000000  0.5191690000000  0.5669480000000 1.0
C      1  0.4422070000000  0.5618890000000  0.4680180000000 1.0
C      1  0.5554680000000  0.4746680000000  0.5631660000000 1.0
C      1  0.5566400000000  0.4414820000000  0.4694970000000 1.0
C      1  0.5605700000000  0.5361980000000  0.4354010000000 1.0
C      1  0.5556030000000  0.5628330000000  0.5290090000000 1.0
C      1  0.4593080000000  0.4144010000000  0.4689470000000 1.0
C      1  0.4666840000000  0.4546320000000  0.5900990000000 1.0
C      1  0.4596810000000  0.5801690000000  0.5303690000000 1.0
C      1  0.4680640000000  0.5366660000000  0.4184250000000 1.0
C      1  0.5358030000000  0.4151620000000  0.5342260000000 1.0
C      1  0.5315040000000  0.4541680000000  0.4186420000000 1.0
C      1  0.5369090000000  0.5815580000000  0.4667800000000 1.0
C      1  0.5249590000000  0.5352270000000  0.5862280000000 1.0
C      1  0.4706090000000  0.4817730000000  0.4749270000000 1.0
C      1  0.4677590000000  0.4706490000000  0.5238330000000 1.0
C      1  0.4707520000000  0.5205750000000  0.5423290000000 1.0
C      1  0.4674460000000  0.5311310000000  0.4716110000000 1.0
C      1  0.5268050000000  0.4820660000000  0.5248060000000 1.0
C      1  0.5297890000000  0.4698390000000  0.4778820000000 1.0
C      1  0.5281610000000  0.5147100000000  0.4575030000000 1.0
C      1  0.5301900000000  0.5321490000000  0.5267320000000 1.0
C      1  0.5245460000000  0.5614930000000  0.5171870000000 1.0
C      1  0.5329160000000  0.5300500000000  0.4349550000000 1.0
C      1  0.5253290000000  0.4358910000000  0.4788430000000 1.0
C      1  0.5255310000000  0.4832090000000  0.5574040000000 1.0
C      1  0.4729930000000  0.5610000000000  0.4796390000000 1.0
C      1  0.4676860000000  0.5108310000000  0.5744770000000 1.0
C      1  0.4711430000000  0.4367150000000  0.5221650000000 1.0
C      1  0.4702430000000  0.4845090000000  0.4417080000000 1.0
C      1  0.4982610000000  0.4270660000000  0.4677450000000 1.0
C      1  0.5047570000000  0.4659360000000  0.5695180000000 1.0
C      1  0.4983960000000  0.5703300000000  0.5287410000000 1.0
C      1  0.5071980000000  0.5381940000000  0.4265350000000 1.0
C      1  0.4975250000000  0.4278740000000  0.5337010000000 1.0
C      1  0.4876590000000  0.4628680000000  0.4304670000000 1.0
C      1  0.4987290000000  0.5698500000000  0.4682430000000 1.0
C      1  0.4917920000000  0.5323500000000  0.5641190000000 1.0
C      1  0.5570150000000  0.5136840000000  0.4846450000000 1.0
C      1  0.5563320000000  0.4808680000000  0.4862170000000 1.0
C      1  0.5560600000000  0.4905970000000  0.5170970000000 1.0
C      1  0.5560920000000  0.5225680000000  0.5160260000000 1.0
C      1  0.4422630000000  0.5137500000000  0.5154410000000 1.0
C      1  0.4414290000000  0.4812450000000  0.5140390000000 1.0
C      1  0.4421800000000  0.4904110000000  0.4832810000000 1.0
C      1  0.4419300000000  0.5222380000000  0.4839120000000 1.0
C      1  0.5219780000000  0.4326400000000  0.5117510000000 1.0
C      1  0.5197160000000  0.5139620000000  0.5631060000000 1.0
C      1  0.5240950000000  0.5593040000000  0.4862500000000 1.0
C      1  0.5146060000000  0.4731390000000  0.4314540000000 1.0
C      1  0.4743590000000  0.4329330000000  0.4896870000000 1.0
C      1  0.4840480000000  0.5150060000000  0.4357560000000 1.0
C      1  0.4735300000000  0.5598450000000  0.5100460000000 1.0
C      1  0.4764790000000  0.4805270000000  0.5751040000000 1.0
C      1  0.6008020000000  0.5552650000000  0.4964990000000 1.0
C      1  0.6028890000000  0.5063030000000  0.4541580000000 1.0
C      1  0.6009150000000  0.4495950000000  0.5038310000000 1.0
C      1  0.6031880000000  0.4982080000000  0.5460150000000 1.0
C      1  0.4008190000000  0.5563260000000  0.5050190000000 1.0
C      1  0.3935490000000  0.5072000000000  0.5453110000000 1.0
C      1  0.3964860000000  0.4496470000000  0.4959140000000 1.0
C      1  0.3917300000000  0.4988630000000  0.4552100000000 1.0
C      1  0.4808640000000  0.4893210000000  0.5434570000000 1.0
C      1  0.4724030000000  0.5294470000000  0.5135700000000 1.0
C      1  0.4906270000000  0.5064880000000  0.4681640000000 1.0
C      1  0.4834860000000  0.4639980000000  0.4961050000000 1.0
C      1  0.5165990000000  0.4871220000000  0.4577310000000 1.0
C      1  0.5262720000000  0.5282590000000  0.4852340000000 1.0
C      1  0.5070660000000  0.5077400000000  0.5318260000000 1.0
C      1  0.5136210000000  0.4636520000000  0.5047120000000 1.0
C      1  0.4752630000000  0.5609260000000  0.4187650000000 1.0
C      1  0.4674250000000  0.4133110000000  0.4450530000000 1.0
C      1  0.4795860000000  0.4331790000000  0.5854740000000 1.0
C      1  0.4693870000000  0.5820400000000  0.5536380000000 1.0
C      1  0.5146470000000  0.5582400000000  0.5842980000000 1.0
C      1  0.5270970000000  0.4160970000000  0.5579080000000 1.0
C      1  0.5184640000000  0.4291210000000  0.4188260000000 1.0
C      1  0.5262700000000  0.5859800000000  0.4442130000000 1.0
C      1  0.5754060000000  0.4801480000000  0.5403040000000 1.0
C      1  0.5801710000000  0.5431070000000  0.5206350000000 1.0
C      1  0.5753450000000  0.5248550000000  0.4603540000000 1.0
C      1  0.5803690000000  0.4613270000000  0.4794140000000 1.0
C      1  0.4229240000000  0.4809640000000  0.4609860000000 1.0
C      1  0.4182450000000  0.5430560000000  0.4790140000000 1.0
C      1  0.4238870000000  0.5219540000000  0.5400220000000 1.0
C      1  0.4169500000000  0.4618220000000  0.5202270000000 1.0
C      1  0.5026910000000  0.4353140000000  0.5642030000000 1.0
C      1  0.4945100000000  0.5638930000000  0.5605570000000 1.0
C      1  0.5009090000000  0.5683910000000  0.4360130000000 1.0
C      1  0.4915280000000  0.4319280000000  0.4364720000000 1.0
C      1  0.4991020000000  0.5158030000000  0.4997570000000 1.0
END
