TITL C-2622953-3516-775 0.00155283649456421 125000 -841.200567233906 0 0 144 (C1) n - 1
REM
REM in /nfs/bkarasulu/CARBON/AIRSS/Generating-Clusters/AIREBO/with-SteepDescent/Higher-Symm/SD-CG/HFTN-CG
REM
REM
REM
REM
REM
REM ./C.cell (b20cbc046b6831c77cfcea5457e17084)
REM
REM compiler GCC version 9.2.1 20190827 (Red Hat 9.2.1-1)
REM options -cpp -mtune=generic -march=x86-64 -g -O0 -fpre-include=/usr/include/finclude/math-vector-fortran.h
REM seed -316612529 -25608950 986648158 296390481 2129292626 908970009 1030138533 773274079 27133114 -326414767 -1665611092 -2023366904 562067991 -426181352 2113831013 -872036527 1693222774 189027591 -2061461985 950267575 -932895034 1982733130 -711665355 696450952 -916045277 -1025500067 -1167337337 -42638828 878596819 -1007782912 -1036035316 1121494872 2114150282
REM
CELL 1.54180   50.00000   50.00000   50.00000   90.00000   90.00000   90.00000
LATT -1
SFAC C  
C      1  0.5689540000000  0.5491450000000  0.4688300000000 1.0
C      1  0.4877640000000  0.5593230000000  0.5427440000000 1.0
C      1  0.5363430000000  0.4922810000000  0.5711270000000 1.0
C      1  0.4214600000000  0.5387890000000  0.5140660000000 1.0
C      1  0.5594980000000  0.4598000000000  0.5125260000000 1.0
C      1  0.4271360000000  0.4697780000000  0.4788280000000 1.0
C      1  0.5281460000000  0.5772750000000  0.4563680000000 1.0
C      1  0.4803670000000  0.4222190000000  0.4633390000000 1.0
C      1  0.5316190000000  0.4387380000000  0.5546890000000 1.0
C      1  0.4523660000000  0.4898130000000  0.4256170000000 1.0
C      1  0.5471070000000  0.5182070000000  0.4300990000000 1.0
C      1  0.4642720000000  0.5136060000000  0.5603010000000 1.0
C      1  0.4752570000000  0.5450710000000  0.5671770000000 1.0
C      1  0.5438080000000  0.5628990000000  0.4811140000000 1.0
C      1  0.5705860000000  0.4829990000000  0.5328280000000 1.0
C      1  0.5191490000000  0.5375170000000  0.4281970000000 1.0
C      1  0.5148090000000  0.4592840000000  0.5611160000000 1.0
C      1  0.4870870000000  0.4623210000000  0.4264860000000 1.0
C      1  0.4583630000000  0.5774820000000  0.5200230000000 1.0
C      1  0.4571500000000  0.4281230000000  0.4836880000000 1.0
C      1  0.5490950000000  0.4315340000000  0.5278020000000 1.0
C      1  0.4277160000000  0.4855420000000  0.4487080000000 1.0
C      1  0.4334100000000  0.5133770000000  0.5502040000000 1.0
C      1  0.5599060000000  0.5176710000000  0.4596250000000 1.0
C      1  0.4917320000000  0.3956510000000  0.4745160000000 1.0
C      1  0.4808650000000  0.4976240000000  0.4087820000000 1.0
C      1  0.3993360000000  0.4765320000000  0.4923900000000 1.0
C      1  0.5098590000000  0.3963380000000  0.5226850000000 1.0
C      1  0.4924790000000  0.5874150000000  0.5382510000000 1.0
C      1  0.5066740000000  0.5976230000000  0.4892060000000 1.0
C      1  0.5133850000000  0.5004700000000  0.5938420000000 1.0
C      1  0.4739460000000  0.4982490000000  0.5890300000000 1.0
C      1  0.5233320000000  0.5017130000000  0.4118040000000 1.0
C      1  0.5855570000000  0.4750940000000  0.4968480000000 1.0
C      1  0.4028090000000  0.5154240000000  0.4987070000000 1.0
C      1  0.5881630000000  0.5311630000000  0.4847870000000 1.0
C      1  0.4860390000000  0.3915560000000  0.5018160000000 1.0
C      1  0.4040560000000  0.5001220000000  0.4683150000000 1.0
C      1  0.5037270000000  0.4747320000000  0.4037600000000 1.0
C      1  0.5336340000000  0.4080970000000  0.5136670000000 1.0
C      1  0.5319840000000  0.5897980000000  0.4946690000000 1.0
C      1  0.4819790000000  0.5989760000000  0.5109210000000 1.0
C      1  0.5927010000000  0.4999920000000  0.5188920000000 1.0
C      1  0.5855680000000  0.5020140000000  0.4757690000000 1.0
C      1  0.4117530000000  0.5026820000000  0.5289400000000 1.0
C      1  0.5096690000000  0.4678720000000  0.5880060000000 1.0
C      1  0.4996430000000  0.5257940000000  0.4076110000000 1.0
C      1  0.4917790000000  0.5257380000000  0.5863230000000 1.0
C      1  0.4683310000000  0.4972580000000  0.4547090000000 1.0
C      1  0.4500100000000  0.4755940000000  0.4994940000000 1.0
C      1  0.4993400000000  0.4481720000000  0.4661020000000 1.0
C      1  0.5223080000000  0.4951530000000  0.5437990000000 1.0
C      1  0.4834230000000  0.5010050000000  0.5375750000000 1.0
C      1  0.5220780000000  0.4907510000000  0.4570180000000 1.0
C      1  0.5343340000000  0.4736530000000  0.4972080000000 1.0
C      1  0.4492680000000  0.5257360000000  0.5086500000000 1.0
C      1  0.5446590000000  0.5246980000000  0.5088550000000 1.0
C      1  0.4910600000000  0.4522280000000  0.5167770000000 1.0
C      1  0.4979690000000  0.5416660000000  0.5164990000000 1.0
C      1  0.5084280000000  0.5530980000000  0.4657830000000 1.0
C      1  0.4543080000000  0.5036840000000  0.4850130000000 1.0
C      1  0.4931180000000  0.4770260000000  0.4540610000000 1.0
C      1  0.4625690000000  0.4495990000000  0.5059380000000 1.0
C      1  0.5423410000000  0.4946310000000  0.5216330000000 1.0
C      1  0.5405530000000  0.5032240000000  0.4827260000000 1.0
C      1  0.4512350000000  0.4968190000000  0.5264360000000 1.0
C      1  0.4982370000000  0.4727490000000  0.5389290000000 1.0
C      1  0.5178230000000  0.5227590000000  0.4569040000000 1.0
C      1  0.5075260000000  0.5247040000000  0.5431790000000 1.0
C      1  0.5122940000000  0.4517390000000  0.4940880000000 1.0
C      1  0.5204540000000  0.5428400000000  0.4959380000000 1.0
C      1  0.4685470000000  0.5491260000000  0.5080300000000 1.0
C      1  0.4787630000000  0.5505660000000  0.4016720000000 1.0
C      1  0.4008730000000  0.4759630000000  0.5374070000000 1.0
C      1  0.5372000000000  0.4070180000000  0.4843070000000 1.0
C      1  0.5196810000000  0.5397170000000  0.5939670000000 1.0
C      1  0.4847430000000  0.4550490000000  0.5953900000000 1.0
C      1  0.5248290000000  0.4505870000000  0.3964410000000 1.0
C      1  0.5932030000000  0.4778110000000  0.4578260000000 1.0
C      1  0.4070450000000  0.5319560000000  0.4625780000000 1.0
C      1  0.5978620000000  0.5225210000000  0.5375830000000 1.0
C      1  0.4602480000000  0.4021730000000  0.5211360000000 1.0
C      1  0.5412320000000  0.5935350000000  0.5207430000000 1.0
C      1  0.4566120000000  0.5993290000000  0.4879080000000 1.0
C      1  0.4009820000000  0.5490400000000  0.4903230000000 1.0
C      1  0.5431190000000  0.4752620000000  0.4073170000000 1.0
C      1  0.4855400000000  0.4073000000000  0.5382570000000 1.0
C      1  0.5928170000000  0.5390650000000  0.5107610000000 1.0
C      1  0.5974390000000  0.4510860000000  0.4768260000000 1.0
C      1  0.3956530000000  0.4575590000000  0.5132150000000 1.0
C      1  0.4597410000000  0.4742340000000  0.5917350000000 1.0
C      1  0.4601010000000  0.5243740000000  0.4077860000000 1.0
C      1  0.5417000000000  0.5180390000000  0.6006530000000 1.0
C      1  0.5179460000000  0.4036860000000  0.4632600000000 1.0
C      1  0.5187220000000  0.5947620000000  0.5446590000000 1.0
C      1  0.4834320000000  0.5941880000000  0.4713480000000 1.0
C      1  0.5778880000000  0.4715070000000  0.5592220000000 1.0
C      1  0.5699910000000  0.5878390000000  0.4385070000000 1.0
C      1  0.4539830000000  0.5623290000000  0.5812220000000 1.0
C      1  0.4163650000000  0.4568260000000  0.4306270000000 1.0
C      1  0.5899940000000  0.5478300000000  0.4244940000000 1.0
C      1  0.4206600000000  0.5380880000000  0.5611270000000 1.0
C      1  0.4381450000000  0.5777330000000  0.5393670000000 1.0
C      1  0.5691010000000  0.4256620000000  0.5536580000000 1.0
C      1  0.4409310000000  0.4265650000000  0.4594250000000 1.0
C      1  0.5417830000000  0.5558540000000  0.4178030000000 1.0
C      1  0.4643090000000  0.4465240000000  0.4211380000000 1.0
C      1  0.5489300000000  0.4514660000000  0.5925780000000 1.0
C      1  0.5581010000000  0.4752040000000  0.5789780000000 1.0
C      1  0.4468300000000  0.5851610000000  0.5656990000000 1.0
C      1  0.5843110000000  0.5646090000000  0.4469290000000 1.0
C      1  0.4411320000000  0.4625630000000  0.4163950000000 1.0
C      1  0.4303870000000  0.5472310000000  0.5858590000000 1.0
C      1  0.5660970000000  0.5387040000000  0.4123070000000 1.0
C      1  0.5431290000000  0.5797920000000  0.4330470000000 1.0
C      1  0.5495220000000  0.4261600000000  0.5774080000000 1.0
C      1  0.4608890000000  0.4237060000000  0.4367960000000 1.0
C      1  0.4204200000000  0.5554560000000  0.5388240000000 1.0
C      1  0.4225030000000  0.4469840000000  0.4574880000000 1.0
C      1  0.5891030000000  0.4455430000000  0.5573460000000 1.0
C      1  0.5648020000000  0.4451400000000  0.4757110000000 1.0
C      1  0.4810120000000  0.5651140000000  0.4579670000000 1.0
C      1  0.4474870000000  0.4627540000000  0.5665000000000 1.0
C      1  0.4225840000000  0.4452860000000  0.5253330000000 1.0
C      1  0.5650090000000  0.5417220000000  0.5259890000000 1.0
C      1  0.4313860000000  0.5527110000000  0.4754050000000 1.0
C      1  0.5345610000000  0.5704820000000  0.5524300000000 1.0
C      1  0.4873920000000  0.4348180000000  0.5454340000000 1.0
C      1  0.5161680000000  0.4283850000000  0.4467720000000 1.0
C      1  0.5427350000000  0.4713840000000  0.4401300000000 1.0
C      1  0.4573630000000  0.5263700000000  0.4398410000000 1.0
C      1  0.5527480000000  0.5300930000000  0.5741010000000 1.0
C      1  0.4725200000000  0.4453620000000  0.5674090000000 1.0
C      1  0.4574580000000  0.5660700000000  0.4818900000000 1.0
C      1  0.5680210000000  0.4634420000000  0.4529650000000 1.0
C      1  0.5287760000000  0.4440960000000  0.4271800000000 1.0
C      1  0.5251090000000  0.5438260000000  0.5620060000000 1.0
C      1  0.4710470000000  0.5533360000000  0.4325850000000 1.0
C      1  0.5562600000000  0.5691980000000  0.5325770000000 1.0
C      1  0.5413740000000  0.4359920000000  0.4861440000000 1.0
C      1  0.4438040000000  0.4258070000000  0.5203920000000 1.0
C      1  0.4344280000000  0.4717650000000  0.5421450000000 1.0
C      1  0.4392760000000  0.5228680000000  0.4638580000000 1.0
C      1  0.5724430000000  0.5284450000000  0.5555110000000 1.0
END
