TITL C-2622961-1971-789 0.00133166274007375 125000 -189.499094471419 0 0 36 (C1) n - 1
REM
REM in /nfs/bkarasulu/CARBON/AIRSS/Generating-Clusters/AIREBO/with-SteepDescent/Higher-Symm/SD-CG/HFTN-CG
REM
REM
REM
REM
REM
REM ./C.cell (b20cbc046b6831c77cfcea5457e17084)
REM
REM compiler GCC version 9.2.1 20190827 (Red Hat 9.2.1-1)
REM options -cpp -mtune=generic -march=x86-64 -g -O0 -fpre-include=/usr/include/finclude/math-vector-fortran.h
REM seed -1933845689 -1008326890 2046834918 1964786970 18241618 469845596 1007152616 1162701938 -1479804043 -431980547 -131524738 2088458447 -1234784242 74212088 258985507 215200785 1953525948 1323706590 2033810408 56150062 602824705 -1346173364 1203986831 502464039 -1832580926 584733866 1698142254 1020910671 1134132054 -1637500001 -364511173 1009864671 -401106326
REM
CELL 1.54180   50.00000   50.00000   50.00000   90.00000   90.00000   90.00000
LATT -1
SFAC C  
C      1  0.5047740000000  0.5397410000000  0.4559750000000 1.0
C      1  0.5055080000000  0.4580980000000  0.5447710000000 1.0
C      1  0.4703450000000  0.4844380000000  0.5227300000000 1.0
C      1  0.4697950000000  0.5154190000000  0.4785810000000 1.0
C      1  0.4874190000000  0.4471510000000  0.4588280000000 1.0
C      1  0.4849920000000  0.5541930000000  0.5441580000000 1.0
C      1  0.5482660000000  0.5520180000000  0.4995290000000 1.0
C      1  0.5467930000000  0.4481130000000  0.4959610000000 1.0
C      1  0.5277980000000  0.5108890000000  0.4955960000000 1.0
C      1  0.5195220000000  0.4874190000000  0.5053670000000 1.0
C      1  0.4988800000000  0.5376250000000  0.5174740000000 1.0
C      1  0.5014710000000  0.4676090000000  0.4844430000000 1.0
C      1  0.4727390000000  0.5037440000000  0.5493020000000 1.0
C      1  0.4750530000000  0.4963780000000  0.4520940000000 1.0
C      1  0.5253410000000  0.5141900000000  0.4640570000000 1.0
C      1  0.5224100000000  0.4852290000000  0.5363530000000 1.0
C      1  0.4846000000000  0.4349640000000  0.5088290000000 1.0
C      1  0.4842280000000  0.5647190000000  0.4921260000000 1.0
C      1  0.5212890000000  0.4853910000000  0.4543210000000 1.0
C      1  0.5187190000000  0.5142270000000  0.5454440000000 1.0
C      1  0.5321990000000  0.5313880000000  0.5202080000000 1.0
C      1  0.5339900000000  0.4666260000000  0.4744420000000 1.0
C      1  0.4741750000000  0.5713400000000  0.5167990000000 1.0
C      1  0.4737830000000  0.4290750000000  0.4842420000000 1.0
C      1  0.5140990000000  0.4425380000000  0.5034510000000 1.0
C      1  0.5148440000000  0.5570580000000  0.4952660000000 1.0
C      1  0.4948080000000  0.4780230000000  0.4466430000000 1.0
C      1  0.4924110000000  0.5223450000000  0.5535660000000 1.0
C      1  0.4813690000000  0.4557240000000  0.5293150000000 1.0
C      1  0.4816710000000  0.5430880000000  0.4721770000000 1.0
C      1  0.4738040000000  0.5163520000000  0.5113690000000 1.0
C      1  0.4722140000000  0.4834190000000  0.4898280000000 1.0
C      1  0.4607720000000  0.4639190000000  0.4705270000000 1.0
C      1  0.4607240000000  0.5362200000000  0.5293870000000 1.0
C      1  0.5345830000000  0.5464770000000  0.4696840000000 1.0
C      1  0.5346140000000  0.4548550000000  0.5271560000000 1.0
END
