TITL C-2622959-7779-610 -0.00286718607293567 125000 -994.073515547467 0 0 192 (C1) n - 1
REM
REM in /nfs/bkarasulu/CARBON/AIRSS/Generating-Clusters/AIREBO/with-SteepDescent/Higher-Symm/SD-CG/HFTN-CG
REM
REM
REM
REM
REM
REM ./C.cell (b20cbc046b6831c77cfcea5457e17084)
REM
REM compiler GCC version 9.2.1 20190827 (Red Hat 9.2.1-1)
REM options -cpp -mtune=generic -march=x86-64 -g -O0 -fpre-include=/usr/include/finclude/math-vector-fortran.h
REM seed 1727432373 1010251666 1768694654 1652925306 242189965 1287556343 666151122 1679725376 -306388103 -2110700220 -1395524401 395624446 -1984855349 447688728 52265033 1070705443 -1444681467 -1377178348 -1136403605 -1056361263 1456025663 -1426461374 -542730792 372831380 372433547 -429697925 -1478665159 -45918809 653761051 -526827269 1789066412 -790036191 1519165566
REM
CELL 1.54180   50.00000   50.00000   50.00000   90.00000   90.00000   90.00000
LATT -1
SFAC C  
C      1  0.5310340000000  0.4593720000000  0.3990530000000 1.0
C      1  0.4152280000000  0.4669950000000  0.4423430000000 1.0
C      1  0.4227300000000  0.4542770000000  0.5648940000000 1.0
C      1  0.5270340000000  0.4641430000000  0.5951430000000 1.0
C      1  0.5996270000000  0.4637970000000  0.4954840000000 1.0
C      1  0.4719340000000  0.4842150000000  0.5758860000000 1.0
C      1  0.5477470000000  0.4901650000000  0.5474110000000 1.0
C      1  0.5598570000000  0.4762950000000  0.4553080000000 1.0
C      1  0.4822320000000  0.4783390000000  0.4322100000000 1.0
C      1  0.4328840000000  0.4867900000000  0.4976280000000 1.0
C      1  0.4363140000000  0.4673420000000  0.3979680000000 1.0
C      1  0.3881580000000  0.4666170000000  0.5337830000000 1.0
C      1  0.4865840000000  0.4699310000000  0.6191610000000 1.0
C      1  0.6057630000000  0.4708880000000  0.5415640000000 1.0
C      1  0.5755470000000  0.4666010000000  0.4167960000000 1.0
C      1  0.5190070000000  0.5479350000000  0.5613700000000 1.0
C      1  0.5681880000000  0.5424370000000  0.4996040000000 1.0
C      1  0.5200210000000  0.5451420000000  0.4454130000000 1.0
C      1  0.4448780000000  0.5409480000000  0.4666740000000 1.0
C      1  0.4539390000000  0.5402610000000  0.5362290000000 1.0
C      1  0.5424120000000  0.5072110000000  0.4219060000000 1.0
C      1  0.4318190000000  0.5107870000000  0.4272250000000 1.0
C      1  0.4185740000000  0.5060690000000  0.5445000000000 1.0
C      1  0.5087430000000  0.5112890000000  0.5939100000000 1.0
C      1  0.5966880000000  0.5145000000000  0.5177240000000 1.0
C      1  0.6114090000000  0.4836680000000  0.4423780000000 1.0
C      1  0.4810080000000  0.4815290000000  0.3817060000000 1.0
C      1  0.3880950000000  0.4874390000000  0.4851140000000 1.0
C      1  0.4438560000000  0.4885120000000  0.6157770000000 1.0
C      1  0.5865970000000  0.4845220000000  0.5829950000000 1.0
C      1  0.4163360000000  0.5693010000000  0.5720120000000 1.0
C      1  0.5391020000000  0.5739710000000  0.6089340000000 1.0
C      1  0.6154960000000  0.5772050000000  0.4995780000000 1.0
C      1  0.5262700000000  0.5647700000000  0.3885860000000 1.0
C      1  0.4002350000000  0.5669190000000  0.4406330000000 1.0
C      1  0.4969130000000  0.5683810000000  0.4384740000000 1.0
C      1  0.4352030000000  0.5705410000000  0.4785850000000 1.0
C      1  0.4619770000000  0.5700970000000  0.5489700000000 1.0
C      1  0.5309210000000  0.5789270000000  0.5540330000000 1.0
C      1  0.5683770000000  0.5652650000000  0.4746430000000 1.0
C      1  0.4841190000000  0.4390540000000  0.5532480000000 1.0
C      1  0.5538620000000  0.4457110000000  0.5251520000000 1.0
C      1  0.5362550000000  0.4369280000000  0.4489440000000 1.0
C      1  0.4878430000000  0.4334540000000  0.4422230000000 1.0
C      1  0.4362250000000  0.4431530000000  0.5054200000000 1.0
C      1  0.4657090000000  0.4523170000000  0.4933350000000 1.0
C      1  0.4818740000000  0.4517480000000  0.5221060000000 1.0
C      1  0.5225370000000  0.4584260000000  0.5288590000000 1.0
C      1  0.5322790000000  0.4487310000000  0.4776330000000 1.0
C      1  0.4980390000000  0.4679210000000  0.4596210000000 1.0
C      1  0.5511270000000  0.5419610000000  0.4565880000000 1.0
C      1  0.4720240000000  0.5465040000000  0.4469430000000 1.0
C      1  0.4373440000000  0.5382030000000  0.5088500000000 1.0
C      1  0.4849950000000  0.5475650000000  0.5612700000000 1.0
C      1  0.5589020000000  0.5408220000000  0.5286640000000 1.0
C      1  0.4450760000000  0.4626280000000  0.4683530000000 1.0
C      1  0.4579600000000  0.4591850000000  0.5449990000000 1.0
C      1  0.5052660000000  0.4518780000000  0.5720760000000 1.0
C      1  0.5575480000000  0.4544690000000  0.4930760000000 1.0
C      1  0.5127910000000  0.4526720000000  0.4339920000000 1.0
C      1  0.4144010000000  0.5175110000000  0.4556630000000 1.0
C      1  0.4380140000000  0.5215520000000  0.5677250000000 1.0
C      1  0.5404540000000  0.5228100000000  0.5895400000000 1.0
C      1  0.6004680000000  0.5243430000000  0.4847520000000 1.0
C      1  0.5118010000000  0.5204630000000  0.4152100000000 1.0
C      1  0.5027530000000  0.4061590000000  0.4671580000000 1.0
C      1  0.4820620000000  0.4308480000000  0.4743350000000 1.0
C      1  0.4828660000000  0.4170860000000  0.5030270000000 1.0
C      1  0.5076750000000  0.4296310000000  0.5209280000000 1.0
C      1  0.5201280000000  0.4223530000000  0.4900510000000 1.0
C      1  0.4945230000000  0.5074520000000  0.4414860000000 1.0
C      1  0.4410620000000  0.5074610000000  0.4723890000000 1.0
C      1  0.4631160000000  0.5107690000000  0.5474780000000 1.0
C      1  0.5358000000000  0.5185600000000  0.5580080000000 1.0
C      1  0.5685490000000  0.5123120000000  0.4838280000000 1.0
C      1  0.5300100000000  0.5774750000000  0.4936210000000 1.0
C      1  0.5246680000000  0.5994940000000  0.4678640000000 1.0
C      1  0.4934930000000  0.5769590000000  0.4773610000000 1.0
C      1  0.4807890000000  0.5695870000000  0.5046880000000 1.0
C      1  0.5110690000000  0.5756210000000  0.5189640000000 1.0
C      1  0.4999920000000  0.5147220000000  0.5299990000000 1.0
C      1  0.5301110000000  0.5141330000000  0.5185620000000 1.0
C      1  0.5285420000000  0.5114880000000  0.4846690000000 1.0
C      1  0.4960010000000  0.5102690000000  0.4748620000000 1.0
C      1  0.4783440000000  0.5143360000000  0.5036430000000 1.0
C      1  0.5161630000000  0.4055310000000  0.5512210000000 1.0
C      1  0.5732220000000  0.4149170000000  0.5042380000000 1.0
C      1  0.5207560000000  0.4040520000000  0.4201780000000 1.0
C      1  0.4468590000000  0.4128920000000  0.4602220000000 1.0
C      1  0.4338130000000  0.4084240000000  0.5371870000000 1.0
C      1  0.4003800000000  0.5341290000000  0.5369340000000 1.0
C      1  0.4976050000000  0.5405800000000  0.6080440000000 1.0
C      1  0.5984450000000  0.5423700000000  0.5371530000000 1.0
C      1  0.5605450000000  0.5359640000000  0.4173480000000 1.0
C      1  0.4375500000000  0.5412930000000  0.4131940000000 1.0
C      1  0.5043020000000  0.5934290000000  0.5574650000000 1.0
C      1  0.5730680000000  0.5912250000000  0.4784930000000 1.0
C      1  0.5269130000000  0.5842080000000  0.4416200000000 1.0
C      1  0.4503960000000  0.5901960000000  0.4654630000000 1.0
C      1  0.4430010000000  0.5877760000000  0.5282780000000 1.0
C      1  0.5850380000000  0.4243930000000  0.4672530000000 1.0
C      1  0.4793850000000  0.4363190000000  0.3981500000000 1.0
C      1  0.4003110000000  0.4334220000000  0.4769050000000 1.0
C      1  0.4588020000000  0.4268180000000  0.5845150000000 1.0
C      1  0.5439060000000  0.4456720000000  0.5773580000000 1.0
C      1  0.5034070000000  0.4859160000000  0.5718920000000 1.0
C      1  0.5661160000000  0.4855130000000  0.4976220000000 1.0
C      1  0.5302710000000  0.4813540000000  0.4403470000000 1.0
C      1  0.4601980000000  0.4881760000000  0.4561790000000 1.0
C      1  0.4399190000000  0.4831420000000  0.5306960000000 1.0
C      1  0.4569040000000  0.5145590000000  0.6021110000000 1.0
C      1  0.5745390000000  0.5122250000000  0.5716260000000 1.0
C      1  0.5949480000000  0.5106440000000  0.4476410000000 1.0
C      1  0.4771740000000  0.5088300000000  0.3991340000000 1.0
C      1  0.3943380000000  0.5119790000000  0.4970240000000 1.0
C      1  0.4262410000000  0.5026790000000  0.5934400000000 1.0
C      1  0.5604200000000  0.4967600000000  0.5984220000000 1.0
C      1  0.6163570000000  0.4977570000000  0.4707230000000 1.0
C      1  0.5086210000000  0.4990930000000  0.3889560000000 1.0
C      1  0.4010080000000  0.4864080000000  0.4592870000000 1.0
C      1  0.4980240000000  0.4642940000000  0.4055730000000 1.0
C      1  0.4163430000000  0.4592610000000  0.4864320000000 1.0
C      1  0.4538020000000  0.4559760000000  0.5786060000000 1.0
C      1  0.5586900000000  0.4608700000000  0.5537120000000 1.0
C      1  0.5812830000000  0.4535590000000  0.4687330000000 1.0
C      1  0.4074140000000  0.4750910000000  0.5530520000000 1.0
C      1  0.5112690000000  0.4819010000000  0.6108470000000 1.0
C      1  0.6013210000000  0.4827170000000  0.5161250000000 1.0
C      1  0.5512170000000  0.4781460000000  0.4065590000000 1.0
C      1  0.4247410000000  0.4811300000000  0.4191690000000 1.0
C      1  0.5278700000000  0.4289840000000  0.4017400000000 1.0
C      1  0.4314690000000  0.4386960000000  0.4520930000000 1.0
C      1  0.4221790000000  0.4262500000000  0.5557200000000 1.0
C      1  0.5245600000000  0.4222140000000  0.5730780000000 1.0
C      1  0.5940620000000  0.4351800000000  0.5045670000000 1.0
C      1  0.4312350000000  0.4166010000000  0.5089920000000 1.0
C      1  0.4869690000000  0.4075290000000  0.5470460000000 1.0
C      1  0.5621720000000  0.4149290000000  0.5353910000000 1.0
C      1  0.5438730000000  0.4149480000000  0.4355680000000 1.0
C      1  0.4697390000000  0.4084750000000  0.4435700000000 1.0
C      1  0.4613710000000  0.5770830000000  0.4365240000000 1.0
C      1  0.4251370000000  0.5695110000000  0.5085910000000 1.0
C      1  0.4901290000000  0.5770560000000  0.5774000000000 1.0
C      1  0.5572660000000  0.5698100000000  0.5464050000000 1.0
C      1  0.5524440000000  0.5701640000000  0.4376410000000 1.0
C      1  0.5414680000000  0.4037850000000  0.5045160000000 1.0
C      1  0.5000810000000  0.3956700000000  0.4387900000000 1.0
C      1  0.4521000000000  0.4008360000000  0.4916290000000 1.0
C      1  0.4636650000000  0.3993230000000  0.5236640000000 1.0
C      1  0.5378390000000  0.3951620000000  0.5363090000000 1.0
C      1  0.5262000000000  0.5465520000000  0.5281610000000 1.0
C      1  0.5365880000000  0.5444530000000  0.4872150000000 1.0
C      1  0.4965040000000  0.5439130000000  0.4699420000000 1.0
C      1  0.4648120000000  0.5414270000000  0.4942150000000 1.0
C      1  0.4863890000000  0.5453100000000  0.5273690000000 1.0
C      1  0.5712410000000  0.5137440000000  0.5403930000000 1.0
C      1  0.5610930000000  0.5099660000000  0.4507380000000 1.0
C      1  0.4650210000000  0.5177310000000  0.4296170000000 1.0
C      1  0.4212580000000  0.5124170000000  0.5111980000000 1.0
C      1  0.4792780000000  0.5174140000000  0.5766480000000 1.0
C      1  0.6024710000000  0.5401890000000  0.4532460000000 1.0
C      1  0.4859790000000  0.5393590000000  0.4035770000000 1.0
C      1  0.3962400000000  0.5351540000000  0.4787910000000 1.0
C      1  0.4523520000000  0.5433560000000  0.5906490000000 1.0
C      1  0.5690970000000  0.5411270000000  0.5833800000000 1.0
C      1  0.4230620000000  0.5470950000000  0.4413170000000 1.0
C      1  0.4247610000000  0.5474030000000  0.5527330000000 1.0
C      1  0.5245740000000  0.5516760000000  0.5948950000000 1.0
C      1  0.6004510000000  0.5519200000000  0.5046460000000 1.0
C      1  0.5305100000000  0.5475760000000  0.4131540000000 1.0
C      1  0.5347660000000  0.4821960000000  0.5105010000000 1.0
C      1  0.5242970000000  0.4814670000000  0.4723940000000 1.0
C      1  0.4807310000000  0.4807780000000  0.4822510000000 1.0
C      1  0.4707590000000  0.4896950000000  0.5227730000000 1.0
C      1  0.5148730000000  0.4877460000000  0.5443840000000 1.0
C      1  0.4756890000000  0.5585160000000  0.5984370000000 1.0
C      1  0.5814430000000  0.5545410000000  0.5583860000000 1.0
C      1  0.5815670000000  0.5530450000000  0.4336450000000 1.0
C      1  0.4623240000000  0.5561780000000  0.4096580000000 1.0
C      1  0.3991530000000  0.5492920000000  0.5095980000000 1.0
C      1  0.4596550000000  0.4667150000000  0.6103370000000 1.0
C      1  0.5874400000000  0.4661690000000  0.5622800000000 1.0
C      1  0.5936840000000  0.4631190000000  0.4385500000000 1.0
C      1  0.4615640000000  0.4588130000000  0.3901770000000 1.0
C      1  0.3899340000000  0.4667210000000  0.5062410000000 1.0
C      1  0.4647340000000  0.6042950000000  0.5153110000000 1.0
C      1  0.4897300000000  0.5988200000000  0.5303620000000 1.0
C      1  0.5503440000000  0.6035550000000  0.4871510000000 1.0
C      1  0.4949630000000  0.6083880000000  0.4740510000000 1.0
C      1  0.4665850000000  0.6055970000000  0.4843910000000 1.0
C      1  0.5008290000000  0.4819230000000  0.5079440000000 1.0
C      1  0.5070170000000  0.5407140000000  0.5007020000000 1.0
END
