TITL C-2622955-8511-688 0.00106922265668937 125000 -604.006547243378 0 0 112 (C1) n - 1
REM
REM in /nfs/bkarasulu/CARBON/AIRSS/Generating-Clusters/AIREBO/with-SteepDescent/Higher-Symm/SD-CG/HFTN-CG
REM
REM
REM
REM
REM
REM ./C.cell (b20cbc046b6831c77cfcea5457e17084)
REM
REM compiler GCC version 9.2.1 20190827 (Red Hat 9.2.1-1)
REM options -cpp -mtune=generic -march=x86-64 -g -O0 -fpre-include=/usr/include/finclude/math-vector-fortran.h
REM seed 1577280200 618120403 -388789465 -1140073679 -86426630 -367855898 -1775803558 787075918 251717336 522071275 -745793236 -1827749479 -64732122 549711796 203821045 -1093039671 2147032704 -351024323 855509487 1813163737 639060006 270348698 1121103013 1920324007 -1203013678 -145494420 1870047671 -814438198 825971421 -699250692 835892261 145126075 -177346446
REM
CELL 1.54180   50.00000   50.00000   50.00000   90.00000   90.00000   90.00000
LATT -1
SFAC C  
C      1  0.4863560000000  0.5896620000000  0.5141990000000 1.0
C      1  0.5130470000000  0.6002110000000  0.5167960000000 1.0
C      1  0.5293100000000  0.5959220000000  0.4923340000000 1.0
C      1  0.5050010000000  0.5864650000000  0.4741420000000 1.0
C      1  0.4774360000000  0.5969830000000  0.4870670000000 1.0
C      1  0.5370140000000  0.4897460000000  0.3990600000000 1.0
C      1  0.4087460000000  0.4769780000000  0.4236690000000 1.0
C      1  0.4132420000000  0.5177060000000  0.5494420000000 1.0
C      1  0.5185460000000  0.5113130000000  0.6010090000000 1.0
C      1  0.5896320000000  0.5126600000000  0.5159410000000 1.0
C      1  0.5727090000000  0.5470590000000  0.4845870000000 1.0
C      1  0.5145870000000  0.5412700000000  0.4284960000000 1.0
C      1  0.4386620000000  0.5458870000000  0.4559620000000 1.0
C      1  0.4521670000000  0.5387970000000  0.5563770000000 1.0
C      1  0.5335870000000  0.5412570000000  0.5771150000000 1.0
C      1  0.5416700000000  0.4499180000000  0.4982360000000 1.0
C      1  0.5114590000000  0.4565690000000  0.4523480000000 1.0
C      1  0.4663840000000  0.4500720000000  0.4766980000000 1.0
C      1  0.4550830000000  0.4548120000000  0.5338100000000 1.0
C      1  0.5213370000000  0.4541700000000  0.5535390000000 1.0
C      1  0.4905070000000  0.4838820000000  0.4193340000000 1.0
C      1  0.4259240000000  0.4866300000000  0.4688710000000 1.0
C      1  0.4536610000000  0.4807570000000  0.5548440000000 1.0
C      1  0.5449400000000  0.4767260000000  0.5630320000000 1.0
C      1  0.5811240000000  0.4868370000000  0.4740430000000 1.0
C      1  0.4683940000000  0.5748110000000  0.5541020000000 1.0
C      1  0.5449010000000  0.5655270000000  0.5557430000000 1.0
C      1  0.5509860000000  0.5798710000000  0.4861710000000 1.0
C      1  0.5097630000000  0.5881180000000  0.4442400000000 1.0
C      1  0.4389300000000  0.5668530000000  0.4827300000000 1.0
C      1  0.5941500000000  0.5348180000000  0.4666910000000 1.0
C      1  0.5093390000000  0.5261710000000  0.4009160000000 1.0
C      1  0.4121170000000  0.5310170000000  0.4551780000000 1.0
C      1  0.4419410000000  0.5237650000000  0.5811460000000 1.0
C      1  0.5551910000000  0.5209760000000  0.5844770000000 1.0
C      1  0.5516660000000  0.4462550000000  0.4480570000000 1.0
C      1  0.4694320000000  0.4300290000000  0.4316390000000 1.0
C      1  0.4255180000000  0.4438270000000  0.5056960000000 1.0
C      1  0.4879660000000  0.4437000000000  0.5728170000000 1.0
C      1  0.5669980000000  0.4344720000000  0.5352020000000 1.0
C      1  0.5616490000000  0.4731480000000  0.4516020000000 1.0
C      1  0.4740220000000  0.4546070000000  0.4173210000000 1.0
C      1  0.4253050000000  0.4706700000000  0.4966130000000 1.0
C      1  0.4775130000000  0.4690780000000  0.5751050000000 1.0
C      1  0.5674620000000  0.4610220000000  0.5445480000000 1.0
C      1  0.5623220000000  0.4760310000000  0.5201030000000 1.0
C      1  0.5345260000000  0.4933610000000  0.4492140000000 1.0
C      1  0.4554400000000  0.4726460000000  0.4345790000000 1.0
C      1  0.4398070000000  0.4886910000000  0.5181900000000 1.0
C      1  0.4979180000000  0.4954500000000  0.5709860000000 1.0
C      1  0.4995720000000  0.4292590000000  0.5456580000000 1.0
C      1  0.5380390000000  0.4273090000000  0.5233750000000 1.0
C      1  0.5278690000000  0.4303010000000  0.4663830000000 1.0
C      1  0.4854800000000  0.4271360000000  0.4604050000000 1.0
C      1  0.4565540000000  0.4306950000000  0.5102060000000 1.0
C      1  0.5133770000000  0.4063240000000  0.5248540000000 1.0
C      1  0.5289670000000  0.4121370000000  0.4951650000000 1.0
C      1  0.5056620000000  0.4056570000000  0.4738450000000 1.0
C      1  0.4765180000000  0.4127580000000  0.4898850000000 1.0
C      1  0.4816590000000  0.4126540000000  0.5223050000000 1.0
C      1  0.5249880000000  0.4850250000000  0.5887210000000 1.0
C      1  0.5838350000000  0.4869450000000  0.5062970000000 1.0
C      1  0.5224450000000  0.4891630000000  0.4208170000000 1.0
C      1  0.4301920000000  0.4783710000000  0.4405930000000 1.0
C      1  0.4220240000000  0.4892870000000  0.5457690000000 1.0
C      1  0.5295980000000  0.4712090000000  0.4746120000000 1.0
C      1  0.4825060000000  0.4667930000000  0.4543450000000 1.0
C      1  0.4643950000000  0.4695050000000  0.5045770000000 1.0
C      1  0.5003010000000  0.4760050000000  0.5431510000000 1.0
C      1  0.5288000000000  0.4754700000000  0.5142560000000 1.0
C      1  0.5430200000000  0.5500600000000  0.4696780000000 1.0
C      1  0.4826880000000  0.5355370000000  0.4292260000000 1.0
C      1  0.4443110000000  0.5645460000000  0.5087340000000 1.0
C      1  0.4849630000000  0.5468140000000  0.5609560000000 1.0
C      1  0.5492440000000  0.5603770000000  0.5298530000000 1.0
C      1  0.5012930000000  0.5438030000000  0.5341320000000 1.0
C      1  0.5269490000000  0.5449990000000  0.5159510000000 1.0
C      1  0.5176380000000  0.5580370000000  0.4879280000000 1.0
C      1  0.4875880000000  0.5501620000000  0.4853840000000 1.0
C      1  0.4764750000000  0.5581480000000  0.5158470000000 1.0
C      1  0.5034550000000  0.5287900000000  0.5769450000000 1.0
C      1  0.5691340000000  0.5294810000000  0.5101620000000 1.0
C      1  0.5287320000000  0.5267230000000  0.4525470000000 1.0
C      1  0.4630640000000  0.5287290000000  0.4511570000000 1.0
C      1  0.4415860000000  0.5203240000000  0.5305330000000 1.0
C      1  0.4374770000000  0.5798630000000  0.4542340000000 1.0
C      1  0.4444730000000  0.5665460000000  0.5382750000000 1.0
C      1  0.5398980000000  0.5729720000000  0.5860580000000 1.0
C      1  0.5666190000000  0.5692270000000  0.5096500000000 1.0
C      1  0.5187290000000  0.5714940000000  0.4280860000000 1.0
C      1  0.5051900000000  0.5133270000000  0.5299390000000 1.0
C      1  0.5392590000000  0.5140430000000  0.5091470000000 1.0
C      1  0.5044000000000  0.5113080000000  0.4681390000000 1.0
C      1  0.4741810000000  0.5191200000000  0.4818200000000 1.0
C      1  0.4697290000000  0.5240850000000  0.5151630000000 1.0
C      1  0.5970000000000  0.5103910000000  0.4618470000000 1.0
C      1  0.4955210000000  0.5057840000000  0.3964210000000 1.0
C      1  0.4066180000000  0.5103640000000  0.4681880000000 1.0
C      1  0.4462740000000  0.4989400000000  0.5826120000000 1.0
C      1  0.5649210000000  0.4992100000000  0.5772620000000 1.0
C      1  0.5340760000000  0.4975070000000  0.5384030000000 1.0
C      1  0.5503940000000  0.4930740000000  0.4856080000000 1.0
C      1  0.4810810000000  0.5001220000000  0.4474290000000 1.0
C      1  0.4550270000000  0.4928730000000  0.4817190000000 1.0
C      1  0.4762890000000  0.4994620000000  0.5376850000000 1.0
C      1  0.4474560000000  0.4309000000000  0.4551730000000 1.0
C      1  0.4265010000000  0.4363390000000  0.5356560000000 1.0
C      1  0.5165300000000  0.4344530000000  0.5811250000000 1.0
C      1  0.5714370000000  0.4335310000000  0.5038070000000 1.0
C      1  0.5287040000000  0.4387470000000  0.4282660000000 1.0
C      1  0.4953090000000  0.4776410000000  0.5102130000000 1.0
C      1  0.5082870000000  0.5055190000000  0.4976870000000 1.0
END
