TITL C-2622953-3516-188 -9.42991637466765e-05 125000 -432.340148756093 0 0 98 (C1) n - 1
REM
REM in /nfs/bkarasulu/CARBON/AIRSS/Generating-Clusters/AIREBO/with-SteepDescent/Higher-Symm/SD-CG/HFTN-CG
REM
REM
REM
REM
REM
REM ./C.cell (b20cbc046b6831c77cfcea5457e17084)
REM
REM compiler GCC version 9.2.1 20190827 (Red Hat 9.2.1-1)
REM options -cpp -mtune=generic -march=x86-64 -g -O0 -fpre-include=/usr/include/finclude/math-vector-fortran.h
REM seed -1075748375 -211974005 -309577853 -98454982 454649793 1014291553 720781578 2071397856 1506024867 -1775962849 -1051310749 -248073050 1833674382 1835281978 -1751516916 -922053077 1815923528 1224804344 -1002112747 -1566755729 840171608 -1428117918 -1452388102 -1078316650 -1775467693 -227851175 1258649485 -130278711 -921239122 158795615 1252692336 1252031798 -147351511
REM
CELL 1.54180   50.00000   50.00000   50.00000   90.00000   90.00000   90.00000
LATT -1
SFAC C  
C      1  0.4778960000000  0.4491820000000  0.4531610000000 1.0
C      1  0.4842950000000  0.5407010000000  0.4394440000000 1.0
C      1  0.4763850000000  0.5710670000000  0.5188650000000 1.0
C      1  0.4836560000000  0.5077600000000  0.5767400000000 1.0
C      1  0.4828130000000  0.4357440000000  0.5323990000000 1.0
C      1  0.5154220000000  0.5526140000000  0.4439380000000 1.0
C      1  0.5192880000000  0.4653810000000  0.4301200000000 1.0
C      1  0.5148210000000  0.4272560000000  0.5211690000000 1.0
C      1  0.5142550000000  0.4928480000000  0.5762050000000 1.0
C      1  0.5068420000000  0.5676330000000  0.5313630000000 1.0
C      1  0.5415270000000  0.5692610000000  0.5559390000000 1.0
C      1  0.5345470000000  0.4540560000000  0.5841440000000 1.0
C      1  0.5279080000000  0.3955120000000  0.4695830000000 1.0
C      1  0.5515250000000  0.4909460000000  0.4026950000000 1.0
C      1  0.5422290000000  0.5832020000000  0.4664140000000 1.0
C      1  0.4593470000000  0.4388710000000  0.5668250000000 1.0
C      1  0.4623350000000  0.5490080000000  0.5858230000000 1.0
C      1  0.4625270000000  0.5932310000000  0.4833230000000 1.0
C      1  0.4779270000000  0.5094050000000  0.4166250000000 1.0
C      1  0.4528740000000  0.4115840000000  0.4641160000000 1.0
C      1  0.4440570000000  0.4833470000000  0.4406910000000 1.0
C      1  0.4374370000000  0.5486020000000  0.4635700000000 1.0
C      1  0.4295540000000  0.5501100000000  0.5309770000000 1.0
C      1  0.4391170000000  0.4874570000000  0.5586350000000 1.0
C      1  0.4358990000000  0.4408050000000  0.5071430000000 1.0
C      1  0.5584240000000  0.5224790000000  0.4492770000000 1.0
C      1  0.5612790000000  0.4585180000000  0.4641360000000 1.0
C      1  0.5666870000000  0.4514510000000  0.5311510000000 1.0
C      1  0.5561980000000  0.5141210000000  0.5596390000000 1.0
C      1  0.5521240000000  0.5540030000000  0.5074610000000 1.0
C      1  0.4276770000000  0.4514870000000  0.4746480000000 1.0
C      1  0.4366750000000  0.5155670000000  0.4496280000000 1.0
C      1  0.4367040000000  0.5571360000000  0.4975690000000 1.0
C      1  0.4407320000000  0.5218950000000  0.5507990000000 1.0
C      1  0.4357260000000  0.4610690000000  0.5368590000000 1.0
C      1  0.5606270000000  0.5445910000000  0.4754550000000 1.0
C      1  0.5650440000000  0.4883980000000  0.4481600000000 1.0
C      1  0.5598920000000  0.4492500000000  0.4971700000000 1.0
C      1  0.5578030000000  0.4801220000000  0.5527330000000 1.0
C      1  0.5612010000000  0.5391500000000  0.5371780000000 1.0
C      1  0.4690640000000  0.5601170000000  0.4875120000000 1.0
C      1  0.4717360000000  0.5337100000000  0.5582830000000 1.0
C      1  0.4684960000000  0.4637970000000  0.5455670000000 1.0
C      1  0.4595480000000  0.4396530000000  0.4751250000000 1.0
C      1  0.4700240000000  0.5121120000000  0.4481570000000 1.0
C      1  0.5287310000000  0.4470010000000  0.4835650000000 1.0
C      1  0.5257880000000  0.4688730000000  0.5550280000000 1.0
C      1  0.5275080000000  0.5422910000000  0.5406770000000 1.0
C      1  0.5278850000000  0.5538000000000  0.4757100000000 1.0
C      1  0.5363430000000  0.4946720000000  0.4310460000000 1.0
C      1  0.4653190000000  0.5617120000000  0.4537430000000 1.0
C      1  0.4578010000000  0.5605380000000  0.5423830000000 1.0
C      1  0.4655870000000  0.4816410000000  0.5744780000000 1.0
C      1  0.4659930000000  0.4271350000000  0.5060380000000 1.0
C      1  0.4695020000000  0.4686620000000  0.4345880000000 1.0
C      1  0.5345770000000  0.4451500000000  0.4494990000000 1.0
C      1  0.5374640000000  0.4403000000000  0.5407570000000 1.0
C      1  0.5326350000000  0.5197910000000  0.5762010000000 1.0
C      1  0.5257330000000  0.5702230000000  0.5054590000000 1.0
C      1  0.5313940000000  0.5283100000000  0.4304490000000 1.0
C      1  0.5480120000000  0.4724830000000  0.5152960000000 1.0
C      1  0.5496140000000  0.4867590000000  0.4784200000000 1.0
C      1  0.5716870000000  0.5126300000000  0.4790280000000 1.0
C      1  0.5651330000000  0.5226240000000  0.5085400000000 1.0
C      1  0.5486540000000  0.5022660000000  0.5285680000000 1.0
C      1  0.4470650000000  0.5280800000000  0.5118910000000 1.0
C      1  0.4433460000000  0.5220790000000  0.4802390000000 1.0
C      1  0.4394690000000  0.4833560000000  0.4731700000000 1.0
C      1  0.4346980000000  0.4747850000000  0.5057460000000 1.0
C      1  0.4469130000000  0.4980920000000  0.5272840000000 1.0
C      1  0.4925320000000  0.4731160000000  0.5933810000000 1.0
C      1  0.4939190000000  0.4117260000000  0.5026760000000 1.0
C      1  0.4915240000000  0.4719460000000  0.4170150000000 1.0
C      1  0.4933790000000  0.5784920000000  0.4429980000000 1.0
C      1  0.4854760000000  0.5712480000000  0.5575600000000 1.0
C      1  0.5063290000000  0.5269200000000  0.5938360000000 1.0
C      1  0.4985750000000  0.5903510000000  0.5017670000000 1.0
C      1  0.5026370000000  0.5330680000000  0.4118370000000 1.0
C      1  0.5026730000000  0.4380510000000  0.4548440000000 1.0
C      1  0.5080580000000  0.4279940000000  0.5538260000000 1.0
C      1  0.5187450000000  0.4779040000000  0.4896570000000 1.0
C      1  0.5195920000000  0.5037760000000  0.4592200000000 1.0
C      1  0.5190910000000  0.5219940000000  0.4839570000000 1.0
C      1  0.5205180000000  0.5179660000000  0.5177090000000 1.0
C      1  0.5159400000000  0.4771920000000  0.5235530000000 1.0
C      1  0.4762880000000  0.5269480000000  0.4850190000000 1.0
C      1  0.4714710000000  0.4942190000000  0.4770510000000 1.0
C      1  0.4660080000000  0.4657490000000  0.4959670000000 1.0
C      1  0.4800350000000  0.4898210000000  0.5264090000000 1.0
C      1  0.4774670000000  0.5237260000000  0.5264800000000 1.0
C      1  0.4987330000000  0.5712890000000  0.4749860000000 1.0
C      1  0.4955990000000  0.4560190000000  0.5645710000000 1.0
C      1  0.5091930000000  0.4997110000000  0.4111690000000 1.0
C      1  0.5033640000000  0.5443280000000  0.5648690000000 1.0
C      1  0.5132670000000  0.4175830000000  0.4784540000000 1.0
C      1  0.4045300000000  0.4820810000000  0.5051970000000 1.0
C      1  0.6013470000000  0.5044830000000  0.4770970000000 1.0
C      1  0.4963420000000  0.5017020000000  0.4990370000000 1.0
END
