TITL C-2622962-9663-742 -0.00102685512478335 125000 -1010.98795913631 0 0 188 (C1) n - 1
REM
REM in /nfs/bkarasulu/CARBON/AIRSS/Generating-Clusters/AIREBO/with-SteepDescent/Higher-Symm/SD-CG/HFTN-CG
REM
REM
REM
REM
REM
REM ./C.cell (b20cbc046b6831c77cfcea5457e17084)
REM
REM compiler GCC version 9.2.1 20190827 (Red Hat 9.2.1-1)
REM options -cpp -mtune=generic -march=x86-64 -g -O0 -fpre-include=/usr/include/finclude/math-vector-fortran.h
REM seed 1008508868 919917529 -1377796179 -1772314346 -1204265754 1296590607 -624862272 -1627265094 -1676867314 829861089 959875772 -1494169479 817210257 -1930109809 138345613 -1283112671 -1476979558 -1472147656 393047838 -710206990 1109930843 1718472702 -1709579397 -1387939050 -2147324606 1435564129 848243438 1863476889 1018670270 -307716859 -71588822 1765463005 -965449745
REM
CELL 1.54180   50.00000   50.00000   50.00000   90.00000   90.00000   90.00000
LATT -1
SFAC C  
C      1  0.4791890000000  0.6054350000000  0.5577670000000 1.0
C      1  0.4320600000000  0.6029900000000  0.5170870000000 1.0
C      1  0.4573750000000  0.5938730000000  0.4531380000000 1.0
C      1  0.5026130000000  0.6015340000000  0.4361790000000 1.0
C      1  0.5474880000000  0.6000900000000  0.4591110000000 1.0
C      1  0.5542520000000  0.6047070000000  0.5181150000000 1.0
C      1  0.5308660000000  0.6032510000000  0.5578170000000 1.0
C      1  0.4455320000000  0.4165040000000  0.4729430000000 1.0
C      1  0.4785240000000  0.4181330000000  0.4220500000000 1.0
C      1  0.5391530000000  0.4235910000000  0.4311790000000 1.0
C      1  0.5695070000000  0.4212130000000  0.4904740000000 1.0
C      1  0.5556850000000  0.4223140000000  0.5727310000000 1.0
C      1  0.4745410000000  0.4282370000000  0.5778630000000 1.0
C      1  0.4421480000000  0.4058450000000  0.5383580000000 1.0
C      1  0.5675720000000  0.5342940000000  0.4214570000000 1.0
C      1  0.6031290000000  0.5334940000000  0.5002340000000 1.0
C      1  0.5598770000000  0.5355960000000  0.5832390000000 1.0
C      1  0.4688730000000  0.5366790000000  0.6097020000000 1.0
C      1  0.4030610000000  0.5358910000000  0.5437950000000 1.0
C      1  0.4139800000000  0.5337250000000  0.4521490000000 1.0
C      1  0.4781260000000  0.5360660000000  0.3968420000000 1.0
C      1  0.5088710000000  0.4787690000000  0.5667450000000 1.0
C      1  0.4524890000000  0.4808070000000  0.5403430000000 1.0
C      1  0.4230210000000  0.4702230000000  0.4966610000000 1.0
C      1  0.4659800000000  0.4772910000000  0.4383620000000 1.0
C      1  0.5181310000000  0.4745060000000  0.4243380000000 1.0
C      1  0.5609130000000  0.4819710000000  0.4698060000000 1.0
C      1  0.5627660000000  0.4806950000000  0.5200850000000 1.0
C      1  0.5077910000000  0.4294350000000  0.5343190000000 1.0
C      1  0.4766310000000  0.4394420000000  0.5250490000000 1.0
C      1  0.4656180000000  0.4440200000000  0.4938690000000 1.0
C      1  0.4772430000000  0.4286420000000  0.4709380000000 1.0
C      1  0.5069260000000  0.4371980000000  0.4649400000000 1.0
C      1  0.5276980000000  0.4316880000000  0.4853190000000 1.0
C      1  0.5303560000000  0.4448670000000  0.5165580000000 1.0
C      1  0.4382550000000  0.5179890000000  0.4219850000000 1.0
C      1  0.5287010000000  0.5135990000000  0.3877490000000 1.0
C      1  0.5993460000000  0.5143580000000  0.4476060000000 1.0
C      1  0.6010580000000  0.5154980000000  0.5497320000000 1.0
C      1  0.5146810000000  0.5146890000000  0.6017260000000 1.0
C      1  0.4240600000000  0.5228200000000  0.5893600000000 1.0
C      1  0.3917600000000  0.5123860000000  0.4923560000000 1.0
C      1  0.4865350000000  0.5542280000000  0.4489600000000 1.0
C      1  0.5309730000000  0.5524670000000  0.4494480000000 1.0
C      1  0.5646420000000  0.5533520000000  0.4932960000000 1.0
C      1  0.5421330000000  0.5593380000000  0.5401300000000 1.0
C      1  0.4849340000000  0.5663500000000  0.5879880000000 1.0
C      1  0.4438440000000  0.5668840000000  0.5294560000000 1.0
C      1  0.4392070000000  0.5490490000000  0.4827370000000 1.0
C      1  0.4558640000000  0.5107670000000  0.5930010000000 1.0
C      1  0.3991800000000  0.5075890000000  0.5253530000000 1.0
C      1  0.4188770000000  0.5024160000000  0.4452290000000 1.0
C      1  0.4955140000000  0.5070540000000  0.3932070000000 1.0
C      1  0.5754630000000  0.5039940000000  0.4256020000000 1.0
C      1  0.6006550000000  0.5049990000000  0.5172290000000 1.0
C      1  0.5455170000000  0.5081280000000  0.5972240000000 1.0
C      1  0.5257340000000  0.4372000000000  0.5789100000000 1.0
C      1  0.4437240000000  0.4395300000000  0.5689820000000 1.0
C      1  0.4243260000000  0.4190060000000  0.5209530000000 1.0
C      1  0.4485470000000  0.4280330000000  0.4433070000000 1.0
C      1  0.5053890000000  0.4270270000000  0.4104320000000 1.0
C      1  0.5674930000000  0.4278950000000  0.4495260000000 1.0
C      1  0.5718830000000  0.4311310000000  0.5209890000000 1.0
C      1  0.4711260000000  0.4681300000000  0.5647850000000 1.0
C      1  0.4188230000000  0.4518980000000  0.5250280000000 1.0
C      1  0.4436130000000  0.4595710000000  0.4505330000000 1.0
C      1  0.4908400000000  0.4563280000000  0.4152600000000 1.0
C      1  0.5628250000000  0.4609210000000  0.4464010000000 1.0
C      1  0.5803080000000  0.4577650000000  0.5021180000000 1.0
C      1  0.5477290000000  0.4587920000000  0.5645460000000 1.0
C      1  0.5437260000000  0.5080090000000  0.5494680000000 1.0
C      1  0.4883150000000  0.5243490000000  0.5537230000000 1.0
C      1  0.4543240000000  0.5159310000000  0.5213710000000 1.0
C      1  0.4571400000000  0.5135520000000  0.4805610000000 1.0
C      1  0.5021240000000  0.4988340000000  0.4405440000000 1.0
C      1  0.5387950000000  0.5016050000000  0.4559260000000 1.0
C      1  0.5499980000000  0.5070540000000  0.5054110000000 1.0
C      1  0.5707920000000  0.5955380000000  0.5342360000000 1.0
C      1  0.5341820000000  0.5887250000000  0.5809350000000 1.0
C      1  0.4662500000000  0.5869580000000  0.5737220000000 1.0
C      1  0.4163020000000  0.5786620000000  0.5133260000000 1.0
C      1  0.4454370000000  0.5751890000000  0.4376530000000 1.0
C      1  0.5194000000000  0.5940790000000  0.4186760000000 1.0
C      1  0.5723670000000  0.5953280000000  0.4599380000000 1.0
C      1  0.4501010000000  0.4778540000000  0.5866970000000 1.0
C      1  0.3882300000000  0.4787260000000  0.5135310000000 1.0
C      1  0.4194040000000  0.4730050000000  0.4349550000000 1.0
C      1  0.4999200000000  0.4737700000000  0.3875200000000 1.0
C      1  0.5863690000000  0.4732960000000  0.4284020000000 1.0
C      1  0.6023350000000  0.4728500000000  0.5227670000000 1.0
C      1  0.5365650000000  0.4759700000000  0.5906000000000 1.0
C      1  0.5314380000000  0.5546270000000  0.4962450000000 1.0
C      1  0.5414450000000  0.5330450000000  0.5184840000000 1.0
C      1  0.5180140000000  0.5277700000000  0.5425520000000 1.0
C      1  0.4681680000000  0.5435190000000  0.5338520000000 1.0
C      1  0.4669190000000  0.5396340000000  0.5000790000000 1.0
C      1  0.4850090000000  0.5301600000000  0.4712970000000 1.0
C      1  0.5151250000000  0.5258720000000  0.4568900000000 1.0
C      1  0.5317370000000  0.4358700000000  0.4002740000000 1.0
C      1  0.5877440000000  0.4433010000000  0.4721270000000 1.0
C      1  0.5737060000000  0.4414690000000  0.5510450000000 1.0
C      1  0.4989520000000  0.4364750000000  0.6000820000000 1.0
C      1  0.4140730000000  0.4508810000000  0.5592230000000 1.0
C      1  0.4204910000000  0.4292390000000  0.4921480000000 1.0
C      1  0.4585470000000  0.4450850000000  0.4164360000000 1.0
C      1  0.4290100000000  0.5055860000000  0.5415860000000 1.0
C      1  0.4274340000000  0.4985040000000  0.4779600000000 1.0
C      1  0.4757420000000  0.5041670000000  0.4207300000000 1.0
C      1  0.5420220000000  0.4986290000000  0.4223450000000 1.0
C      1  0.5799540000000  0.5011480000000  0.4904400000000 1.0
C      1  0.5642480000000  0.4980610000000  0.5724590000000 1.0
C      1  0.4824650000000  0.4983830000000  0.5753830000000 1.0
C      1  0.5105160000000  0.4643400000000  0.6040000000000 1.0
C      1  0.4230660000000  0.4724300000000  0.5784930000000 1.0
C      1  0.3955830000000  0.4526060000000  0.4926070000000 1.0
C      1  0.4383570000000  0.4674630000000  0.4111890000000 1.0
C      1  0.5285910000000  0.4624700000000  0.3876900000000 1.0
C      1  0.6010590000000  0.4668010000000  0.4556520000000 1.0
C      1  0.5942590000000  0.4662680000000  0.5499070000000 1.0
C      1  0.4230690000000  0.5243060000000  0.4981860000000 1.0
C      1  0.4647420000000  0.5316060000000  0.4371960000000 1.0
C      1  0.5213010000000  0.5251880000000  0.4177210000000 1.0
C      1  0.5733390000000  0.5287770000000  0.4741340000000 1.0
C      1  0.5698980000000  0.5270490000000  0.5455070000000 1.0
C      1  0.4967960000000  0.5351910000000  0.5813340000000 1.0
C      1  0.4391130000000  0.5312660000000  0.5600650000000 1.0
C      1  0.4679050000000  0.3906080000000  0.4736230000000 1.0
C      1  0.4895240000000  0.4041370000000  0.4510570000000 1.0
C      1  0.5234930000000  0.4029170000000  0.4531700000000 1.0
C      1  0.5415930000000  0.4037140000000  0.4820530000000 1.0
C      1  0.5320890000000  0.3891020000000  0.5088640000000 1.0
C      1  0.5229960000000  0.3992920000000  0.5302240000000 1.0
C      1  0.4664240000000  0.4157430000000  0.5472070000000 1.0
C      1  0.4229070000000  0.5407290000000  0.5236530000000 1.0
C      1  0.4414740000000  0.5488350000000  0.4519200000000 1.0
C      1  0.4976890000000  0.5464420000000  0.4191790000000 1.0
C      1  0.5609790000000  0.5458080000000  0.4483020000000 1.0
C      1  0.5803780000000  0.5474430000000  0.5203520000000 1.0
C      1  0.5402260000000  0.5565540000000  0.5739720000000 1.0
C      1  0.4572620000000  0.5489440000000  0.5812290000000 1.0
C      1  0.5265710000000  0.5643390000000  0.4178570000000 1.0
C      1  0.5806330000000  0.5668560000000  0.4660150000000 1.0
C      1  0.5747160000000  0.5664760000000  0.5467800000000 1.0
C      1  0.5166440000000  0.5660000000000  0.5965880000000 1.0
C      1  0.4394250000000  0.5710230000000  0.5624460000000 1.0
C      1  0.4103240000000  0.5616720000000  0.4919880000000 1.0
C      1  0.4432770000000  0.5685790000000  0.4096710000000 1.0
C      1  0.4618140000000  0.5915100000000  0.5135220000000 1.0
C      1  0.4733190000000  0.5952280000000  0.4817010000000 1.0
C      1  0.4948950000000  0.5818290000000  0.4599890000000 1.0
C      1  0.5259030000000  0.5776060000000  0.4717930000000 1.0
C      1  0.5288950000000  0.5958950000000  0.5003190000000 1.0
C      1  0.5220030000000  0.5856170000000  0.5319990000000 1.0
C      1  0.4894240000000  0.5960110000000  0.5302870000000 1.0
C      1  0.4979880000000  0.4469280000000  0.5618040000000 1.0
C      1  0.4476950000000  0.4499650000000  0.5384360000000 1.0
C      1  0.4476600000000  0.4641700000000  0.4804700000000 1.0
C      1  0.4912280000000  0.4589260000000  0.4491250000000 1.0
C      1  0.5306240000000  0.4527500000000  0.4461560000000 1.0
C      1  0.5483270000000  0.4581420000000  0.4905480000000 1.0
C      1  0.5411650000000  0.4673220000000  0.5352430000000 1.0
C      1  0.4136280000000  0.5504710000000  0.5718030000000 1.0
C      1  0.3963080000000  0.5407610000000  0.4741190000000 1.0
C      1  0.4504300000000  0.5417710000000  0.4014710000000 1.0
C      1  0.5450560000000  0.5411140000000  0.4005390000000 1.0
C      1  0.6035390000000  0.5415550000000  0.4672030000000 1.0
C      1  0.5890340000000  0.5427910000000  0.5672990000000 1.0
C      1  0.5008730000000  0.5420900000000  0.6151700000000 1.0
C      1  0.6030970000000  0.4924760000000  0.4672610000000 1.0
C      1  0.5902900000000  0.4897720000000  0.5648720000000 1.0
C      1  0.4966190000000  0.4891290000000  0.6048870000000 1.0
C      1  0.4144380000000  0.4978220000000  0.5706240000000 1.0
C      1  0.3830500000000  0.4824240000000  0.4821120000000 1.0
C      1  0.4488620000000  0.4928950000000  0.4029800000000 1.0
C      1  0.5451100000000  0.4856310000000  0.3909340000000 1.0
C      1  0.4908100000000  0.4852350000000  0.4681380000000 1.0
C      1  0.5215040000000  0.4771240000000  0.4677620000000 1.0
C      1  0.5305740000000  0.4851350000000  0.4969880000000 1.0
C      1  0.5182480000000  0.4882040000000  0.5387170000000 1.0
C      1  0.4908200000000  0.4699470000000  0.5300570000000 1.0
C      1  0.4696240000000  0.4898120000000  0.5152200000000 1.0
C      1  0.4682280000000  0.4855810000000  0.4858400000000 1.0
C      1  0.4869250000000  0.4089400000000  0.5140630000000 1.0
C      1  0.4972460000000  0.5550500000000  0.4996890000000 1.0
C      1  0.4786040000000  0.3889860000000  0.4990090000000 1.0
C      1  0.5046980000000  0.4748300000000  0.5038960000000 1.0
C      1  0.4984910000000  0.5851320000000  0.4998830000000 1.0
C      1  0.5019090000000  0.5307990000000  0.5168200000000 1.0
END
