TITL C-2622963-3633-167 -0.00130888358567482 125000 -769.2927100604 0 0 144 (C1) n - 1
REM
REM in /nfs/bkarasulu/CARBON/AIRSS/Generating-Clusters/AIREBO/with-SteepDescent/Higher-Symm/SD-CG/HFTN-CG
REM
REM
REM
REM
REM
REM ./C.cell (b20cbc046b6831c77cfcea5457e17084)
REM
REM compiler GCC version 9.2.1 20190827 (Red Hat 9.2.1-1)
REM options -cpp -mtune=generic -march=x86-64 -g -O0 -fpre-include=/usr/include/finclude/math-vector-fortran.h
REM seed -613429937 -80110959 442596196 1710447847 -1847256190 1582043747 1449314671 -253392489 -1430060264 576401807 -64528106 -661937516 -1397552096 -1199614381 1300310852 220850402 1941428274 1047773722 -257691323 838613011 -1287994336 668392889 -215923940 -1840535892 -9939907 -1255282055 117106863 1106391186 1479175182 2050000155 2137879769 1628721198 -60740112
REM
CELL 1.54180   50.00000   50.00000   50.00000   90.00000   90.00000   90.00000
LATT -1
SFAC C  
C      1  0.5338470000000  0.4877830000000  0.4847410000000 1.0
C      1  0.4983850000000  0.4696510000000  0.4845410000000 1.0
C      1  0.4625190000000  0.4861830000000  0.4893250000000 1.0
C      1  0.4865990000000  0.5237710000000  0.4902640000000 1.0
C      1  0.5255440000000  0.5316240000000  0.4859350000000 1.0
C      1  0.5321880000000  0.5140950000000  0.5143220000000 1.0
C      1  0.4990590000000  0.5364240000000  0.5152320000000 1.0
C      1  0.4613640000000  0.5132970000000  0.5082500000000 1.0
C      1  0.4869980000000  0.4830040000000  0.5105440000000 1.0
C      1  0.5222140000000  0.4602780000000  0.5010130000000 1.0
C      1  0.5656830000000  0.5580590000000  0.5370270000000 1.0
C      1  0.5734460000000  0.4608880000000  0.5377350000000 1.0
C      1  0.4881170000000  0.4168660000000  0.5340520000000 1.0
C      1  0.4129940000000  0.4913690000000  0.5362100000000 1.0
C      1  0.4528680000000  0.5792820000000  0.5420310000000 1.0
C      1  0.5723740000000  0.4374210000000  0.4577140000000 1.0
C      1  0.5788150000000  0.5479610000000  0.4563630000000 1.0
C      1  0.4915920000000  0.5817670000000  0.4620870000000 1.0
C      1  0.4045460000000  0.5029640000000  0.4620940000000 1.0
C      1  0.4594580000000  0.4140000000000  0.4558690000000 1.0
C      1  0.4360140000000  0.5458620000000  0.5558020000000 1.0
C      1  0.5372840000000  0.5732360000000  0.5607200000000 1.0
C      1  0.5782970000000  0.4975090000000  0.5528880000000 1.0
C      1  0.5224530000000  0.4314130000000  0.5483920000000 1.0
C      1  0.4346970000000  0.4662810000000  0.5582020000000 1.0
C      1  0.4450860000000  0.4471160000000  0.4388140000000 1.0
C      1  0.5375310000000  0.4296350000000  0.4400610000000 1.0
C      1  0.5763050000000  0.5127660000000  0.4377510000000 1.0
C      1  0.5151900000000  0.5607470000000  0.4189530000000 1.0
C      1  0.4373120000000  0.5320320000000  0.4435930000000 1.0
C      1  0.4099360000000  0.4755300000000  0.4785890000000 1.0
C      1  0.4537400000000  0.5716310000000  0.4697560000000 1.0
C      1  0.5600050000000  0.5707860000000  0.4687950000000 1.0
C      1  0.5855010000000  0.4715450000000  0.4685270000000 1.0
C      1  0.4977340000000  0.4057690000000  0.4627080000000 1.0
C      1  0.4176160000000  0.5305030000000  0.5316710000000 1.0
C      1  0.4499350000000  0.4267780000000  0.5284170000000 1.0
C      1  0.5526450000000  0.4270170000000  0.5333320000000 1.0
C      1  0.5832290000000  0.5230050000000  0.5308510000000 1.0
C      1  0.4913010000000  0.5889690000000  0.5451230000000 1.0
C      1  0.5341670000000  0.5645260000000  0.4855910000000 1.0
C      1  0.5675390000000  0.4877990000000  0.4893330000000 1.0
C      1  0.5107020000000  0.4249350000000  0.4864370000000 1.0
C      1  0.4380650000000  0.4667460000000  0.4905650000000 1.0
C      1  0.4486030000000  0.5549360000000  0.4978570000000 1.0
C      1  0.5368310000000  0.4311740000000  0.5041530000000 1.0
C      1  0.5655170000000  0.5133130000000  0.5076370000000 1.0
C      1  0.5116360000000  0.5662230000000  0.5097100000000 1.0
C      1  0.4349820000000  0.5304640000000  0.5061530000000 1.0
C      1  0.4474270000000  0.4415780000000  0.4992500000000 1.0
C      1  0.4303980000000  0.4227510000000  0.4539870000000 1.0
C      1  0.4124060000000  0.5331120000000  0.4570020000000 1.0
C      1  0.5147650000000  0.5913710000000  0.4778660000000 1.0
C      1  0.5948380000000  0.5214320000000  0.4613880000000 1.0
C      1  0.5532940000000  0.4150800000000  0.4659100000000 1.0
C      1  0.4243460000000  0.5713810000000  0.5364020000000 1.0
C      1  0.4032820000000  0.4639090000000  0.5465830000000 1.0
C      1  0.5128640000000  0.4006450000000  0.5370900000000 1.0
C      1  0.5989750000000  0.4748370000000  0.5379030000000 1.0
C      1  0.5606790000000  0.5871530000000  0.5443570000000 1.0
C      1  0.5388250000000  0.4597650000000  0.4246770000000 1.0
C      1  0.4731720000000  0.4442920000000  0.4263940000000 1.0
C      1  0.4433760000000  0.5074050000000  0.4280010000000 1.0
C      1  0.4852980000000  0.5564830000000  0.4226540000000 1.0
C      1  0.5507590000000  0.5232520000000  0.4216340000000 1.0
C      1  0.5400180000000  0.5457920000000  0.5753570000000 1.0
C      1  0.4633440000000  0.5537300000000  0.5744470000000 1.0
C      1  0.4440890000000  0.4909250000000  0.5732760000000 1.0
C      1  0.4961210000000  0.4399570000000  0.5682950000000 1.0
C      1  0.5566330000000  0.4775720000000  0.5699330000000 1.0
C      1  0.5977480000000  0.5419930000000  0.5065720000000 1.0
C      1  0.5755210000000  0.4222660000000  0.5086190000000 1.0
C      1  0.4505770000000  0.4026660000000  0.5044090000000 1.0
C      1  0.3946930000000  0.5213030000000  0.5082100000000 1.0
C      1  0.4809260000000  0.5995770000000  0.5143760000000 1.0
C      1  0.5905510000000  0.4494230000000  0.4939880000000 1.0
C      1  0.5808110000000  0.5694320000000  0.4957120000000 1.0
C      1  0.4530180000000  0.5940580000000  0.4953550000000 1.0
C      1  0.3908760000000  0.4898180000000  0.5028650000000 1.0
C      1  0.4819340000000  0.3978050000000  0.4920370000000 1.0
C      1  0.4716490000000  0.5670660000000  0.5180510000000 1.0
C      1  0.5500330000000  0.5497420000000  0.5117770000000 1.0
C      1  0.5587960000000  0.4686080000000  0.5139160000000 1.0
C      1  0.4900710000000  0.4334900000000  0.5090670000000 1.0
C      1  0.4298050000000  0.4893510000000  0.5114560000000 1.0
C      1  0.4711150000000  0.4284250000000  0.4818930000000 1.0
C      1  0.5575200000000  0.4494040000000  0.4858690000000 1.0
C      1  0.5648990000000  0.5345820000000  0.4843600000000 1.0
C      1  0.4881000000000  0.5636950000000  0.4884800000000 1.0
C      1  0.4304920000000  0.5090040000000  0.4832330000000 1.0
C      1  0.4945390000000  0.5420250000000  0.4633990000000 1.0
C      1  0.5446000000000  0.5202360000000  0.4608620000000 1.0
C      1  0.5379770000000  0.4643960000000  0.4640920000000 1.0
C      1  0.4826090000000  0.4532480000000  0.4654110000000 1.0
C      1  0.4587160000000  0.5056310000000  0.4645440000000 1.0
C      1  0.4859940000000  0.4578410000000  0.5267660000000 1.0
C      1  0.5320560000000  0.4815060000000  0.5240390000000 1.0
C      1  0.5321940000000  0.5365020000000  0.5375200000000 1.0
C      1  0.4818450000000  0.5444570000000  0.5402380000000 1.0
C      1  0.4531000000000  0.4933420000000  0.5345230000000 1.0
C      1  0.4840800000000  0.4180330000000  0.4372890000000 1.0
C      1  0.4284990000000  0.4842300000000  0.4480930000000 1.0
C      1  0.4734580000000  0.5719240000000  0.4420270000000 1.0
C      1  0.5518640000000  0.5526700000000  0.4387770000000 1.0
C      1  0.5693450000000  0.4633600000000  0.4395860000000 1.0
C      1  0.4707080000000  0.5820540000000  0.5668180000000 1.0
C      1  0.4238100000000  0.5086650000000  0.5570370000000 1.0
C      1  0.4703040000000  0.4280200000000  0.5556510000000 1.0
C      1  0.5568790000000  0.4483390000000  0.5594990000000 1.0
C      1  0.5690150000000  0.5359110000000  0.5589420000000 1.0
C      1  0.5184020000000  0.4789930000000  0.4169000000000 1.0
C      1  0.4856670000000  0.4759200000000  0.4263720000000 1.0
C      1  0.4703960000000  0.5050280000000  0.4176810000000 1.0
C      1  0.4977960000000  0.5249010000000  0.4209540000000 1.0
C      1  0.5259060000000  0.5080710000000  0.4167330000000 1.0
C      1  0.5168190000000  0.5255290000000  0.5795560000000 1.0
C      1  0.4830910000000  0.5251760000000  0.5750140000000 1.0
C      1  0.4727640000000  0.4930610000000  0.5793500000000 1.0
C      1  0.4993030000000  0.4738140000000  0.5701560000000 1.0
C      1  0.5268520000000  0.4935170000000  0.5738860000000 1.0
C      1  0.5133890000000  0.4624110000000  0.5413620000000 1.0
C      1  0.4560790000000  0.4594500000000  0.5357080000000 1.0
C      1  0.4603270000000  0.5228490000000  0.5498370000000 1.0
C      1  0.5116310000000  0.5632120000000  0.5419740000000 1.0
C      1  0.5467160000000  0.5123470000000  0.5546690000000 1.0
C      1  0.5214110000000  0.5383670000000  0.4437970000000 1.0
C      1  0.4619840000000  0.5394440000000  0.4623470000000 1.0
C      1  0.4611310000000  0.4748470000000  0.4502290000000 1.0
C      1  0.5145900000000  0.4433010000000  0.4593110000000 1.0
C      1  0.5551320000000  0.4909630000000  0.4514510000000 1.0
C      1  0.5755300000000  0.5902080000000  0.5159600000000 1.0
C      1  0.6105930000000  0.4653920000000  0.5143800000000 1.0
C      1  0.5036860000000  0.3867230000000  0.5129370000000 1.0
C      1  0.3825230000000  0.4698470000000  0.5228860000000 1.0
C      1  0.4298360000000  0.5904920000000  0.5114790000000 1.0
C      1  0.5665520000000  0.4034110000000  0.4890430000000 1.0
C      1  0.6111810000000  0.5285940000000  0.4840770000000 1.0
C      1  0.5064980000000  0.6080710000000  0.4980900000000 1.0
C      1  0.3962730000000  0.5359810000000  0.4830780000000 1.0
C      1  0.4315950000000  0.4063640000000  0.4833350000000 1.0
C      1  0.5096340000000  0.5061680000000  0.4729190000000 1.0
C      1  0.5004840000000  0.5059430000000  0.5232080000000 1.0
C      1  0.4983930000000  0.4922600000000  0.4519610000000 1.0
C      1  0.4966250000000  0.5066140000000  0.5507750000000 1.0
END
