TITL C-2622965-4321-264 -0.00240124083472149 125000 -752.192763283497 0 0 143 (C1) n - 1
REM
REM in /nfs/bkarasulu/CARBON/AIRSS/Generating-Clusters/AIREBO/with-SteepDescent/Higher-Symm/SD-CG/HFTN-CG
REM
REM
REM
REM
REM
REM ./C.cell (b20cbc046b6831c77cfcea5457e17084)
REM
REM compiler GCC version 9.2.1 20190827 (Red Hat 9.2.1-1)
REM options -cpp -mtune=generic -march=x86-64 -g -O0 -fpre-include=/usr/include/finclude/math-vector-fortran.h
REM seed -2139575805 -371285305 1889767232 -427000660 1317269407 1651179770 -1795042083 1847495044 2140036368 -1953158252 158011335 -1406250044 226355166 600841163 -1227735455 782127062 764739130 1444965230 -1044862063 39279136 -1427416595 -832773914 906399683 -200520331 605891021 271222042 1304736748 -801213877 -1155068770 -974277326 648084715 518027522 816053203
REM
CELL 1.54180   50.00000   50.00000   50.00000   90.00000   90.00000   90.00000
LATT -1
SFAC C  
C      1  0.4410150000000  0.4698340000000  0.4368260000000 1.0
C      1  0.5064630000000  0.4645620000000  0.4208730000000 1.0
C      1  0.5719690000000  0.4668900000000  0.4532320000000 1.0
C      1  0.5953710000000  0.4567590000000  0.5342840000000 1.0
C      1  0.5435980000000  0.4625440000000  0.5827640000000 1.0
C      1  0.4555330000000  0.4752030000000  0.5798040000000 1.0
C      1  0.3968100000000  0.4654450000000  0.5008080000000 1.0
C      1  0.5603400000000  0.5756870000000  0.5120660000000 1.0
C      1  0.5232860000000  0.5837830000000  0.5654250000000 1.0
C      1  0.4709840000000  0.5766080000000  0.5625340000000 1.0
C      1  0.4281590000000  0.5694050000000  0.5254740000000 1.0
C      1  0.4462800000000  0.5731620000000  0.4559810000000 1.0
C      1  0.4989990000000  0.5812630000000  0.4298250000000 1.0
C      1  0.5479290000000  0.5944780000000  0.4509100000000 1.0
C      1  0.5548860000000  0.4810440000000  0.5355990000000 1.0
C      1  0.5115940000000  0.4740220000000  0.5833060000000 1.0
C      1  0.4484200000000  0.4837350000000  0.5476520000000 1.0
C      1  0.4491590000000  0.4898130000000  0.4838340000000 1.0
C      1  0.4700370000000  0.4848180000000  0.4464560000000 1.0
C      1  0.5188560000000  0.4743330000000  0.4509950000000 1.0
C      1  0.5573680000000  0.4841750000000  0.4771540000000 1.0
C      1  0.4955010000000  0.5978930000000  0.5600570000000 1.0
C      1  0.4413400000000  0.6005570000000  0.5289480000000 1.0
C      1  0.4535900000000  0.5873460000000  0.4839770000000 1.0
C      1  0.4742210000000  0.5993110000000  0.4446390000000 1.0
C      1  0.5231820000000  0.6087350000000  0.4481500000000 1.0
C      1  0.5525020000000  0.5850770000000  0.4803350000000 1.0
C      1  0.5400030000000  0.5956520000000  0.5400790000000 1.0
C      1  0.4801240000000  0.5373920000000  0.5316340000000 1.0
C      1  0.4684000000000  0.5422710000000  0.5014970000000 1.0
C      1  0.4831080000000  0.5399520000000  0.4726520000000 1.0
C      1  0.5107570000000  0.5254290000000  0.4708720000000 1.0
C      1  0.5350840000000  0.5400630000000  0.4847080000000 1.0
C      1  0.5344520000000  0.5397080000000  0.5189490000000 1.0
C      1  0.5078400000000  0.5513810000000  0.5349920000000 1.0
C      1  0.6030000000000  0.4613100000000  0.5047500000000 1.0
C      1  0.5699920000000  0.4642620000000  0.5782670000000 1.0
C      1  0.4608390000000  0.4793370000000  0.6056750000000 1.0
C      1  0.3861540000000  0.4808050000000  0.5219290000000 1.0
C      1  0.4113980000000  0.4713170000000  0.4469330000000 1.0
C      1  0.4842720000000  0.4780770000000  0.4022970000000 1.0
C      1  0.5617950000000  0.4751090000000  0.4265890000000 1.0
C      1  0.5610510000000  0.5532840000000  0.5352250000000 1.0
C      1  0.5181250000000  0.5502170000000  0.5673930000000 1.0
C      1  0.4613110000000  0.5441110000000  0.5598660000000 1.0
C      1  0.4182780000000  0.5504040000000  0.5027960000000 1.0
C      1  0.4435520000000  0.5582400000000  0.4285260000000 1.0
C      1  0.5194660000000  0.5585990000000  0.4254460000000 1.0
C      1  0.5581350000000  0.5458930000000  0.4603630000000 1.0
C      1  0.4413340000000  0.4568930000000  0.4804780000000 1.0
C      1  0.4828430000000  0.4422630000000  0.4309520000000 1.0
C      1  0.5380720000000  0.4462930000000  0.4481280000000 1.0
C      1  0.5793580000000  0.4323320000000  0.4906310000000 1.0
C      1  0.5500740000000  0.4489600000000  0.5458200000000 1.0
C      1  0.4924210000000  0.4484080000000  0.5730750000000 1.0
C      1  0.4339700000000  0.4538260000000  0.5403790000000 1.0
C      1  0.5245290000000  0.5173050000000  0.5617370000000 1.0
C      1  0.4714960000000  0.5119250000000  0.5639620000000 1.0
C      1  0.4354800000000  0.5224340000000  0.5120280000000 1.0
C      1  0.4498680000000  0.5336810000000  0.4513120000000 1.0
C      1  0.5052400000000  0.5282820000000  0.4314370000000 1.0
C      1  0.5533810000000  0.5166030000000  0.4437430000000 1.0
C      1  0.5641430000000  0.5134400000000  0.5141490000000 1.0
C      1  0.5677660000000  0.4368950000000  0.4620690000000 1.0
C      1  0.5733390000000  0.4371070000000  0.5239290000000 1.0
C      1  0.5251980000000  0.4402820000000  0.5674220000000 1.0
C      1  0.4601210000000  0.4484190000000  0.5622560000000 1.0
C      1  0.4223990000000  0.4518250000000  0.5084270000000 1.0
C      1  0.4576580000000  0.4471790000000  0.4518210000000 1.0
C      1  0.5153760000000  0.4323930000000  0.4273380000000 1.0
C      1  0.5301590000000  0.4684710000000  0.4808110000000 1.0
C      1  0.5464460000000  0.4621470000000  0.5085800000000 1.0
C      1  0.5187190000000  0.4660140000000  0.5278810000000 1.0
C      1  0.4974450000000  0.4807670000000  0.5386900000000 1.0
C      1  0.4718000000000  0.4703170000000  0.5269250000000 1.0
C      1  0.4751920000000  0.4716380000000  0.4946970000000 1.0
C      1  0.4891050000000  0.4687120000000  0.4637820000000 1.0
C      1  0.4451020000000  0.4292940000000  0.5087940000000 1.0
C      1  0.4492260000000  0.4242070000000  0.4754290000000 1.0
C      1  0.4938870000000  0.4122100000000  0.4433880000000 1.0
C      1  0.5517300000000  0.4089830000000  0.4511420000000 1.0
C      1  0.5655470000000  0.4076800000000  0.5093170000000 1.0
C      1  0.5249620000000  0.4083090000000  0.5595200000000 1.0
C      1  0.4773390000000  0.4225210000000  0.5492960000000 1.0
C      1  0.4787580000000  0.5176760000000  0.4473190000000 1.0
C      1  0.5232840000000  0.5060610000000  0.4488740000000 1.0
C      1  0.5541400000000  0.5124760000000  0.4885720000000 1.0
C      1  0.5410890000000  0.5119360000000  0.5374270000000 1.0
C      1  0.4991330000000  0.4982950000000  0.5629810000000 1.0
C      1  0.4554340000000  0.5141330000000  0.5340700000000 1.0
C      1  0.4484250000000  0.5229190000000  0.4814940000000 1.0
C      1  0.4224800000000  0.5637840000000  0.4754650000000 1.0
C      1  0.4665550000000  0.5773070000000  0.4217530000000 1.0
C      1  0.5449910000000  0.5667740000000  0.4408920000000 1.0
C      1  0.5753680000000  0.5625650000000  0.4844900000000 1.0
C      1  0.5499380000000  0.5631580000000  0.5611740000000 1.0
C      1  0.4881160000000  0.5533070000000  0.5804130000000 1.0
C      1  0.4304490000000  0.5527550000000  0.5508180000000 1.0
C      1  0.5944970000000  0.5140290000000  0.5206420000000 1.0
C      1  0.5186180000000  0.5201370000000  0.5936750000000 1.0
C      1  0.4385040000000  0.5137980000000  0.5719910000000 1.0
C      1  0.4047570000000  0.5131340000000  0.5076210000000 1.0
C      1  0.4432940000000  0.5196570000000  0.4216430000000 1.0
C      1  0.5257130000000  0.5240880000000  0.4066420000000 1.0
C      1  0.5840040000000  0.5169240000000  0.4514920000000 1.0
C      1  0.5055050000000  0.5843140000000  0.4630640000000 1.0
C      1  0.5237510000000  0.5721310000000  0.4838590000000 1.0
C      1  0.5284580000000  0.5876450000000  0.5120150000000 1.0
C      1  0.5035000000000  0.5822250000000  0.5307480000000 1.0
C      1  0.4706270000000  0.5871960000000  0.5312380000000 1.0
C      1  0.4562810000000  0.5708760000000  0.5070870000000 1.0
C      1  0.4786400000000  0.5669890000000  0.4605650000000 1.0
C      1  0.4267250000000  0.5396970000000  0.4061780000000 1.0
C      1  0.5268340000000  0.5506090000000  0.3930680000000 1.0
C      1  0.5909040000000  0.5451750000000  0.4493850000000 1.0
C      1  0.5826130000000  0.5339640000000  0.5427750000000 1.0
C      1  0.5286510000000  0.5473970000000  0.6000280000000 1.0
C      1  0.4469280000000  0.5370480000000  0.5903300000000 1.0
C      1  0.3877350000000  0.5369340000000  0.5056560000000 1.0
C      1  0.5317950000000  0.4232100000000  0.4722910000000 1.0
C      1  0.5410580000000  0.4292640000000  0.5002560000000 1.0
C      1  0.5276410000000  0.4332090000000  0.5283930000000 1.0
C      1  0.5030860000000  0.4142030000000  0.5352640000000 1.0
C      1  0.4667330000000  0.4375540000000  0.5247600000000 1.0
C      1  0.4765180000000  0.4387400000000  0.4861160000000 1.0
C      1  0.5025870000000  0.4370490000000  0.4649170000000 1.0
C      1  0.3961710000000  0.4879490000000  0.5462790000000 1.0
C      1  0.4015360000000  0.4771050000000  0.4728560000000 1.0
C      1  0.4520640000000  0.4674580000000  0.4050960000000 1.0
C      1  0.5349790000000  0.4729340000000  0.4073120000000 1.0
C      1  0.5943220000000  0.4692820000000  0.4790280000000 1.0
C      1  0.5873990000000  0.4716890000000  0.5567020000000 1.0
C      1  0.4824670000000  0.4918740000000  0.6178020000000 1.0
C      1  0.5875210000000  0.4987040000000  0.4711630000000 1.0
C      1  0.5799470000000  0.5003530000000  0.5481630000000 1.0
C      1  0.5057070000000  0.4975350000000  0.6027910000000 1.0
C      1  0.4190340000000  0.4966720000000  0.5588470000000 1.0
C      1  0.4176500000000  0.4978440000000  0.4860540000000 1.0
C      1  0.4607910000000  0.4978890000000  0.4165970000000 1.0
C      1  0.5463220000000  0.5032450000000  0.4147340000000 1.0
C      1  0.4988880000000  0.4214850000000  0.5034130000000 1.0
C      1  0.4921160000000  0.3930800000000  0.4908450000000 1.0
C      1  0.5086680000000  0.4539100000000  0.5002180000000 1.0
END
