TITL C-2622955-8511-355 -0.000894142973232132 125000 -908.008070517389 0 0 163 (C1) n - 1
REM
REM in /nfs/bkarasulu/CARBON/AIRSS/Generating-Clusters/AIREBO/with-SteepDescent/Higher-Symm/SD-CG/HFTN-CG
REM
REM
REM
REM
REM
REM ./C.cell (b20cbc046b6831c77cfcea5457e17084)
REM
REM compiler GCC version 9.2.1 20190827 (Red Hat 9.2.1-1)
REM options -cpp -mtune=generic -march=x86-64 -g -O0 -fpre-include=/usr/include/finclude/math-vector-fortran.h
REM seed 359357391 -732229832 -1389646991 2121104246 -1500480509 -1096640236 1091474073 532294761 -1184935520 959927853 1924850969 1053333173 331426382 1485398327 -1148516437 1698327286 -28314690 202926707 -2128459778 226643590 -74683229 885455424 -497247870 -925167947 -236086092 -652903818 -1515208158 -1236326194 864466126 1978758129 -965513259 48381437 -208995043
REM
CELL 1.54180   50.00000   50.00000   50.00000   90.00000   90.00000   90.00000
LATT -1
SFAC C  
C      1  0.5815460000000  0.5635880000000  0.5558220000000 1.0
C      1  0.6060280000000  0.4717140000000  0.5573900000000 1.0
C      1  0.5215540000000  0.4026720000000  0.5556460000000 1.0
C      1  0.4204780000000  0.4295820000000  0.5524190000000 1.0
C      1  0.4082560000000  0.5277020000000  0.5494480000000 1.0
C      1  0.4745380000000  0.6066850000000  0.5544590000000 1.0
C      1  0.4591000000000  0.5744680000000  0.4525520000000 1.0
C      1  0.5289430000000  0.5713600000000  0.4562180000000 1.0
C      1  0.5710440000000  0.5127250000000  0.4629640000000 1.0
C      1  0.5487240000000  0.4402140000000  0.4439310000000 1.0
C      1  0.4827550000000  0.4110250000000  0.4457210000000 1.0
C      1  0.4255130000000  0.4827270000000  0.4543190000000 1.0
C      1  0.4506320000000  0.4067610000000  0.5264880000000 1.0
C      1  0.3938090000000  0.4949700000000  0.5201500000000 1.0
C      1  0.4411180000000  0.5906650000000  0.5217030000000 1.0
C      1  0.5590490000000  0.5971060000000  0.5304630000000 1.0
C      1  0.6108090000000  0.5160210000000  0.5365180000000 1.0
C      1  0.5572360000000  0.4098010000000  0.5271520000000 1.0
C      1  0.4675730000000  0.4518910000000  0.5586780000000 1.0
C      1  0.4410450000000  0.5046680000000  0.5424020000000 1.0
C      1  0.4780790000000  0.5570660000000  0.5513670000000 1.0
C      1  0.5328620000000  0.5499010000000  0.5490060000000 1.0
C      1  0.5711010000000  0.5039030000000  0.5590920000000 1.0
C      1  0.5247340000000  0.4422930000000  0.5519470000000 1.0
C      1  0.5254560000000  0.4181910000000  0.4815780000000 1.0
C      1  0.4467660000000  0.4361780000000  0.4842060000000 1.0
C      1  0.4247010000000  0.5144400000000  0.4817750000000 1.0
C      1  0.4914410000000  0.5772770000000  0.4922100000000 1.0
C      1  0.5489600000000  0.5562020000000  0.4932540000000 1.0
C      1  0.5792620000000  0.4807830000000  0.4869100000000 1.0
C      1  0.5416240000000  0.4566530000000  0.5274930000000 1.0
C      1  0.4787610000000  0.4396200000000  0.5292550000000 1.0
C      1  0.4444710000000  0.4775950000000  0.5221130000000 1.0
C      1  0.4581540000000  0.5386640000000  0.5220340000000 1.0
C      1  0.5135870000000  0.5757120000000  0.5262880000000 1.0
C      1  0.5574100000000  0.5137860000000  0.5332760000000 1.0
C      1  0.4749820000000  0.5654900000000  0.4075670000000 1.0
C      1  0.5415400000000  0.5432570000000  0.4127940000000 1.0
C      1  0.5588270000000  0.4860200000000  0.4174920000000 1.0
C      1  0.5178670000000  0.4470620000000  0.4002080000000 1.0
C      1  0.4636160000000  0.4567940000000  0.4107660000000 1.0
C      1  0.4377720000000  0.5082600000000  0.4084190000000 1.0
C      1  0.5268840000000  0.5053620000000  0.4422690000000 1.0
C      1  0.5163940000000  0.4762620000000  0.4466000000000 1.0
C      1  0.4862190000000  0.4662190000000  0.4420190000000 1.0
C      1  0.4638750000000  0.4882860000000  0.4437010000000 1.0
C      1  0.4741060000000  0.5181360000000  0.4309930000000 1.0
C      1  0.5072480000000  0.5254800000000  0.4289880000000 1.0
C      1  0.5530280000000  0.4213420000000  0.4675400000000 1.0
C      1  0.4669830000000  0.4159200000000  0.4754450000000 1.0
C      1  0.4070300000000  0.4866260000000  0.4785010000000 1.0
C      1  0.4398180000000  0.5753190000000  0.4710050000000 1.0
C      1  0.5424270000000  0.5869490000000  0.4805180000000 1.0
C      1  0.5926060000000  0.5120050000000  0.4841470000000 1.0
C      1  0.4722660000000  0.4040120000000  0.5491910000000 1.0
C      1  0.3999120000000  0.4757530000000  0.5447220000000 1.0
C      1  0.4317250000000  0.5697130000000  0.5419580000000 1.0
C      1  0.5359660000000  0.6002450000000  0.5528090000000 1.0
C      1  0.6045450000000  0.5416340000000  0.5553970000000 1.0
C      1  0.5735440000000  0.4236450000000  0.5511960000000 1.0
C      1  0.4762190000000  0.4767750000000  0.5098640000000 1.0
C      1  0.4723520000000  0.5075650000000  0.5015770000000 1.0
C      1  0.5002950000000  0.5260840000000  0.5101370000000 1.0
C      1  0.5292520000000  0.5116800000000  0.4996290000000 1.0
C      1  0.5349700000000  0.4824890000000  0.5130750000000 1.0
C      1  0.5075610000000  0.4659870000000  0.5022750000000 1.0
C      1  0.6175280000000  0.4908190000000  0.5412800000000 1.0
C      1  0.5313470000000  0.4006590000000  0.5301520000000 1.0
C      1  0.4272700000000  0.4206800000000  0.5276110000000 1.0
C      1  0.4015530000000  0.5213400000000  0.5241470000000 1.0
C      1  0.4592900000000  0.6092690000000  0.5315740000000 1.0
C      1  0.5765800000000  0.5762810000000  0.5311660000000 1.0
C      1  0.4359590000000  0.5290960000000  0.5655050000000 1.0
C      1  0.4897550000000  0.5820640000000  0.5650820000000 1.0
C      1  0.5563580000000  0.5504930000000  0.5702220000000 1.0
C      1  0.5761910000000  0.4749650000000  0.5653340000000 1.0
C      1  0.5084930000000  0.4270020000000  0.5745480000000 1.0
C      1  0.4369810000000  0.4516730000000  0.5649240000000 1.0
C      1  0.4098880000000  0.5385580000000  0.4997780000000 1.0
C      1  0.5079020000000  0.6007360000000  0.4956680000000 1.0
C      1  0.5777530000000  0.5560190000000  0.5073360000000 1.0
C      1  0.5797730000000  0.4482420000000  0.4967500000000 1.0
C      1  0.5111170000000  0.3994970000000  0.5061060000000 1.0
C      1  0.4193220000000  0.4381620000000  0.5038080000000 1.0
C      1  0.4376700000000  0.4837820000000  0.4246710000000 1.0
C      1  0.4604340000000  0.5492510000000  0.4323490000000 1.0
C      1  0.5159290000000  0.5572140000000  0.4285750000000 1.0
C      1  0.5412230000000  0.5116360000000  0.4130550000000 1.0
C      1  0.5287200000000  0.4740500000000  0.4174910000000 1.0
C      1  0.4867060000000  0.4373210000000  0.4263760000000 1.0
C      1  0.4409360000000  0.5149170000000  0.5085490000000 1.0
C      1  0.4870510000000  0.5562440000000  0.5185750000000 1.0
C      1  0.5260030000000  0.5477470000000  0.5157500000000 1.0
C      1  0.5606130000000  0.4992970000000  0.5044750000000 1.0
C      1  0.5247120000000  0.4368160000000  0.5066050000000 1.0
C      1  0.4569380000000  0.4502000000000  0.5098770000000 1.0
C      1  0.5122730000000  0.5327700000000  0.3961610000000 1.0
C      1  0.5221740000000  0.5029790000000  0.3870390000000 1.0
C      1  0.5051350000000  0.4773410000000  0.3927840000000 1.0
C      1  0.4749160000000  0.4794130000000  0.3949640000000 1.0
C      1  0.4631990000000  0.5060920000000  0.3944940000000 1.0
C      1  0.4801960000000  0.5328200000000  0.4006940000000 1.0
C      1  0.5539580000000  0.5549160000000  0.4406050000000 1.0
C      1  0.5698150000000  0.4874970000000  0.4486340000000 1.0
C      1  0.5203510000000  0.4378910000000  0.4321450000000 1.0
C      1  0.4381000000000  0.4518530000000  0.4327250000000 1.0
C      1  0.4342480000000  0.5305910000000  0.4287750000000 1.0
C      1  0.4890780000000  0.5768340000000  0.4363620000000 1.0
C      1  0.4127540000000  0.5441870000000  0.4491520000000 1.0
C      1  0.5047350000000  0.6058830000000  0.4446090000000 1.0
C      1  0.5841270000000  0.5553630000000  0.4563630000000 1.0
C      1  0.5713070000000  0.4585370000000  0.4303400000000 1.0
C      1  0.4913990000000  0.3794400000000  0.4554060000000 1.0
C      1  0.4115870000000  0.4448660000000  0.4521750000000 1.0
C      1  0.5511020000000  0.5364780000000  0.4678840000000 1.0
C      1  0.5576090000000  0.4634570000000  0.4672060000000 1.0
C      1  0.5050670000000  0.4304080000000  0.4611400000000 1.0
C      1  0.4465660000000  0.4592480000000  0.4648680000000 1.0
C      1  0.4444170000000  0.5219520000000  0.4591950000000 1.0
C      1  0.4989150000000  0.5644270000000  0.4664530000000 1.0
C      1  0.5191310000000  0.4887220000000  0.5517270000000 1.0
C      1  0.5031840000000  0.4631730000000  0.5359220000000 1.0
C      1  0.4793530000000  0.4826870000000  0.5503520000000 1.0
C      1  0.4734390000000  0.5149070000000  0.5409990000000 1.0
C      1  0.4982660000000  0.5304700000000  0.5540590000000 1.0
C      1  0.5266220000000  0.5173970000000  0.5414280000000 1.0
C      1  0.5682700000000  0.4418150000000  0.5230980000000 1.0
C      1  0.4836990000000  0.4085910000000  0.5181710000000 1.0
C      1  0.4142760000000  0.4682680000000  0.5148270000000 1.0
C      1  0.4332010000000  0.5590570000000  0.5109830000000 1.0
C      1  0.5278340000000  0.6027480000000  0.5198910000000 1.0
C      1  0.5831900000000  0.5324700000000  0.5276140000000 1.0
C      1  0.5508760000000  0.4705680000000  0.5863920000000 1.0
C      1  0.5071270000000  0.4447350000000  0.5994890000000 1.0
C      1  0.4470050000000  0.4740990000000  0.5870650000000 1.0
C      1  0.4487130000000  0.5223980000000  0.5926900000000 1.0
C      1  0.5026550000000  0.5605560000000  0.5880390000000 1.0
C      1  0.5467230000000  0.5326250000000  0.5953940000000 1.0
C      1  0.4746330000000  0.5128540000000  0.5934770000000 1.0
C      1  0.4992300000000  0.5292330000000  0.5857410000000 1.0
C      1  0.5251880000000  0.5153590000000  0.5935860000000 1.0
C      1  0.5253800000000  0.4864790000000  0.5826520000000 1.0
C      1  0.5019230000000  0.4713860000000  0.5948600000000 1.0
C      1  0.4762550000000  0.4836170000000  0.5839730000000 1.0
C      1  0.4798460000000  0.4244590000000  0.5662050000000 1.0
C      1  0.4251820000000  0.4819530000000  0.5621150000000 1.0
C      1  0.4487000000000  0.5545360000000  0.5574870000000 1.0
C      1  0.5222730000000  0.5764400000000  0.5651670000000 1.0
C      1  0.5805920000000  0.5281420000000  0.5736190000000 1.0
C      1  0.5564690000000  0.4473830000000  0.5632480000000 1.0
C      1  0.5285880000000  0.4702740000000  0.4758550000000 1.0
C      1  0.4921780000000  0.4555980000000  0.4737640000000 1.0
C      1  0.4570830000000  0.4890600000000  0.4774350000000 1.0
C      1  0.4777940000000  0.5197280000000  0.4638840000000 1.0
C      1  0.5007290000000  0.5360250000000  0.4686430000000 1.0
C      1  0.5256310000000  0.5205790000000  0.4696980000000 1.0
C      1  0.5896880000000  0.5430920000000  0.4808480000000 1.0
C      1  0.5765900000000  0.4271420000000  0.4798010000000 1.0
C      1  0.4884220000000  0.3942330000000  0.4813420000000 1.0
C      1  0.4077780000000  0.4555630000000  0.4774840000000 1.0
C      1  0.4207250000000  0.5547190000000  0.4732740000000 1.0
C      1  0.5196660000000  0.6080030000000  0.4690620000000 1.0
C      1  0.4903210000000  0.4895450000000  0.4733430000000 1.0
END
