TITL C-2622953-3516-711 0.00199205341983326 125000 -536.0660226691 0 0 98 (C1) n - 1
REM
REM in /nfs/bkarasulu/CARBON/AIRSS/Generating-Clusters/AIREBO/with-SteepDescent/Higher-Symm/SD-CG/HFTN-CG
REM
REM
REM
REM
REM
REM ./C.cell (b20cbc046b6831c77cfcea5457e17084)
REM
REM compiler GCC version 9.2.1 20190827 (Red Hat 9.2.1-1)
REM options -cpp -mtune=generic -march=x86-64 -g -O0 -fpre-include=/usr/include/finclude/math-vector-fortran.h
REM seed 1412007132 1129672201 638225198 345051746 1224543421 1736520182 699694964 -1567540743 -76183851 736390265 -757677659 23301769 -1160671138 -78570517 1760977813 2055439098 241002578 -1688260185 1864162355 -1666785585 -1417499220 -1625397433 257095955 951243093 1702442917 -239392435 521427208 258912766 -691063289 595598654 -1324424184 -1170509869 -1946686144
REM
CELL 1.54180   50.00000   50.00000   50.00000   90.00000   90.00000   90.00000
LATT -1
SFAC C  
C      1  0.5220450000000  0.5509510000000  0.5365140000000 1.0
C      1  0.5456320000000  0.5576410000000  0.4519210000000 1.0
C      1  0.4388790000000  0.4464810000000  0.4920900000000 1.0
C      1  0.5202180000000  0.4923460000000  0.4766040000000 1.0
C      1  0.5201540000000  0.5225020000000  0.5721070000000 1.0
C      1  0.4679450000000  0.5568500000000  0.4251590000000 1.0
C      1  0.4899370000000  0.5515790000000  0.5269660000000 1.0
C      1  0.5129470000000  0.4472520000000  0.5007690000000 1.0
C      1  0.5270530000000  0.4311070000000  0.5476160000000 1.0
C      1  0.4426770000000  0.5646050000000  0.5221610000000 1.0
C      1  0.5177620000000  0.4646010000000  0.4619350000000 1.0
C      1  0.5361290000000  0.5431260000000  0.5627270000000 1.0
C      1  0.4679970000000  0.4802790000000  0.5211080000000 1.0
C      1  0.5321900000000  0.5366550000000  0.4309680000000 1.0
C      1  0.4239220000000  0.5079680000000  0.5032100000000 1.0
C      1  0.5001000000000  0.5894920000000  0.5141740000000 1.0
C      1  0.5030150000000  0.5133080000000  0.4911000000000 1.0
C      1  0.4703640000000  0.4957080000000  0.5479590000000 1.0
C      1  0.5588110000000  0.5137430000000  0.4593600000000 1.0
C      1  0.5357580000000  0.4573240000000  0.5773720000000 1.0
C      1  0.5826520000000  0.5032460000000  0.5236720000000 1.0
C      1  0.5656880000000  0.5525970000000  0.5071290000000 1.0
C      1  0.5082110000000  0.4772400000000  0.5765930000000 1.0
C      1  0.5399060000000  0.4759900000000  0.4940220000000 1.0
C      1  0.5924880000000  0.5008910000000  0.4984130000000 1.0
C      1  0.4990200000000  0.4545390000000  0.4280780000000 1.0
C      1  0.4788620000000  0.5089180000000  0.4296810000000 1.0
C      1  0.4574410000000  0.4883850000000  0.4391930000000 1.0
C      1  0.5328650000000  0.4511310000000  0.4204770000000 1.0
C      1  0.4228490000000  0.4801200000000  0.5314740000000 1.0
C      1  0.4104370000000  0.4356360000000  0.4950990000000 1.0
C      1  0.5649310000000  0.4870020000000  0.4392600000000 1.0
C      1  0.5418960000000  0.4362250000000  0.4958530000000 1.0
C      1  0.5131610000000  0.4123770000000  0.4634670000000 1.0
C      1  0.5591410000000  0.4569890000000  0.5145610000000 1.0
C      1  0.5016740000000  0.5420730000000  0.4744610000000 1.0
C      1  0.4438360000000  0.5425460000000  0.5385630000000 1.0
C      1  0.4655710000000  0.4371700000000  0.5416290000000 1.0
C      1  0.5182770000000  0.4333910000000  0.4455490000000 1.0
C      1  0.4706950000000  0.5752810000000  0.5180380000000 1.0
C      1  0.4888230000000  0.5436100000000  0.5600000000000 1.0
C      1  0.5674880000000  0.4761720000000  0.5373080000000 1.0
C      1  0.5555470000000  0.4488130000000  0.5533460000000 1.0
C      1  0.5568490000000  0.5409390000000  0.4762350000000 1.0
C      1  0.4303090000000  0.5027670000000  0.4519700000000 1.0
C      1  0.4766300000000  0.5975160000000  0.4927550000000 1.0
C      1  0.4243500000000  0.5139110000000  0.5349680000000 1.0
C      1  0.5186620000000  0.4624990000000  0.5477890000000 1.0
C      1  0.5297040000000  0.5426790000000  0.4933820000000 1.0
C      1  0.4764820000000  0.5839260000000  0.4680480000000 1.0
C      1  0.4176940000000  0.5199920000000  0.4784690000000 1.0
C      1  0.4822020000000  0.4825140000000  0.4700200000000 1.0
C      1  0.5110080000000  0.5043420000000  0.5223780000000 1.0
C      1  0.5226950000000  0.5742400000000  0.4988910000000 1.0
C      1  0.4456880000000  0.5483770000000  0.4768310000000 1.0
C      1  0.4601830000000  0.4315160000000  0.5094340000000 1.0
C      1  0.4651300000000  0.4158600000000  0.4682610000000 1.0
C      1  0.5671680000000  0.4670240000000  0.4769080000000 1.0
C      1  0.4682830000000  0.4591210000000  0.4409500000000 1.0
C      1  0.5486320000000  0.4589950000000  0.4495570000000 1.0
C      1  0.5303520000000  0.4966600000000  0.5648120000000 1.0
C      1  0.4775350000000  0.5317210000000  0.4159780000000 1.0
C      1  0.5501130000000  0.4315830000000  0.4696260000000 1.0
C      1  0.5192960000000  0.4818240000000  0.4238070000000 1.0
C      1  0.4405780000000  0.4783450000000  0.5021380000000 1.0
C      1  0.4862170000000  0.5721880000000  0.4409410000000 1.0
C      1  0.4847890000000  0.4532530000000  0.5182710000000 1.0
C      1  0.4509500000000  0.4403750000000  0.4630400000000 1.0
C      1  0.5456850000000  0.4987330000000  0.5414510000000 1.0
C      1  0.4727310000000  0.5543930000000  0.4740380000000 1.0
C      1  0.4467020000000  0.5176140000000  0.5582960000000 1.0
C      1  0.5792440000000  0.4944560000000  0.4757100000000 1.0
C      1  0.4922740000000  0.4241580000000  0.4867820000000 1.0
C      1  0.4255330000000  0.4609760000000  0.5503220000000 1.0
C      1  0.5308090000000  0.5071710000000  0.4411030000000 1.0
C      1  0.4312590000000  0.5362020000000  0.4519220000000 1.0
C      1  0.4875940000000  0.4134040000000  0.5182380000000 1.0
C      1  0.4306970000000  0.5615870000000  0.4967910000000 1.0
C      1  0.5227990000000  0.5839470000000  0.5372400000000 1.0
C      1  0.5071080000000  0.4140780000000  0.5370660000000 1.0
C      1  0.4891400000000  0.4514000000000  0.4666720000000 1.0
C      1  0.4398070000000  0.5557570000000  0.4296990000000 1.0
C      1  0.5186770000000  0.4742970000000  0.5205650000000 1.0
C      1  0.4972310000000  0.5125410000000  0.5489930000000 1.0
C      1  0.4724810000000  0.5205470000000  0.5790440000000 1.0
C      1  0.5632840000000  0.5409030000000  0.5588850000000 1.0
C      1  0.4661350000000  0.4726020000000  0.5715760000000 1.0
C      1  0.5118730000000  0.5567060000000  0.4478310000000 1.0
C      1  0.4511050000000  0.4524660000000  0.5596080000000 1.0
C      1  0.4830360000000  0.4942750000000  0.5856970000000 1.0
C      1  0.5481950000000  0.5737790000000  0.5167920000000 1.0
C      1  0.5703620000000  0.5303870000000  0.5296310000000 1.0
C      1  0.4989900000000  0.5015020000000  0.4516710000000 1.0
C      1  0.5047030000000  0.5733950000000  0.5641190000000 1.0
C      1  0.4844520000000  0.5305610000000  0.5084780000000 1.0
C      1  0.5813820000000  0.4421470000000  0.4935130000000 1.0
C      1  0.5378440000000  0.5249800000000  0.5212800000000 1.0
C      1  0.4523720000000  0.4890150000000  0.4738380000000 1.0
END
