TITL C-2622960-5345-734 3.46958402491246e-05 125000 -226.345020915396 0 0 39 (Cs) n - 1
REM
REM in /nfs/bkarasulu/CARBON/AIRSS/Generating-Clusters/AIREBO/with-SteepDescent/Higher-Symm/SD-CG/HFTN-CG
REM
REM
REM
REM
REM
REM ./C.cell (b20cbc046b6831c77cfcea5457e17084)
REM
REM compiler GCC version 9.2.1 20190827 (Red Hat 9.2.1-1)
REM options -cpp -mtune=generic -march=x86-64 -g -O0 -fpre-include=/usr/include/finclude/math-vector-fortran.h
REM seed 911220044 538589893 -1310294742 -91562093 -405101417 307794967 -237397786 1668381243 128966841 -530543654 1652411882 -305086636 -1618609854 -1509979914 -1285862018 -584993287 1022194849 -530474134 1083709246 1169911680 1999010934 -1430695524 734841749 -2106405161 1402146064 248033400 15268123 358339585 -1597637110 -1270819093 426219378 -442070553 1570895139
REM
CELL 1.54180   50.00000   50.00000   50.00000   90.00000   90.00000   90.00000
LATT -1
SFAC C  
C      1  0.4386310000000  0.5221090000000  0.5216800000000 1.0
C      1  0.5487380000000  0.5219860000000  0.5425140000000 1.0
C      1  0.5127180000000  0.5228310000000  0.4367340000000 1.0
C      1  0.4387670000000  0.4781450000000  0.5215540000000 1.0
C      1  0.5488710000000  0.4788290000000  0.5423900000000 1.0
C      1  0.5128550000000  0.4783670000000  0.4366070000000 1.0
C      1  0.5608120000000  0.5226410000000  0.5199820000000 1.0
C      1  0.4525070000000  0.5225260000000  0.5431220000000 1.0
C      1  0.4874330000000  0.5252730000000  0.4379480000000 1.0
C      1  0.5609480000000  0.4783780000000  0.5198550000000 1.0
C      1  0.4526460000000  0.4776910000000  0.5429940000000 1.0
C      1  0.4875860000000  0.4757620000000  0.4378070000000 1.0
C      1  0.4827880000000  0.5268910000000  0.5423060000000 1.0
C      1  0.5454360000000  0.5272360000000  0.4939090000000 1.0
C      1  0.4700580000000  0.5268640000000  0.4637040000000 1.0
C      1  0.4829530000000  0.4735180000000  0.5421530000000 1.0
C      1  0.5456010000000  0.4738380000000  0.4937560000000 1.0
C      1  0.4702210000000  0.4739160000000  0.4635530000000 1.0
C      1  0.5191420000000  0.5272280000000  0.5458630000000 1.0
C      1  0.4499700000000  0.5273480000000  0.4941450000000 1.0
C      1  0.5307700000000  0.5275810000000  0.4604650000000 1.0
C      1  0.5193090000000  0.4733850000000  0.5457090000000 1.0
C      1  0.4501370000000  0.4731340000000  0.4939890000000 1.0
C      1  0.5309360000000  0.4735930000000  0.4603110000000 1.0
C      1  0.5278410000000  0.4490240000000  0.5031470000000 1.0
C      1  0.4894250000000  0.4497430000000  0.4737260000000 1.0
C      1  0.4834630000000  0.4489430000000  0.5217610000000 1.0
C      1  0.5275230000000  0.5518840000000  0.5034420000000 1.0
C      1  0.4891110000000  0.5510970000000  0.4740170000000 1.0
C      1  0.4831460000000  0.5515850000000  0.5220550000000 1.0
C      1  0.4718810000000  0.4518620000000  0.4968600000000 1.0
C      1  0.5167360000000  0.4521170000000  0.4766020000000 1.0
C      1  0.5120170000000  0.4516050000000  0.5256050000000 1.0
C      1  0.4715810000000  0.5487370000000  0.4971380000000 1.0
C      1  0.5164370000000  0.5488760000000  0.4768790000000 1.0
C      1  0.5117160000000  0.5490780000000  0.5258840000000 1.0
C      1  0.5009550000000  0.5002540000000  0.5444520000000 1.0
C      1  0.4597470000000  0.5003160000000  0.4784520000000 1.0
C      1  0.5385870000000  0.5005640000000  0.4769300000000 1.0
END
