TITL C-2622964-2985-790 0.00137358473659549 125000 -702.296305121114 0 0 134 (C1) n - 1
REM
REM in /nfs/bkarasulu/CARBON/AIRSS/Generating-Clusters/AIREBO/with-SteepDescent/Higher-Symm/SD-CG/HFTN-CG
REM
REM
REM
REM
REM
REM ./C.cell (b20cbc046b6831c77cfcea5457e17084)
REM
REM compiler GCC version 9.2.1 20190827 (Red Hat 9.2.1-1)
REM options -cpp -mtune=generic -march=x86-64 -g -O0 -fpre-include=/usr/include/finclude/math-vector-fortran.h
REM seed -24740341 -1123445266 -1602087580 1433981842 696505267 -578494840 -670703119 -212392402 1183271530 -890595849 -1339182094 1796109424 109730120 223997001 -399235121 1164826510 -1088820303 2122346936 -807929408 -1011439096 825895056 -1910076076 -2031851010 631018381 -114186283 -140342622 -2127094476 1206657216 -1499894099 -1941963038 1962774181 -69039603 1431333851
REM
CELL 1.54180   50.00000   50.00000   50.00000   90.00000   90.00000   90.00000
LATT -1
SFAC C  
C      1  0.4370050000000  0.4736260000000  0.4598290000000 1.0
C      1  0.4408320000000  0.5192200000000  0.5411780000000 1.0
C      1  0.5643910000000  0.4711340000000  0.4604170000000 1.0
C      1  0.5653810000000  0.5237750000000  0.5303960000000 1.0
C      1  0.3823480000000  0.5263130000000  0.5018160000000 1.0
C      1  0.3819810000000  0.4825760000000  0.4951780000000 1.0
C      1  0.6138150000000  0.5321620000000  0.4996130000000 1.0
C      1  0.6164570000000  0.4764970000000  0.5012320000000 1.0
C      1  0.4831040000000  0.5377250000000  0.5396820000000 1.0
C      1  0.4815920000000  0.4602570000000  0.4665700000000 1.0
C      1  0.5137370000000  0.5342520000000  0.5340020000000 1.0
C      1  0.5131290000000  0.4618640000000  0.4659960000000 1.0
C      1  0.5469960000000  0.4376330000000  0.4474730000000 1.0
C      1  0.5418240000000  0.5620220000000  0.5572040000000 1.0
C      1  0.4689530000000  0.4322170000000  0.4376670000000 1.0
C      1  0.4704530000000  0.5696850000000  0.5672520000000 1.0
C      1  0.4474390000000  0.4891540000000  0.5362100000000 1.0
C      1  0.4457390000000  0.5059840000000  0.4656460000000 1.0
C      1  0.5536830000000  0.4950510000000  0.5341830000000 1.0
C      1  0.5542260000000  0.5034960000000  0.4629380000000 1.0
C      1  0.4496380000000  0.5202490000000  0.5112030000000 1.0
C      1  0.4395990000000  0.4760740000000  0.4908400000000 1.0
C      1  0.5505930000000  0.5230390000000  0.5035090000000 1.0
C      1  0.5575360000000  0.4752320000000  0.4913750000000 1.0
C      1  0.5136710000000  0.4881850000000  0.5499000000000 1.0
C      1  0.5117490000000  0.5007150000000  0.4489320000000 1.0
C      1  0.4835300000000  0.4898540000000  0.5560260000000 1.0
C      1  0.4823540000000  0.5079380000000  0.4499200000000 1.0
C      1  0.4861250000000  0.4040040000000  0.4915680000000 1.0
C      1  0.4872290000000  0.5938950000000  0.5120110000000 1.0
C      1  0.5154440000000  0.4056890000000  0.4939160000000 1.0
C      1  0.5158290000000  0.5921930000000  0.5105830000000 1.0
C      1  0.4495820000000  0.4256620000000  0.5240270000000 1.0
C      1  0.4491520000000  0.5699330000000  0.4754030000000 1.0
C      1  0.5615130000000  0.4300400000000  0.5244900000000 1.0
C      1  0.5576300000000  0.5754890000000  0.4742610000000 1.0
C      1  0.4841600000000  0.4871680000000  0.4047390000000 1.0
C      1  0.4833860000000  0.5064950000000  0.5935060000000 1.0
C      1  0.5081260000000  0.4971750000000  0.3944050000000 1.0
C      1  0.5085960000000  0.4963150000000  0.5987140000000 1.0
C      1  0.4286990000000  0.5476400000000  0.5324360000000 1.0
C      1  0.4227840000000  0.4446790000000  0.4598900000000 1.0
C      1  0.5660200000000  0.5547740000000  0.5388840000000 1.0
C      1  0.5767170000000  0.4395640000000  0.4632050000000 1.0
C      1  0.4337460000000  0.4649990000000  0.5420620000000 1.0
C      1  0.4355120000000  0.5308110000000  0.4481670000000 1.0
C      1  0.5708690000000  0.4761350000000  0.5537590000000 1.0
C      1  0.5665550000000  0.5314880000000  0.4483870000000 1.0
C      1  0.5319500000000  0.4141340000000  0.5189590000000 1.0
C      1  0.5300930000000  0.5922350000000  0.4851320000000 1.0
C      1  0.4723920000000  0.4053650000000  0.5174490000000 1.0
C      1  0.4739320000000  0.5909430000000  0.4851190000000 1.0
C      1  0.5194150000000  0.4513510000000  0.5346390000000 1.0
C      1  0.5144130000000  0.5405350000000  0.4656000000000 1.0
C      1  0.4860720000000  0.4552050000000  0.5299210000000 1.0
C      1  0.4825470000000  0.5402130000000  0.4757580000000 1.0
C      1  0.5865400000000  0.4732390000000  0.5275360000000 1.0
C      1  0.5880210000000  0.5367990000000  0.4694610000000 1.0
C      1  0.4097090000000  0.4648410000000  0.5275380000000 1.0
C      1  0.4131400000000  0.5397490000000  0.4681740000000 1.0
C      1  0.4739200000000  0.5102370000000  0.4810550000000 1.0
C      1  0.4768610000000  0.4846370000000  0.5231030000000 1.0
C      1  0.5258960000000  0.5100060000000  0.4752190000000 1.0
C      1  0.5290040000000  0.4807400000000  0.5204810000000 1.0
C      1  0.4595700000000  0.5549210000000  0.4466880000000 1.0
C      1  0.4563050000000  0.4419730000000  0.5529800000000 1.0
C      1  0.5472070000000  0.5559630000000  0.4484450000000 1.0
C      1  0.5592870000000  0.4460090000000  0.5542800000000 1.0
C      1  0.5835150000000  0.4525700000000  0.5116070000000 1.0
C      1  0.5835500000000  0.5576220000000  0.4871380000000 1.0
C      1  0.4129050000000  0.4492530000000  0.5031960000000 1.0
C      1  0.4216000000000  0.5575170000000  0.4926250000000 1.0
C      1  0.4785870000000  0.4415820000000  0.5016730000000 1.0
C      1  0.4824510000000  0.5553480000000  0.5039090000000 1.0
C      1  0.5124550000000  0.4446040000000  0.5019280000000 1.0
C      1  0.5141070000000  0.5548190000000  0.4966910000000 1.0
C      1  0.5203640000000  0.5735270000000  0.4598800000000 1.0
C      1  0.5155550000000  0.4189210000000  0.5443710000000 1.0
C      1  0.4864680000000  0.5696940000000  0.4616720000000 1.0
C      1  0.4840180000000  0.4248770000000  0.5427940000000 1.0
C      1  0.5958230000000  0.4592250000000  0.4814190000000 1.0
C      1  0.5931630000000  0.5501110000000  0.5189440000000 1.0
C      1  0.4021670000000  0.4635810000000  0.4766450000000 1.0
C      1  0.4008280000000  0.5480890000000  0.5179180000000 1.0
C      1  0.5584420000000  0.5735950000000  0.5137650000000 1.0
C      1  0.5569590000000  0.4245770000000  0.4837000000000 1.0
C      1  0.4430310000000  0.5708520000000  0.5317530000000 1.0
C      1  0.4390710000000  0.4239620000000  0.4683570000000 1.0
C      1  0.4428560000000  0.5230890000000  0.5736350000000 1.0
C      1  0.4483090000000  0.4811440000000  0.4298040000000 1.0
C      1  0.5499560000000  0.5151540000000  0.5757900000000 1.0
C      1  0.5458210000000  0.4861110000000  0.4254910000000 1.0
C      1  0.5447890000000  0.4484530000000  0.5031140000000 1.0
C      1  0.5447990000000  0.5509460000000  0.4932720000000 1.0
C      1  0.4449690000000  0.4466630000000  0.5014390000000 1.0
C      1  0.4516100000000  0.5478520000000  0.4997680000000 1.0
C      1  0.4545910000000  0.4481900000000  0.4242180000000 1.0
C      1  0.4531700000000  0.5550820000000  0.5787990000000 1.0
C      1  0.5474920000000  0.4521890000000  0.4238680000000 1.0
C      1  0.5403540000000  0.5461230000000  0.5795410000000 1.0
C      1  0.5159670000000  0.4731100000000  0.4353530000000 1.0
C      1  0.5236640000000  0.5161760000000  0.5564690000000 1.0
C      1  0.4813100000000  0.4776050000000  0.4372510000000 1.0
C      1  0.4750690000000  0.5199820000000  0.5631690000000 1.0
C      1  0.4005450000000  0.4959150000000  0.5203710000000 1.0
C      1  0.4031950000000  0.5135120000000  0.4815310000000 1.0
C      1  0.6000230000000  0.5000760000000  0.5190710000000 1.0
C      1  0.5986480000000  0.5101250000000  0.4806120000000 1.0
C      1  0.5958850000000  0.5239090000000  0.5411240000000 1.0
C      1  0.5939790000000  0.4863500000000  0.4602550000000 1.0
C      1  0.3994310000000  0.5212620000000  0.5388090000000 1.0
C      1  0.4020560000000  0.4924860000000  0.4587390000000 1.0
C      1  0.4727500000000  0.4277260000000  0.4711660000000 1.0
C      1  0.4756080000000  0.5703530000000  0.5336460000000 1.0
C      1  0.5252030000000  0.4309340000000  0.4733280000000 1.0
C      1  0.5274220000000  0.5644610000000  0.5264910000000 1.0
C      1  0.4833910000000  0.5164770000000  0.5131200000000 1.0
C      1  0.4709630000000  0.4787910000000  0.4898990000000 1.0
C      1  0.5174200000000  0.5166260000000  0.5074730000000 1.0
C      1  0.5252180000000  0.4799140000000  0.4882540000000 1.0
C      1  0.5314040000000  0.4899530000000  0.5855830000000 1.0
C      1  0.5255160000000  0.5082280000000  0.4124390000000 1.0
C      1  0.4556060000000  0.4944350000000  0.5867950000000 1.0
C      1  0.4628410000000  0.5080060000000  0.4143390000000 1.0
C      1  0.4618530000000  0.4696660000000  0.5696010000000 1.0
C      1  0.4760990000000  0.5323600000000  0.4308330000000 1.0
C      1  0.5320240000000  0.4639430000000  0.5638340000000 1.0
C      1  0.5103380000000  0.5307340000000  0.4330260000000 1.0
C      1  0.5741020000000  0.5006060000000  0.4356100000000 1.0
C      1  0.5774090000000  0.5066850000000  0.5641700000000 1.0
C      1  0.4219630000000  0.5020590000000  0.4348550000000 1.0
C      1  0.4097410000000  0.5220260000000  0.5659230000000 1.0
C      1  0.4273060000000  0.5011290000000  0.5007520000000 1.0
C      1  0.5723890000000  0.4998850000000  0.4992460000000 1.0
END
