TITL C-2622956-4641-121 -0.000960667236210948 125000 -271.054213229199 0 0 55 (C1) n - 1
REM
REM in /nfs/bkarasulu/CARBON/AIRSS/Generating-Clusters/AIREBO/with-SteepDescent/Higher-Symm/SD-CG/HFTN-CG
REM
REM
REM
REM
REM
REM ./C.cell (b20cbc046b6831c77cfcea5457e17084)
REM
REM compiler GCC version 9.2.1 20190827 (Red Hat 9.2.1-1)
REM options -cpp -mtune=generic -march=x86-64 -g -O0 -fpre-include=/usr/include/finclude/math-vector-fortran.h
REM seed -2000236701 -1742658846 -707411407 -427516421 109189402 -914132776 368047537 1964338489 1724166172 -197814466 -816887270 -984029735 272292772 376208470 -1282405012 -617771657 -1083437661 892874867 -545474524 1581099280 -299198292 1771102477 423870847 119532579 1803514197 -538779524 1767272417 -1946737378 -469988957 -809775813 -367838386 1955388922 655691000
REM
CELL 1.54180   50.00000   50.00000   50.00000   90.00000   90.00000   90.00000
LATT -1
SFAC C  
C      1  0.4522160000000  0.4555820000000  0.5372120000000 1.0
C      1  0.5012050000000  0.4568120000000  0.4426540000000 1.0
C      1  0.5559560000000  0.4555930000000  0.5283260000000 1.0
C      1  0.5498290000000  0.5374850000000  0.5343900000000 1.0
C      1  0.5065150000000  0.5379340000000  0.4433830000000 1.0
C      1  0.4454730000000  0.5468720000000  0.5312000000000 1.0
C      1  0.5228230000000  0.5169700000000  0.5346800000000 1.0
C      1  0.4496590000000  0.5198120000000  0.4969050000000 1.0
C      1  0.5285730000000  0.5282890000000  0.4650240000000 1.0
C      1  0.4760830000000  0.4789410000000  0.5340120000000 1.0
C      1  0.5581530000000  0.4697120000000  0.4970140000000 1.0
C      1  0.4738520000000  0.4702300000000  0.4550690000000 1.0
C      1  0.4454250000000  0.4442740000000  0.4875590000000 1.0
C      1  0.5368350000000  0.4505820000000  0.4597240000000 1.0
C      1  0.5153490000000  0.4483390000000  0.5543820000000 1.0
C      1  0.5547410000000  0.5538350000000  0.4876540000000 1.0
C      1  0.4583050000000  0.5483970000000  0.4619330000000 1.0
C      1  0.4864530000000  0.5589460000000  0.5563880000000 1.0
C      1  0.4842860000000  0.4948310000000  0.5614100000000 1.0
C      1  0.4440650000000  0.4851430000000  0.4529160000000 1.0
C      1  0.5752040000000  0.4857740000000  0.4723530000000 1.0
C      1  0.5151420000000  0.5090090000000  0.5661200000000 1.0
C      1  0.5564540000000  0.5103580000000  0.4574640000000 1.0
C      1  0.4280720000000  0.5287840000000  0.4791090000000 1.0
C      1  0.5091680000000  0.4857370000000  0.4448550000000 1.0
C      1  0.5481650000000  0.4861790000000  0.5319140000000 1.0
C      1  0.4390260000000  0.4752380000000  0.5196090000000 1.0
C      1  0.4865430000000  0.5194270000000  0.4398170000000 1.0
C      1  0.4501920000000  0.5197500000000  0.5368390000000 1.0
C      1  0.5609710000000  0.5119240000000  0.5239950000000 1.0
C      1  0.4895400000000  0.4457180000000  0.4726210000000 1.0
C      1  0.5285130000000  0.4574350000000  0.5083220000000 1.0
C      1  0.4801460000000  0.4469970000000  0.5217200000000 1.0
C      1  0.5066770000000  0.5535100000000  0.4722680000000 1.0
C      1  0.4718580000000  0.5407360000000  0.5106380000000 1.0
C      1  0.5210930000000  0.5482850000000  0.5213570000000 1.0
C      1  0.4711960000000  0.4372830000000  0.4941610000000 1.0
C      1  0.5194650000000  0.4445390000000  0.4803050000000 1.0
C      1  0.5088700000000  0.4399030000000  0.5278730000000 1.0
C      1  0.5286790000000  0.5577450000000  0.4939990000000 1.0
C      1  0.4779520000000  0.5535460000000  0.4813800000000 1.0
C      1  0.4934590000000  0.5571050000000  0.5279670000000 1.0
C      1  0.5467280000000  0.5011730000000  0.4950540000000 1.0
C      1  0.4811560000000  0.5113500000000  0.5250380000000 1.0
C      1  0.4786470000000  0.5002840000000  0.4655060000000 1.0
C      1  0.4593130000000  0.4907970000000  0.4988670000000 1.0
C      1  0.5167610000000  0.4876990000000  0.5184620000000 1.0
C      1  0.5193870000000  0.4971800000000  0.4752220000000 1.0
C      1  0.5634440000000  0.5286430000000  0.4844530000000 1.0
C      1  0.4895870000000  0.5272250000000  0.5542510000000 1.0
C      1  0.4507580000000  0.5170020000000  0.4571010000000 1.0
C      1  0.4427280000000  0.4712440000000  0.4800480000000 1.0
C      1  0.5121070000000  0.4787150000000  0.5511370000000 1.0
C      1  0.5448250000000  0.4794370000000  0.4607760000000 1.0
C      1  0.4926760000000  0.4971050000000  0.4963400000000 1.0
END
