TITL C-2622966-9038-382 -0.000657530366127263 125000 -936.955506540578 0 0 177 (C1) n - 1
REM
REM in /nfs/bkarasulu/CARBON/AIRSS/Generating-Clusters/AIREBO/with-SteepDescent/Higher-Symm/SD-CG/HFTN-CG
REM
REM
REM
REM
REM
REM ./C.cell (b20cbc046b6831c77cfcea5457e17084)
REM
REM compiler GCC version 9.2.1 20190827 (Red Hat 9.2.1-1)
REM options -cpp -mtune=generic -march=x86-64 -g -O0 -fpre-include=/usr/include/finclude/math-vector-fortran.h
REM seed 70165212 1251477648 -642557031 1886472137 -241707172 1089595478 -210413713 978786646 1128376160 -399379773 2081016910 -2034701935 1142792336 -922914960 -950548607 2005448078 2091184451 530144896 826873024 615158246 -1998588001 1849950735 1627905869 -1001047821 -380402641 -2081462073 -2086956412 936492480 1732619841 1696203960 -1729191637 -1510659550 -40434114
REM
CELL 1.54180   50.00000   50.00000   50.00000   90.00000   90.00000   90.00000
LATT -1
SFAC C  
C      1  0.5365810000000  0.5039130000000  0.5007990000000 1.0
C      1  0.5214290000000  0.5062900000000  0.5301990000000 1.0
C      1  0.4833060000000  0.5037600000000  0.5418010000000 1.0
C      1  0.4561390000000  0.5004520000000  0.5218030000000 1.0
C      1  0.4551060000000  0.5087610000000  0.4729120000000 1.0
C      1  0.4859240000000  0.5018260000000  0.4603240000000 1.0
C      1  0.5131010000000  0.5134580000000  0.4772100000000 1.0
C      1  0.6002540000000  0.5055730000000  0.4335980000000 1.0
C      1  0.5962660000000  0.5007510000000  0.5330110000000 1.0
C      1  0.5313420000000  0.5070100000000  0.5990940000000 1.0
C      1  0.4475370000000  0.5334790000000  0.6005800000000 1.0
C      1  0.3968150000000  0.5147950000000  0.5345100000000 1.0
C      1  0.4284390000000  0.5040520000000  0.4235130000000 1.0
C      1  0.5116600000000  0.5108920000000  0.3981000000000 1.0
C      1  0.5129220000000  0.5906430000000  0.5638410000000 1.0
C      1  0.4466490000000  0.5989640000000  0.5584960000000 1.0
C      1  0.4239390000000  0.5951210000000  0.4911940000000 1.0
C      1  0.4701090000000  0.5756430000000  0.4357400000000 1.0
C      1  0.5147220000000  0.5883060000000  0.4263730000000 1.0
C      1  0.5728010000000  0.5810090000000  0.4675790000000 1.0
C      1  0.5665920000000  0.5928050000000  0.5391780000000 1.0
C      1  0.3976270000000  0.5469780000000  0.5008260000000 1.0
C      1  0.4412440000000  0.5352370000000  0.4246890000000 1.0
C      1  0.5228600000000  0.5378650000000  0.4056890000000 1.0
C      1  0.5946440000000  0.5316750000000  0.4535490000000 1.0
C      1  0.5796970000000  0.5453790000000  0.5401810000000 1.0
C      1  0.5162030000000  0.5498340000000  0.5935410000000 1.0
C      1  0.4281210000000  0.5489090000000  0.5773210000000 1.0
C      1  0.4493390000000  0.5570120000000  0.5327020000000 1.0
C      1  0.4398160000000  0.5683760000000  0.4774470000000 1.0
C      1  0.4920590000000  0.5569840000000  0.4530740000000 1.0
C      1  0.5350290000000  0.5709970000000  0.4446300000000 1.0
C      1  0.5632480000000  0.5638680000000  0.4946040000000 1.0
C      1  0.5327530000000  0.5567510000000  0.5314070000000 1.0
C      1  0.4955490000000  0.5649280000000  0.5526980000000 1.0
C      1  0.4283830000000  0.4255550000000  0.5370840000000 1.0
C      1  0.4415910000000  0.4022650000000  0.4672820000000 1.0
C      1  0.5135540000000  0.4305920000000  0.4087880000000 1.0
C      1  0.5595640000000  0.4265250000000  0.4459540000000 1.0
C      1  0.5707730000000  0.4044960000000  0.4984840000000 1.0
C      1  0.5427670000000  0.4030630000000  0.5441530000000 1.0
C      1  0.4882830000000  0.3969950000000  0.5555220000000 1.0
C      1  0.5250390000000  0.5940470000000  0.4675550000000 1.0
C      1  0.5409970000000  0.5896680000000  0.4951120000000 1.0
C      1  0.5216350000000  0.5841500000000  0.5197070000000 1.0
C      1  0.4900880000000  0.5893040000000  0.5311580000000 1.0
C      1  0.4626980000000  0.5829000000000  0.5178410000000 1.0
C      1  0.4644280000000  0.5901480000000  0.4846450000000 1.0
C      1  0.4921560000000  0.5870730000000  0.4685670000000 1.0
C      1  0.4829350000000  0.5060030000000  0.4018730000000 1.0
C      1  0.5722630000000  0.5152900000000  0.4211070000000 1.0
C      1  0.6155370000000  0.5219920000000  0.5229470000000 1.0
C      1  0.5508750000000  0.5302210000000  0.5924320000000 1.0
C      1  0.4672550000000  0.5160600000000  0.5947090000000 1.0
C      1  0.4058610000000  0.5295100000000  0.5633930000000 1.0
C      1  0.4105420000000  0.5212700000000  0.4458870000000 1.0
C      1  0.5083610000000  0.4417110000000  0.5313550000000 1.0
C      1  0.4838760000000  0.4181810000000  0.5292900000000 1.0
C      1  0.4613820000000  0.4567610000000  0.5157570000000 1.0
C      1  0.4673990000000  0.4406770000000  0.4863460000000 1.0
C      1  0.4966680000000  0.4385810000000  0.4691230000000 1.0
C      1  0.5319370000000  0.4403750000000  0.4877850000000 1.0
C      1  0.5435010000000  0.4192220000000  0.5076720000000 1.0
C      1  0.5615980000000  0.5652540000000  0.5412630000000 1.0
C      1  0.5013510000000  0.5711070000000  0.5846620000000 1.0
C      1  0.4375180000000  0.5737780000000  0.5572220000000 1.0
C      1  0.4088870000000  0.5678080000000  0.4882360000000 1.0
C      1  0.4580190000000  0.5611810000000  0.4161390000000 1.0
C      1  0.5346550000000  0.5686250000000  0.4110540000000 1.0
C      1  0.5909930000000  0.5568630000000  0.4760950000000 1.0
C      1  0.4318970000000  0.4687810000000  0.5276270000000 1.0
C      1  0.4390750000000  0.4527260000000  0.4613280000000 1.0
C      1  0.4751630000000  0.4576550000000  0.4261550000000 1.0
C      1  0.5422220000000  0.4710680000000  0.4543980000000 1.0
C      1  0.5760180000000  0.4567930000000  0.5213400000000 1.0
C      1  0.5437710000000  0.4579550000000  0.5534920000000 1.0
C      1  0.4632060000000  0.4514410000000  0.5689430000000 1.0
C      1  0.5657150000000  0.5269110000000  0.4708110000000 1.0
C      1  0.5657960000000  0.5157490000000  0.5309200000000 1.0
C      1  0.5169090000000  0.5229150000000  0.5727110000000 1.0
C      1  0.4528530000000  0.5349020000000  0.5583090000000 1.0
C      1  0.4172470000000  0.5212910000000  0.5081210000000 1.0
C      1  0.4656340000000  0.5380600000000  0.4483640000000 1.0
C      1  0.5248950000000  0.5199290000000  0.4345740000000 1.0
C      1  0.4756400000000  0.4821620000000  0.3854870000000 1.0
C      1  0.5602320000000  0.4874550000000  0.4123110000000 1.0
C      1  0.6037600000000  0.5145000000000  0.4962600000000 1.0
C      1  0.5656170000000  0.4962850000000  0.5733680000000 1.0
C      1  0.4741000000000  0.4912770000000  0.6047860000000 1.0
C      1  0.4161820000000  0.5012280000000  0.5659520000000 1.0
C      1  0.3929210000000  0.5008460000000  0.4649360000000 1.0
C      1  0.5805640000000  0.4716590000000  0.5608200000000 1.0
C      1  0.4982720000000  0.4770200000000  0.5909470000000 1.0
C      1  0.4143100000000  0.4616140000000  0.5770440000000 1.0
C      1  0.4049150000000  0.4783490000000  0.4850350000000 1.0
C      1  0.4531260000000  0.4704270000000  0.3954510000000 1.0
C      1  0.5329420000000  0.4821780000000  0.4128280000000 1.0
C      1  0.6024070000000  0.4854630000000  0.4894880000000 1.0
C      1  0.4695170000000  0.6091650000000  0.5471610000000 1.0
C      1  0.4390830000000  0.6046940000000  0.5117650000000 1.0
C      1  0.4566870000000  0.5935910000000  0.4517110000000 1.0
C      1  0.4978210000000  0.6041490000000  0.4401320000000 1.0
C      1  0.5567230000000  0.6007280000000  0.4600790000000 1.0
C      1  0.5596210000000  0.6061670000000  0.5161160000000 1.0
C      1  0.5232260000000  0.6071820000000  0.5445530000000 1.0
C      1  0.6028420000000  0.4737650000000  0.5276700000000 1.0
C      1  0.5451850000000  0.4836800000000  0.5920840000000 1.0
C      1  0.4625930000000  0.4627530000000  0.6011120000000 1.0
C      1  0.4002500000000  0.4834000000000  0.5470850000000 1.0
C      1  0.4066870000000  0.4829010000000  0.4359580000000 1.0
C      1  0.5088940000000  0.4777280000000  0.3910280000000 1.0
C      1  0.5820010000000  0.4802970000000  0.4367430000000 1.0
C      1  0.3713280000000  0.5452300000000  0.5084270000000 1.0
C      1  0.4099300000000  0.5477130000000  0.4300410000000 1.0
C      1  0.5161060000000  0.5536490000000  0.3802050000000 1.0
C      1  0.6197360000000  0.5483140000000  0.4506710000000 1.0
C      1  0.6075360000000  0.5460420000000  0.5356640000000 1.0
C      1  0.5431720000000  0.5553090000000  0.6057730000000 1.0
C      1  0.4106770000000  0.5654590000000  0.5956020000000 1.0
C      1  0.5717880000000  0.4754700000000  0.4932440000000 1.0
C      1  0.5596210000000  0.4827440000000  0.5364360000000 1.0
C      1  0.5100920000000  0.4897570000000  0.5693990000000 1.0
C      1  0.4401980000000  0.4700410000000  0.5606360000000 1.0
C      1  0.4168450000000  0.4872860000000  0.5081930000000 1.0
C      1  0.4517480000000  0.4823280000000  0.4259870000000 1.0
C      1  0.5185510000000  0.4871640000000  0.4417530000000 1.0
C      1  0.5027410000000  0.3902500000000  0.5247810000000 1.0
C      1  0.4723440000000  0.3935210000000  0.5088880000000 1.0
C      1  0.4605200000000  0.3861600000000  0.4845900000000 1.0
C      1  0.4782040000000  0.3879720000000  0.4607410000000 1.0
C      1  0.4996630000000  0.4049030000000  0.4654010000000 1.0
C      1  0.5198640000000  0.3914700000000  0.4795040000000 1.0
C      1  0.5248980000000  0.3957090000000  0.5058410000000 1.0
C      1  0.4091890000000  0.4506310000000  0.5452730000000 1.0
C      1  0.4140690000000  0.4675170000000  0.4593130000000 1.0
C      1  0.4965910000000  0.4514910000000  0.4050390000000 1.0
C      1  0.5641120000000  0.4571050000000  0.4406930000000 1.0
C      1  0.6226470000000  0.4688230000000  0.5049260000000 1.0
C      1  0.5605740000000  0.4581350000000  0.5832370000000 1.0
C      1  0.4893250000000  0.4472310000000  0.5894570000000 1.0
C      1  0.5702860000000  0.5075680000000  0.4982040000000 1.0
C      1  0.5482580000000  0.5205420000000  0.5596810000000 1.0
C      1  0.4831650000000  0.5222370000000  0.5683990000000 1.0
C      1  0.4453200000000  0.5021310000000  0.5532670000000 1.0
C      1  0.4229770000000  0.5131260000000  0.4756120000000 1.0
C      1  0.4709020000000  0.5093000000000  0.4309470000000 1.0
C      1  0.5553750000000  0.5264170000000  0.4403750000000 1.0
C      1  0.4919720000000  0.4691530000000  0.4530330000000 1.0
C      1  0.5446230000000  0.4682760000000  0.4839120000000 1.0
C      1  0.5228860000000  0.4743250000000  0.5068360000000 1.0
C      1  0.5165780000000  0.4735000000000  0.5402400000000 1.0
C      1  0.4843130000000  0.4735460000000  0.5294950000000 1.0
C      1  0.4698240000000  0.4910960000000  0.4953220000000 1.0
C      1  0.4644850000000  0.4699960000000  0.4730380000000 1.0
C      1  0.4593190000000  0.4361020000000  0.5422690000000 1.0
C      1  0.4368710000000  0.4273940000000  0.4832370000000 1.0
C      1  0.4519680000000  0.4375750000000  0.4369390000000 1.0
C      1  0.5281320000000  0.4319270000000  0.4577460000000 1.0
C      1  0.5776070000000  0.4361770000000  0.4943400000000 1.0
C      1  0.5549100000000  0.4331070000000  0.5335730000000 1.0
C      1  0.5224500000000  0.4359590000000  0.5682680000000 1.0
C      1  0.4545600000000  0.4045500000000  0.5527440000000 1.0
C      1  0.4235250000000  0.4194230000000  0.5097230000000 1.0
C      1  0.4465270000000  0.4105700000000  0.4400170000000 1.0
C      1  0.5315240000000  0.4231480000000  0.4267640000000 1.0
C      1  0.5781990000000  0.4165140000000  0.4680710000000 1.0
C      1  0.5662790000000  0.3940720000000  0.5288920000000 1.0
C      1  0.5194960000000  0.4102520000000  0.5584280000000 1.0
C      1  0.4514000000000  0.5410490000000  0.4784090000000 1.0
C      1  0.5204180000000  0.5452750000000  0.4543850000000 1.0
C      1  0.5361300000000  0.5380510000000  0.4810500000000 1.0
C      1  0.5507360000000  0.5395370000000  0.5117870000000 1.0
C      1  0.5099250000000  0.5360000000000  0.5420840000000 1.0
C      1  0.4801910000000  0.5332180000000  0.5258010000000 1.0
C      1  0.4496700000000  0.5312590000000  0.5107110000000 1.0
C      1  0.4989150000000  0.4925820000000  0.4968660000000 1.0
C      1  0.5034240000000  0.4401160000000  0.5024110000000 1.0
END
