TITL C-2622960-5345-278 0.00167641932675779 125000 -1013.35617891322 0 0 188 (C1) n - 1
REM
REM in /nfs/bkarasulu/CARBON/AIRSS/Generating-Clusters/AIREBO/with-SteepDescent/Higher-Symm/SD-CG/HFTN-CG
REM
REM
REM
REM
REM
REM ./C.cell (b20cbc046b6831c77cfcea5457e17084)
REM
REM compiler GCC version 9.2.1 20190827 (Red Hat 9.2.1-1)
REM options -cpp -mtune=generic -march=x86-64 -g -O0 -fpre-include=/usr/include/finclude/math-vector-fortran.h
REM seed 1682576624 -2021370830 54421043 1872995139 421710239 954463554 -1473929428 -1109552263 118144550 1043226231 528308652 1678117998 1591988641 -952942413 -1365577058 -646760867 1425585067 -1384269746 -1373862988 856055536 1780614076 -134177782 1434353381 -152810473 -857539527 284795990 911742663 -1837371573 -1339977665 -400385610 -1018976532 -1985146173 1814789163
REM
CELL 1.54180   50.00000   50.00000   50.00000   90.00000   90.00000   90.00000
LATT -1
SFAC C  
C      1  0.5027090000000  0.5897110000000  0.4245710000000 1.0
C      1  0.3980980000000  0.4686140000000  0.4807790000000 1.0
C      1  0.4137060000000  0.4294350000000  0.4492110000000 1.0
C      1  0.5087370000000  0.4293620000000  0.4205090000000 1.0
C      1  0.5324470000000  0.5264220000000  0.5014300000000 1.0
C      1  0.5498060000000  0.4714050000000  0.4863020000000 1.0
C      1  0.4552910000000  0.5076350000000  0.5920010000000 1.0
C      1  0.4938730000000  0.4352720000000  0.5840290000000 1.0
C      1  0.5588340000000  0.4481880000000  0.5765050000000 1.0
C      1  0.5671750000000  0.4110240000000  0.4726660000000 1.0
C      1  0.5376650000000  0.5966770000000  0.4434660000000 1.0
C      1  0.5938630000000  0.5190660000000  0.4155570000000 1.0
C      1  0.5510310000000  0.4822400000000  0.5571340000000 1.0
C      1  0.5617600000000  0.5330220000000  0.5097390000000 1.0
C      1  0.5194040000000  0.4351790000000  0.5415320000000 1.0
C      1  0.4765600000000  0.4090340000000  0.4495500000000 1.0
C      1  0.5888490000000  0.5166090000000  0.5341640000000 1.0
C      1  0.4718940000000  0.4361950000000  0.5384140000000 1.0
C      1  0.5009320000000  0.5943670000000  0.5723800000000 1.0
C      1  0.4497340000000  0.5958050000000  0.5427980000000 1.0
C      1  0.4439440000000  0.5136380000000  0.5217120000000 1.0
C      1  0.5751020000000  0.5732480000000  0.4823110000000 1.0
C      1  0.4572830000000  0.5179810000000  0.4456540000000 1.0
C      1  0.5047230000000  0.4376120000000  0.5108910000000 1.0
C      1  0.4957430000000  0.4052520000000  0.4737980000000 1.0
C      1  0.4309880000000  0.4865310000000  0.5925650000000 1.0
C      1  0.5133820000000  0.4331750000000  0.4676330000000 1.0
C      1  0.4025980000000  0.4690660000000  0.5117350000000 1.0
C      1  0.4282030000000  0.5409450000000  0.5697920000000 1.0
C      1  0.5544950000000  0.4197810000000  0.4998530000000 1.0
C      1  0.6054850000000  0.5171650000000  0.4806040000000 1.0
C      1  0.3972130000000  0.4861100000000  0.4366230000000 1.0
C      1  0.4862420000000  0.5426000000000  0.5192460000000 1.0
C      1  0.5295710000000  0.4952050000000  0.4998080000000 1.0
C      1  0.5220960000000  0.4853560000000  0.6059370000000 1.0
C      1  0.3910370000000  0.5256440000000  0.5144230000000 1.0
C      1  0.5723770000000  0.4864380000000  0.5068240000000 1.0
C      1  0.5675170000000  0.4791850000000  0.5867350000000 1.0
C      1  0.5667640000000  0.4609200000000  0.4209980000000 1.0
C      1  0.5774790000000  0.4599300000000  0.4701780000000 1.0
C      1  0.4907080000000  0.4573480000000  0.4626680000000 1.0
C      1  0.5626900000000  0.5105560000000  0.4190870000000 1.0
C      1  0.5568550000000  0.5075470000000  0.5267300000000 1.0
C      1  0.4870360000000  0.5456820000000  0.3955220000000 1.0
C      1  0.5847440000000  0.4288550000000  0.4633260000000 1.0
C      1  0.5279410000000  0.5455460000000  0.5500150000000 1.0
C      1  0.5293250000000  0.5333200000000  0.3979010000000 1.0
C      1  0.6088720000000  0.4707580000000  0.5121410000000 1.0
C      1  0.4927960000000  0.5683410000000  0.4490910000000 1.0
C      1  0.4795790000000  0.4207170000000  0.5663400000000 1.0
C      1  0.5951190000000  0.4511240000000  0.4947060000000 1.0
C      1  0.4126690000000  0.5002360000000  0.5213910000000 1.0
C      1  0.5263170000000  0.4384100000000  0.5746780000000 1.0
C      1  0.4917430000000  0.3701280000000  0.5063090000000 1.0
C      1  0.5839930000000  0.4858260000000  0.5477910000000 1.0
C      1  0.5294340000000  0.4742350000000  0.4252640000000 1.0
C      1  0.5429320000000  0.5227820000000  0.5687700000000 1.0
C      1  0.4290570000000  0.4778160000000  0.4344750000000 1.0
C      1  0.4475250000000  0.5278510000000  0.4910210000000 1.0
C      1  0.5056350000000  0.4852910000000  0.4618120000000 1.0
C      1  0.5581450000000  0.5545980000000  0.4380170000000 1.0
C      1  0.4999540000000  0.6076710000000  0.4486160000000 1.0
C      1  0.4867060000000  0.4860660000000  0.4901770000000 1.0
C      1  0.5078880000000  0.4555110000000  0.4121590000000 1.0
C      1  0.4396700000000  0.4450790000000  0.4366530000000 1.0
C      1  0.5809340000000  0.4716240000000  0.4428060000000 1.0
C      1  0.5861740000000  0.4550780000000  0.5334230000000 1.0
C      1  0.4929080000000  0.5909400000000  0.5131420000000 1.0
C      1  0.5501360000000  0.4973210000000  0.6077070000000 1.0
C      1  0.5381100000000  0.3947160000000  0.5123680000000 1.0
C      1  0.4224400000000  0.4477500000000  0.4727440000000 1.0
C      1  0.4926210000000  0.5195950000000  0.3901830000000 1.0
C      1  0.4672990000000  0.4929870000000  0.4306890000000 1.0
C      1  0.5420350000000  0.5112210000000  0.3848480000000 1.0
C      1  0.4100590000000  0.4960300000000  0.4645690000000 1.0
C      1  0.4822970000000  0.4922180000000  0.5855360000000 1.0
C      1  0.4078470000000  0.4437610000000  0.5214280000000 1.0
C      1  0.5374780000000  0.5994790000000  0.5344850000000 1.0
C      1  0.4528180000000  0.4841780000000  0.4922190000000 1.0
C      1  0.5426230000000  0.5559940000000  0.5906870000000 1.0
C      1  0.6052650000000  0.5432830000000  0.5209080000000 1.0
C      1  0.4101910000000  0.4944450000000  0.5668550000000 1.0
C      1  0.4792220000000  0.5842510000000  0.5501180000000 1.0
C      1  0.5387660000000  0.4063390000000  0.5707270000000 1.0
C      1  0.5136260000000  0.5607780000000  0.4104330000000 1.0
C      1  0.4801020000000  0.4607460000000  0.5966450000000 1.0
C      1  0.5805340000000  0.5585080000000  0.4578520000000 1.0
C      1  0.4517080000000  0.5922430000000  0.4371060000000 1.0
C      1  0.3728350000000  0.4889130000000  0.4771660000000 1.0
C      1  0.5720000000000  0.5102340000000  0.5761810000000 1.0
C      1  0.4756160000000  0.3955480000000  0.4956900000000 1.0
C      1  0.4324770000000  0.4248810000000  0.5103230000000 1.0
C      1  0.5079090000000  0.4586060000000  0.6136640000000 1.0
C      1  0.4910450000000  0.5248790000000  0.5901700000000 1.0
C      1  0.5809980000000  0.5360580000000  0.5609520000000 1.0
C      1  0.4384970000000  0.5443490000000  0.5315980000000 1.0
C      1  0.5121030000000  0.5453240000000  0.5801590000000 1.0
C      1  0.4800420000000  0.5189940000000  0.4955730000000 1.0
C      1  0.4831300000000  0.3990930000000  0.5478020000000 1.0
C      1  0.5055970000000  0.4810660000000  0.5180270000000 1.0
C      1  0.5266950000000  0.4632300000000  0.5317930000000 1.0
C      1  0.4593060000000  0.4763470000000  0.3953110000000 1.0
C      1  0.5050280000000  0.5219220000000  0.4726980000000 1.0
C      1  0.5812040000000  0.4302770000000  0.5106980000000 1.0
C      1  0.4519500000000  0.4414280000000  0.4884520000000 1.0
C      1  0.5691320000000  0.4344920000000  0.5535570000000 1.0
C      1  0.5229310000000  0.6035120000000  0.4733490000000 1.0
C      1  0.5107830000000  0.5409660000000  0.4449140000000 1.0
C      1  0.5391940000000  0.5741610000000  0.4284810000000 1.0
C      1  0.5249640000000  0.3955980000000  0.4809390000000 1.0
C      1  0.5558600000000  0.4366040000000  0.4241810000000 1.0
C      1  0.5430200000000  0.4031550000000  0.4606590000000 1.0
C      1  0.6026580000000  0.5010080000000  0.5072840000000 1.0
C      1  0.4853270000000  0.4123980000000  0.5188640000000 1.0
C      1  0.4311550000000  0.4432970000000  0.5627830000000 1.0
C      1  0.4968710000000  0.5045920000000  0.5409740000000 1.0
C      1  0.5944650000000  0.5677790000000  0.5061420000000 1.0
C      1  0.4586760000000  0.5504080000000  0.3979210000000 1.0
C      1  0.4359750000000  0.5811500000000  0.5165610000000 1.0
C      1  0.4862790000000  0.4709030000000  0.4034020000000 1.0
C      1  0.4244270000000  0.4955660000000  0.4922220000000 1.0
C      1  0.4420790000000  0.4721950000000  0.4654170000000 1.0
C      1  0.4108930000000  0.5598080000000  0.5199210000000 1.0
C      1  0.4465970000000  0.4035610000000  0.4878810000000 1.0
C      1  0.5100990000000  0.5761660000000  0.5903800000000 1.0
C      1  0.4401580000000  0.5101610000000  0.5616770000000 1.0
C      1  0.4618100000000  0.5385630000000  0.5794600000000 1.0
C      1  0.3711760000000  0.4868090000000  0.4480490000000 1.0
C      1  0.4488090000000  0.4783020000000  0.5548560000000 1.0
C      1  0.4499260000000  0.5587670000000  0.4807450000000 1.0
C      1  0.4927350000000  0.5001210000000  0.4134030000000 1.0
C      1  0.5381110000000  0.6086680000000  0.5033420000000 1.0
C      1  0.4280670000000  0.5443780000000  0.4396400000000 1.0
C      1  0.5306060000000  0.5061080000000  0.5440980000000 1.0
C      1  0.5622390000000  0.5634990000000  0.5682120000000 1.0
C      1  0.5487250000000  0.5679500000000  0.5376550000000 1.0
C      1  0.4735660000000  0.5504300000000  0.5498270000000 1.0
C      1  0.5681870000000  0.5578710000000  0.5184660000000 1.0
C      1  0.3998240000000  0.5496730000000  0.4920060000000 1.0
C      1  0.5169860000000  0.5471720000000  0.5195660000000 1.0
C      1  0.4656140000000  0.4654900000000  0.4450210000000 1.0
C      1  0.4665330000000  0.5828550000000  0.4633940000000 1.0
C      1  0.5380580000000  0.5282690000000  0.4298660000000 1.0
C      1  0.5595390000000  0.5965690000000  0.5605590000000 1.0
C      1  0.5553010000000  0.4676460000000  0.5267190000000 1.0
C      1  0.4687580000000  0.5172650000000  0.5446780000000 1.0
C      1  0.5779990000000  0.5130660000000  0.4709870000000 1.0
C      1  0.5154840000000  0.5030960000000  0.4336850000000 1.0
C      1  0.4562280000000  0.4820360000000  0.5243040000000 1.0
C      1  0.4372500000000  0.5324920000000  0.4142230000000 1.0
C      1  0.5832360000000  0.5007880000000  0.4422380000000 1.0
C      1  0.4323180000000  0.5872730000000  0.4835620000000 1.0
C      1  0.5472470000000  0.5265940000000  0.6022830000000 1.0
C      1  0.4676970000000  0.5690000000000  0.5150520000000 1.0
C      1  0.5379440000000  0.4812610000000  0.4574660000000 1.0
C      1  0.4691010000000  0.5476270000000  0.4362090000000 1.0
C      1  0.5186720000000  0.5739400000000  0.5034330000000 1.0
C      1  0.5077070000000  0.6002340000000  0.5404210000000 1.0
C      1  0.4127880000000  0.4632370000000  0.5750380000000 1.0
C      1  0.4874430000000  0.4117270000000  0.4250030000000 1.0
C      1  0.3704800000000  0.5068080000000  0.4974300000000 1.0
C      1  0.5502620000000  0.5097130000000  0.4628970000000 1.0
C      1  0.4802400000000  0.4649390000000  0.5341060000000 1.0
C      1  0.4812700000000  0.4526840000000  0.4938090000000 1.0
C      1  0.5038510000000  0.5099780000000  0.6137520000000 1.0
C      1  0.4090490000000  0.5337520000000  0.5425080000000 1.0
C      1  0.4417430000000  0.4331710000000  0.5395020000000 1.0
C      1  0.4184460000000  0.5590740000000  0.4690160000000 1.0
C      1  0.5235290000000  0.4722970000000  0.5744980000000 1.0
C      1  0.5519510000000  0.4848960000000  0.4040960000000 1.0
C      1  0.4520950000000  0.5702370000000  0.4207230000000 1.0
C      1  0.5163390000000  0.3710120000000  0.5112160000000 1.0
C      1  0.4967470000000  0.4787270000000  0.5604430000000 1.0
C      1  0.4412080000000  0.4998250000000  0.4123110000000 1.0
C      1  0.4512620000000  0.4229690000000  0.4599050000000 1.0
C      1  0.4518390000000  0.4615590000000  0.5826720000000 1.0
C      1  0.5332850000000  0.5382540000000  0.4702640000000 1.0
C      1  0.5318130000000  0.4246350000000  0.4403030000000 1.0
C      1  0.4655290000000  0.5935070000000  0.4929320000000 1.0
C      1  0.4770270000000  0.5343740000000  0.4651560000000 1.0
C      1  0.6042930000000  0.5415850000000  0.4616890000000 1.0
C      1  0.4302670000000  0.5214210000000  0.4630920000000 1.0
C      1  0.4438830000000  0.5662750000000  0.5547490000000 1.0
C      1  0.5456920000000  0.4148650000000  0.5385470000000 1.0
C      1  0.5502210000000  0.5816500000000  0.4918160000000 1.0
C      1  0.5333210000000  0.4423420000000  0.4930260000000 1.0
C      1  0.5183260000000  0.5698710000000  0.4714940000000 1.0
C      1  0.5252330000000  0.4363450000000  0.6086100000000 1.0
END
