TITL C-2622961-1971-488 0.00042548562725555 125000 -495.167172748706 0 0 90 (C1) n - 1
REM
REM in /nfs/bkarasulu/CARBON/AIRSS/Generating-Clusters/AIREBO/with-SteepDescent/Higher-Symm/SD-CG/HFTN-CG
REM
REM
REM
REM
REM
REM ./C.cell (b20cbc046b6831c77cfcea5457e17084)
REM
REM compiler GCC version 9.2.1 20190827 (Red Hat 9.2.1-1)
REM options -cpp -mtune=generic -march=x86-64 -g -O0 -fpre-include=/usr/include/finclude/math-vector-fortran.h
REM seed -666788830 -929703217 583810275 1893592305 -19115681 -2004798747 1400461687 -1648077528 -507098385 1126709135 -1612038706 990091976 800356927 -755218472 -1152344745 -2031735794 1802068964 -681538486 655670964 -1080047033 -1124035092 1667282386 -1491403936 -1491539456 -996907541 -1936620913 1315274765 -1593169618 -1467388832 894486662 -145577127 510599318 476452538
REM
CELL 1.54180   50.00000   50.00000   50.00000   90.00000   90.00000   90.00000
LATT -1
SFAC C  
C      1  0.5448470000000  0.5325810000000  0.4386160000000 1.0
C      1  0.4543920000000  0.4705940000000  0.4346810000000 1.0
C      1  0.5443940000000  0.4173530000000  0.4894900000000 1.0
C      1  0.4537200000000  0.4602900000000  0.5529520000000 1.0
C      1  0.5510130000000  0.5444270000000  0.5571310000000 1.0
C      1  0.4598050000000  0.5672000000000  0.4964020000000 1.0
C      1  0.4220370000000  0.5363860000000  0.5155470000000 1.0
C      1  0.5745060000000  0.5395310000000  0.4889090000000 1.0
C      1  0.4256100000000  0.5130780000000  0.4557660000000 1.0
C      1  0.5729990000000  0.4665080000000  0.4730420000000 1.0
C      1  0.4217800000000  0.4586640000000  0.5103680000000 1.0
C      1  0.5826010000000  0.5047820000000  0.5433260000000 1.0
C      1  0.5258010000000  0.5422960000000  0.5714990000000 1.0
C      1  0.4874320000000  0.5765710000000  0.5140200000000 1.0
C      1  0.5166620000000  0.5516230000000  0.4385040000000 1.0
C      1  0.4816480000000  0.4767170000000  0.4196940000000 1.0
C      1  0.5172000000000  0.4175280000000  0.4845530000000 1.0
C      1  0.4804790000000  0.4517810000000  0.5573080000000 1.0
C      1  0.4717340000000  0.5085290000000  0.5633380000000 1.0
C      1  0.5205050000000  0.5772250000000  0.5221570000000 1.0
C      1  0.4841450000000  0.5552640000000  0.4478310000000 1.0
C      1  0.5142900000000  0.4829260000000  0.4269390000000 1.0
C      1  0.4541350000000  0.3964480000000  0.5178370000000 1.0
C      1  0.5437170000000  0.4542640000000  0.5639290000000 1.0
C      1  0.5133020000000  0.4276880000000  0.5331240000000 1.0
C      1  0.4972460000000  0.4998870000000  0.5716680000000 1.0
C      1  0.5027080000000  0.5542940000000  0.5569810000000 1.0
C      1  0.5017040000000  0.5754360000000  0.4785900000000 1.0
C      1  0.5048810000000  0.5204730000000  0.4176250000000 1.0
C      1  0.4882600000000  0.4416380000000  0.4524050000000 1.0
C      1  0.4745610000000  0.5202710000000  0.5315180000000 1.0
C      1  0.5305080000000  0.5460870000000  0.4984860000000 1.0
C      1  0.4759080000000  0.5235360000000  0.4581820000000 1.0
C      1  0.5193900000000  0.4734130000000  0.4738280000000 1.0
C      1  0.4719330000000  0.4484440000000  0.5080650000000 1.0
C      1  0.5331840000000  0.4810870000000  0.5447210000000 1.0
C      1  0.5256470000000  0.5104040000000  0.5291260000000 1.0
C      1  0.4800260000000  0.5213380000000  0.4979000000000 1.0
C      1  0.5226190000000  0.5144200000000  0.4964010000000 1.0
C      1  0.4779810000000  0.4946420000000  0.4759900000000 1.0
C      1  0.5113450000000  0.4672390000000  0.5044580000000 1.0
C      1  0.4846760000000  0.4757740000000  0.5237780000000 1.0
C      1  0.5646880000000  0.4985570000000  0.4778990000000 1.0
C      1  0.4318770000000  0.4757350000000  0.4899850000000 1.0
C      1  0.5715650000000  0.4833340000000  0.5193600000000 1.0
C      1  0.4288080000000  0.5030080000000  0.5185010000000 1.0
C      1  0.5717290000000  0.5119430000000  0.5048100000000 1.0
C      1  0.4287220000000  0.5083060000000  0.4864420000000 1.0
C      1  0.4555630000000  0.5572790000000  0.4649430000000 1.0
C      1  0.5385630000000  0.4998030000000  0.4346560000000 1.0
C      1  0.4609890000000  0.4530450000000  0.4556220000000 1.0
C      1  0.5368640000000  0.4404170000000  0.5387910000000 1.0
C      1  0.4489910000000  0.4881510000000  0.5630480000000 1.0
C      1  0.5483390000000  0.5620590000000  0.5303570000000 1.0
C      1  0.5430870000000  0.4649170000000  0.5164860000000 1.0
C      1  0.4559260000000  0.4930440000000  0.5301230000000 1.0
C      1  0.5506430000000  0.5298820000000  0.5196130000000 1.0
C      1  0.4520050000000  0.5287540000000  0.4817950000000 1.0
C      1  0.5323770000000  0.5028230000000  0.4682100000000 1.0
C      1  0.4600800000000  0.4673270000000  0.4823340000000 1.0
C      1  0.5616040000000  0.5420420000000  0.4607260000000 1.0
C      1  0.4409630000000  0.4962290000000  0.4381140000000 1.0
C      1  0.5561250000000  0.4474600000000  0.4903770000000 1.0
C      1  0.4441060000000  0.4523910000000  0.5272130000000 1.0
C      1  0.5638960000000  0.5185710000000  0.5580390000000 1.0
C      1  0.4430830000000  0.5540450000000  0.5159350000000 1.0
C      1  0.5442360000000  0.5004980000000  0.5686660000000 1.0
C      1  0.4605540000000  0.5480030000000  0.5373510000000 1.0
C      1  0.5433440000000  0.5605660000000  0.4757290000000 1.0
C      1  0.4616510000000  0.5150670000000  0.4311440000000 1.0
C      1  0.5344900000000  0.4473520000000  0.4644970000000 1.0
C      1  0.4668050000000  0.4192170000000  0.5246910000000 1.0
C      1  0.5030270000000  0.4343770000000  0.5043000000000 1.0
C      1  0.5015590000000  0.4750290000000  0.5528350000000 1.0
C      1  0.5042420000000  0.5269770000000  0.5416880000000 1.0
C      1  0.4977120000000  0.5483580000000  0.4987760000000 1.0
C      1  0.5091280000000  0.5210580000000  0.4513590000000 1.0
C      1  0.4942290000000  0.4751010000000  0.4532680000000 1.0
C      1  0.4810200000000  0.5670120000000  0.5437170000000 1.0
C      1  0.5225540000000  0.5721950000000  0.4610100000000 1.0
C      1  0.4812600000000  0.5071820000000  0.4120310000000 1.0
C      1  0.5117610000000  0.4275580000000  0.4573060000000 1.0
C      1  0.4870940000000  0.4275840000000  0.5448500000000 1.0
C      1  0.5208490000000  0.5141920000000  0.5783650000000 1.0
C      1  0.4290010000000  0.5408220000000  0.4514440000000 1.0
C      1  0.5624480000000  0.4846080000000  0.4476050000000 1.0
C      1  0.3965270000000  0.4504110000000  0.5137470000000 1.0
C      1  0.6005170000000  0.4795000000000  0.5369430000000 1.0
C      1  0.4018490000000  0.5186940000000  0.5320380000000 1.0
C      1  0.5722180000000  0.5608770000000  0.5065710000000 1.0
END
