TITL C-2622960-5345-139 0.00310764978237151 125000 -530.113805310185 0 0 97 (C1) n - 1
REM
REM in /nfs/bkarasulu/CARBON/AIRSS/Generating-Clusters/AIREBO/with-SteepDescent/Higher-Symm/SD-CG/HFTN-CG
REM
REM
REM
REM
REM
REM ./C.cell (b20cbc046b6831c77cfcea5457e17084)
REM
REM compiler GCC version 9.2.1 20190827 (Red Hat 9.2.1-1)
REM options -cpp -mtune=generic -march=x86-64 -g -O0 -fpre-include=/usr/include/finclude/math-vector-fortran.h
REM seed -1209078914 -1044739422 -798705810 139659539 -1005036741 -1680418750 -1621996617 -1068148637 1612474644 1408353650 685223760 1026312727 -230023394 977543696 922333201 -1606911606 1592773571 1290826091 -341629852 1978022657 102368413 575493288 -709535438 -1883775778 -1590436314 1835039843 -666293948 -1707960224 1197827705 299470781 -385615839 535216817 1001848054
REM
CELL 1.54180   50.00000   50.00000   50.00000   90.00000   90.00000   90.00000
LATT -1
SFAC C  
C      1  0.5238630000000  0.5570680000000  0.4314120000000 1.0
C      1  0.4516690000000  0.5568550000000  0.4439740000000 1.0
C      1  0.4271480000000  0.5537600000000  0.4878810000000 1.0
C      1  0.4616970000000  0.5497380000000  0.5515950000000 1.0
C      1  0.5079320000000  0.5625430000000  0.5842980000000 1.0
C      1  0.5598310000000  0.5629820000000  0.5319880000000 1.0
C      1  0.5729310000000  0.5554830000000  0.4830730000000 1.0
C      1  0.4315860000000  0.4946640000000  0.5700520000000 1.0
C      1  0.5152340000000  0.4977010000000  0.5802680000000 1.0
C      1  0.5713010000000  0.4928670000000  0.5493600000000 1.0
C      1  0.5809610000000  0.4910390000000  0.4709800000000 1.0
C      1  0.5139500000000  0.4918030000000  0.3970070000000 1.0
C      1  0.4470680000000  0.4937050000000  0.4256320000000 1.0
C      1  0.4083580000000  0.4907480000000  0.4968470000000 1.0
C      1  0.5782310000000  0.4643870000000  0.4646590000000 1.0
C      1  0.5350710000000  0.4754870000000  0.4148610000000 1.0
C      1  0.4513940000000  0.4669870000000  0.4327660000000 1.0
C      1  0.3960190000000  0.4591600000000  0.4937850000000 1.0
C      1  0.4182840000000  0.4662520000000  0.5832440000000 1.0
C      1  0.5178760000000  0.4681180000000  0.5911380000000 1.0
C      1  0.5858060000000  0.4627080000000  0.5555510000000 1.0
C      1  0.4706310000000  0.4611330000000  0.4509480000000 1.0
C      1  0.4219490000000  0.4636250000000  0.5114490000000 1.0
C      1  0.4364930000000  0.4649180000000  0.5572550000000 1.0
C      1  0.5251550000000  0.4662860000000  0.5627150000000 1.0
C      1  0.5614310000000  0.4641380000000  0.5351930000000 1.0
C      1  0.5565650000000  0.4484350000000  0.4607040000000 1.0
C      1  0.5054180000000  0.4636600000000  0.4114930000000 1.0
C      1  0.5810660000000  0.5142410000000  0.5289190000000 1.0
C      1  0.5715260000000  0.5148220000000  0.4537190000000 1.0
C      1  0.5047500000000  0.5160250000000  0.4087110000000 1.0
C      1  0.4309900000000  0.5116170000000  0.4442270000000 1.0
C      1  0.4087080000000  0.5149910000000  0.5188110000000 1.0
C      1  0.4595510000000  0.5105180000000  0.5783510000000 1.0
C      1  0.5346960000000  0.5191760000000  0.5799260000000 1.0
C      1  0.5260350000000  0.4665570000000  0.4958200000000 1.0
C      1  0.5245400000000  0.4597370000000  0.4623740000000 1.0
C      1  0.4987260000000  0.4697640000000  0.4426160000000 1.0
C      1  0.4653290000000  0.4628870000000  0.4810150000000 1.0
C      1  0.4455450000000  0.4687870000000  0.5291840000000 1.0
C      1  0.4777920000000  0.4660470000000  0.5294410000000 1.0
C      1  0.5305120000000  0.4626660000000  0.5293200000000 1.0
C      1  0.4938060000000  0.5192130000000  0.4646280000000 1.0
C      1  0.4648570000000  0.5234400000000  0.4774520000000 1.0
C      1  0.4776170000000  0.5203100000000  0.5241910000000 1.0
C      1  0.4971440000000  0.5317840000000  0.5471060000000 1.0
C      1  0.5269030000000  0.5266590000000  0.5313770000000 1.0
C      1  0.5319670000000  0.5170520000000  0.4991470000000 1.0
C      1  0.5240440000000  0.5279140000000  0.4688880000000 1.0
C      1  0.4740940000000  0.5545040000000  0.5221390000000 1.0
C      1  0.4912340000000  0.5622140000000  0.5580030000000 1.0
C      1  0.5297460000000  0.5574410000000  0.5171460000000 1.0
C      1  0.5454530000000  0.5667600000000  0.4881190000000 1.0
C      1  0.5233630000000  0.5607740000000  0.4631380000000 1.0
C      1  0.4914650000000  0.5623950000000  0.4748080000000 1.0
C      1  0.4579510000000  0.5568030000000  0.4762230000000 1.0
C      1  0.4454690000000  0.5302620000000  0.5601280000000 1.0
C      1  0.5266810000000  0.5434290000000  0.5900880000000 1.0
C      1  0.5719030000000  0.5405520000000  0.5404570000000 1.0
C      1  0.5786860000000  0.5297800000000  0.4790380000000 1.0
C      1  0.5238290000000  0.5303260000000  0.4243990000000 1.0
C      1  0.4502220000000  0.5326550000000  0.4319870000000 1.0
C      1  0.4166990000000  0.5293800000000  0.4927540000000 1.0
C      1  0.4532520000000  0.4936200000000  0.4890350000000 1.0
C      1  0.4557090000000  0.5002830000000  0.5213830000000 1.0
C      1  0.4915120000000  0.4884830000000  0.5438720000000 1.0
C      1  0.5189420000000  0.4937360000000  0.5343680000000 1.0
C      1  0.5466740000000  0.4906090000000  0.4983800000000 1.0
C      1  0.5378050000000  0.4834380000000  0.4419120000000 1.0
C      1  0.4918120000000  0.5001260000000  0.4428340000000 1.0
C      1  0.5109620000000  0.4288080000000  0.4584900000000 1.0
C      1  0.4835450000000  0.4168200000000  0.4690150000000 1.0
C      1  0.4644770000000  0.4309280000000  0.4881770000000 1.0
C      1  0.4675270000000  0.4226620000000  0.5154360000000 1.0
C      1  0.4861520000000  0.4365090000000  0.5324880000000 1.0
C      1  0.5138960000000  0.4338940000000  0.5321370000000 1.0
C      1  0.5233090000000  0.4133210000000  0.5135660000000 1.0
C      1  0.5179220000000  0.5876080000000  0.5269470000000 1.0
C      1  0.5311030000000  0.5941880000000  0.5014190000000 1.0
C      1  0.5175860000000  0.5923790000000  0.4745080000000 1.0
C      1  0.4878500000000  0.5975340000000  0.4736820000000 1.0
C      1  0.4644290000000  0.5870360000000  0.4903930000000 1.0
C      1  0.4699210000000  0.5857770000000  0.5185700000000 1.0
C      1  0.4931210000000  0.5856850000000  0.5382300000000 1.0
C      1  0.5759660000000  0.5053950000000  0.5011040000000 1.0
C      1  0.5421850000000  0.5130220000000  0.4461860000000 1.0
C      1  0.4743670000000  0.5130500000000  0.4195100000000 1.0
C      1  0.4269320000000  0.5052110000000  0.4729970000000 1.0
C      1  0.4300980000000  0.5101890000000  0.5394970000000 1.0
C      1  0.4876400000000  0.5072490000000  0.5686590000000 1.0
C      1  0.5509250000000  0.5196470000000  0.5544060000000 1.0
C      1  0.5036510000000  0.4267060000000  0.4942370000000 1.0
C      1  0.4927390000000  0.4895350000000  0.4924420000000 1.0
C      1  0.4985920000000  0.5189910000000  0.4983020000000 1.0
C      1  0.4996550000000  0.5509790000000  0.5026710000000 1.0
C      1  0.5418060000000  0.3944180000000  0.5123820000000 1.0
C      1  0.4932120000000  0.4586800000000  0.5000290000000 1.0
END
