TITL C-2622968-4806-809 0.000502116101305018 125000 -312.537820982031 0 0 54 (C1) n - 1
REM
REM in /nfs/bkarasulu/CARBON/AIRSS/Generating-Clusters/AIREBO/with-SteepDescent/Higher-Symm/SD-CG/HFTN-CG
REM
REM
REM
REM
REM
REM ./C.cell (b20cbc046b6831c77cfcea5457e17084)
REM
REM compiler GCC version 9.2.1 20190827 (Red Hat 9.2.1-1)
REM options -cpp -mtune=generic -march=x86-64 -g -O0 -fpre-include=/usr/include/finclude/math-vector-fortran.h
REM seed -2033768388 672246729 1769186858 -408135859 -1579653724 -357990921 -438356247 1431710572 865666290 -613292097 -1719239324 -1623826099 115271987 732451123 -1005730609 1747583580 -163186751 1039534518 -246096011 626484344 1462547783 2074582566 1151235344 -2126120977 -370251509 -1338557278 492426743 -1815576722 -690575051 -1838039406 167140189 724461009 -2027044802
REM
CELL 1.54180   50.00000   50.00000   50.00000   90.00000   90.00000   90.00000
LATT -1
SFAC C  
C      1  0.4907980000000  0.4910740000000  0.5002010000000 1.0
C      1  0.5045010000000  0.5182320000000  0.5122860000000 1.0
C      1  0.5125180000000  0.5062570000000  0.4814830000000 1.0
C      1  0.4870610000000  0.5568700000000  0.5007400000000 1.0
C      1  0.4888300000000  0.4657540000000  0.4484850000000 1.0
C      1  0.4913380000000  0.4733790000000  0.5505530000000 1.0
C      1  0.5181370000000  0.5556120000000  0.5099700000000 1.0
C      1  0.5191520000000  0.4739860000000  0.4491220000000 1.0
C      1  0.5230130000000  0.4766960000000  0.5385840000000 1.0
C      1  0.5052780000000  0.5181300000000  0.4557550000000 1.0
C      1  0.4883600000000  0.4629240000000  0.5060210000000 1.0
C      1  0.5001740000000  0.5295830000000  0.5392060000000 1.0
C      1  0.5741030000000  0.4603260000000  0.5152980000000 1.0
C      1  0.5803260000000  0.5277950000000  0.5261220000000 1.0
C      1  0.5761920000000  0.5029910000000  0.4640160000000 1.0
C      1  0.4727270000000  0.4420640000000  0.4866390000000 1.0
C      1  0.4758330000000  0.5207540000000  0.5499730000000 1.0
C      1  0.4796830000000  0.5298700000000  0.4577630000000 1.0
C      1  0.4595920000000  0.5095450000000  0.4557640000000 1.0
C      1  0.4572500000000  0.4535200000000  0.5141390000000 1.0
C      1  0.4554170000000  0.5333110000000  0.5344200000000 1.0
C      1  0.4301200000000  0.4794840000000  0.4816030000000 1.0
C      1  0.4281830000000  0.4919640000000  0.5280290000000 1.0
C      1  0.4303740000000  0.5259150000000  0.4934460000000 1.0
C      1  0.5639780000000  0.4794390000000  0.4729480000000 1.0
C      1  0.5621370000000  0.4832470000000  0.5263230000000 1.0
C      1  0.5652860000000  0.5319760000000  0.5026420000000 1.0
C      1  0.5338510000000  0.4817740000000  0.4788760000000 1.0
C      1  0.5351950000000  0.4929620000000  0.5112920000000 1.0
C      1  0.5358990000000  0.5266730000000  0.5066190000000 1.0
C      1  0.4196600000000  0.5495690000000  0.4863990000000 1.0
C      1  0.4186440000000  0.4629370000000  0.4637280000000 1.0
C      1  0.4169390000000  0.4858980000000  0.5517180000000 1.0
C      1  0.5136880000000  0.5545530000000  0.5418810000000 1.0
C      1  0.5158820000000  0.5021590000000  0.4357020000000 1.0
C      1  0.5104720000000  0.4523980000000  0.5224540000000 1.0
C      1  0.4386480000000  0.5060900000000  0.4745670000000 1.0
C      1  0.4350820000000  0.4725280000000  0.5087130000000 1.0
C      1  0.4355990000000  0.5186050000000  0.5207940000000 1.0
C      1  0.5203680000000  0.4283480000000  0.5220580000000 1.0
C      1  0.5217960000000  0.5709010000000  0.5616910000000 1.0
C      1  0.5200670000000  0.5070040000000  0.4092940000000 1.0
C      1  0.5414900000000  0.4758220000000  0.5597310000000 1.0
C      1  0.5326930000000  0.5779020000000  0.5004600000000 1.0
C      1  0.5354090000000  0.4557550000000  0.4347770000000 1.0
C      1  0.5757430000000  0.5271300000000  0.4771600000000 1.0
C      1  0.5771090000000  0.4595050000000  0.4877870000000 1.0
C      1  0.5761910000000  0.5038200000000  0.5394950000000 1.0
C      1  0.4797150000000  0.4424220000000  0.4610710000000 1.0
C      1  0.4792590000000  0.4959330000000  0.5627450000000 1.0
C      1  0.4796740000000  0.5530450000000  0.4737890000000 1.0
C      1  0.4698250000000  0.4860220000000  0.4431540000000 1.0
C      1  0.4745250000000  0.4535780000000  0.5422340000000 1.0
C      1  0.4662150000000  0.5559700000000  0.5202820000000 1.0
END
