TITL C-2622954-8726-168 0.000226833081525268 125000 -170.654129724576 0 0 33 (S10) n - 1
REM
REM in /nfs/bkarasulu/CARBON/AIRSS/Generating-Clusters/AIREBO/with-SteepDescent/Higher-Symm/SD-CG/HFTN-CG
REM
REM
REM
REM
REM
REM ./C.cell (b20cbc046b6831c77cfcea5457e17084)
REM
REM compiler GCC version 9.2.1 20190827 (Red Hat 9.2.1-1)
REM options -cpp -mtune=generic -march=x86-64 -g -O0 -fpre-include=/usr/include/finclude/math-vector-fortran.h
REM seed 1266191659 -2005448286 1608793564 -35912531 818891338 -1195181256 -1491738574 2047134059 306657192 -66961928 74594800 -193205045 -368377067 821248375 1806092114 -1744604149 84139899 -1104571093 -241965812 -2026381333 771583895 -1641608916 -1857146224 -1901976880 1927240374 -1698225142 1614004485 1129676160 237324123 2012699480 -507964315 837659182 -2043982455
REM
CELL 1.54180   50.00000   50.00000   50.00000   90.00000   90.00000   90.00000
LATT -1
SFAC C  
C      1  0.4945310000000  0.4669870000000  0.5525480000000 1.0
C      1  0.5269250000000  0.5334470000000  0.5442970000000 1.0
C      1  0.5480730000000  0.4668910000000  0.5186590000000 1.0
C      1  0.5503210000000  0.5334010000000  0.4854090000000 1.0
C      1  0.5323880000000  0.4669140000000  0.4572660000000 1.0
C      1  0.5015460000000  0.5334840000000  0.4449600000000 1.0
C      1  0.4691520000000  0.4670240000000  0.4532110000000 1.0
C      1  0.4480040000000  0.5335800000000  0.4788490000000 1.0
C      1  0.4457560000000  0.4670700000000  0.5120990000000 1.0
C      1  0.4636890000000  0.5335570000000  0.5402430000000 1.0
C      1  0.4714670000000  0.4950250000000  0.4567880000000 1.0
C      1  0.4518910000000  0.5055690000000  0.4804150000000 1.0
C      1  0.4499090000000  0.4950670000000  0.5110490000000 1.0
C      1  0.4663440000000  0.5055480000000  0.5369850000000 1.0
C      1  0.4948510000000  0.4949910000000  0.5483190000000 1.0
C      1  0.5246100000000  0.5054460000000  0.5407200000000 1.0
C      1  0.5441860000000  0.4949020000000  0.5170930000000 1.0
C      1  0.5461680000000  0.5054040000000  0.4864600000000 1.0
C      1  0.5297330000000  0.4949230000000  0.4605240000000 1.0
C      1  0.5012250000000  0.5054800000000  0.4491890000000 1.0
C      1  0.4780920000000  0.5482830000000  0.5229050000000 1.0
C      1  0.4959460000000  0.4522310000000  0.5300730000000 1.0
C      1  0.5149050000000  0.5482180000000  0.5252650000000 1.0
C      1  0.5271160000000  0.4521750000000  0.5103440000000 1.0
C      1  0.5285250000000  0.5481910000000  0.4909830000000 1.0
C      1  0.5179850000000  0.4521890000000  0.4746040000000 1.0
C      1  0.5001310000000  0.5482400000000  0.4674360000000 1.0
C      1  0.4811720000000  0.4522530000000  0.4722440000000 1.0
C      1  0.4689610000000  0.5482960000000  0.4871640000000 1.0
C      1  0.4675520000000  0.4522800000000  0.5065250000000 1.0
C      1  0.4981000000000  0.5350460000000  0.4987520000000 1.0
C      1  0.4979770000000  0.4654250000000  0.4987570000000 1.0
C      1  0.4980380000000  0.5002360000000  0.4987540000000 1.0
END
