TITL C-2622958-629-11 -0.00341767375248887 125000 -981.839053000904 0 0 181 (C1) n - 1
REM
REM in /nfs/bkarasulu/CARBON/AIRSS/Generating-Clusters/AIREBO/with-SteepDescent/Higher-Symm/SD-CG/HFTN-CG
REM
REM
REM
REM
REM
REM ./C.cell (b20cbc046b6831c77cfcea5457e17084)
REM
REM compiler GCC version 9.2.1 20190827 (Red Hat 9.2.1-1)
REM options -cpp -mtune=generic -march=x86-64 -g -O0 -fpre-include=/usr/include/finclude/math-vector-fortran.h
REM seed 1831512087 -258368857 -641171939 -52414467 31111894 356691311 1941972424 -399599535 674091178 1756674020 -1873827702 -2067499240 454056919 1110238274 1705440234 -768947148 1406186096 1342588708 1444033381 1314239303 -844165893 -368427963 269371835 -1691584244 -1742586904 -1877454476 -501555672 340632282 -373419320 2064470268 663257507 -1113176016 -1913528512
REM
CELL 1.54180   50.00000   50.00000   50.00000   90.00000   90.00000   90.00000
LATT -1
SFAC C  
C      1  0.4027020000000  0.5119950000000  0.4712300000000 1.0
C      1  0.4504160000000  0.5152120000000  0.5822840000000 1.0
C      1  0.5664470000000  0.5086090000000  0.5756060000000 1.0
C      1  0.5825800000000  0.5130000000000  0.4681500000000 1.0
C      1  0.4924310000000  0.5187490000000  0.4045310000000 1.0
C      1  0.4147550000000  0.4839490000000  0.4761150000000 1.0
C      1  0.4481990000000  0.4877760000000  0.5850890000000 1.0
C      1  0.5603610000000  0.4819510000000  0.5731020000000 1.0
C      1  0.5878340000000  0.4864880000000  0.4681050000000 1.0
C      1  0.4924520000000  0.4912040000000  0.3992200000000 1.0
C      1  0.5334390000000  0.5535570000000  0.4015230000000 1.0
C      1  0.4186000000000  0.5530000000000  0.4386250000000 1.0
C      1  0.4274740000000  0.5565800000000  0.5511060000000 1.0
C      1  0.5317580000000  0.5544260000000  0.5878060000000 1.0
C      1  0.5933980000000  0.5546300000000  0.4977930000000 1.0
C      1  0.5202730000000  0.4493800000000  0.4086730000000 1.0
C      1  0.4300040000000  0.4388660000000  0.4499390000000 1.0
C      1  0.4233530000000  0.4463910000000  0.5570800000000 1.0
C      1  0.5351600000000  0.4398760000000  0.5883180000000 1.0
C      1  0.5936980000000  0.4460200000000  0.4990660000000 1.0
C      1  0.4269640000000  0.4760710000000  0.5717000000000 1.0
C      1  0.5415420000000  0.4717440000000  0.5897460000000 1.0
C      1  0.5919800000000  0.4769150000000  0.4929810000000 1.0
C      1  0.5174770000000  0.4790990000000  0.3960100000000 1.0
C      1  0.4180250000000  0.4688410000000  0.4508370000000 1.0
C      1  0.4320950000000  0.5266990000000  0.5621180000000 1.0
C      1  0.5460320000000  0.5256750000000  0.5872090000000 1.0
C      1  0.5855810000000  0.5246320000000  0.4936050000000 1.0
C      1  0.5179320000000  0.5296720000000  0.4064980000000 1.0
C      1  0.4025190000000  0.5338840000000  0.4532290000000 1.0
C      1  0.5538390000000  0.4536290000000  0.4028090000000 1.0
C      1  0.4332400000000  0.4531320000000  0.4187230000000 1.0
C      1  0.3951750000000  0.4572380000000  0.5403860000000 1.0
C      1  0.5128160000000  0.4531620000000  0.6102670000000 1.0
C      1  0.6032490000000  0.4526710000000  0.5314760000000 1.0
C      1  0.5612040000000  0.5444550000000  0.4106530000000 1.0
C      1  0.4327160000000  0.5428590000000  0.4138380000000 1.0
C      1  0.4002030000000  0.5421680000000  0.5364620000000 1.0
C      1  0.5077690000000  0.5466790000000  0.6110040000000 1.0
C      1  0.6028620000000  0.5389660000000  0.5265480000000 1.0
C      1  0.5116940000000  0.4947170000000  0.4728950000000 1.0
C      1  0.4793450000000  0.4842200000000  0.4730300000000 1.0
C      1  0.4698040000000  0.4833280000000  0.5056570000000 1.0
C      1  0.5094090000000  0.4911870000000  0.5353340000000 1.0
C      1  0.5355670000000  0.4792250000000  0.5171960000000 1.0
C      1  0.5284160000000  0.5166960000000  0.4613870000000 1.0
C      1  0.4744760000000  0.5126170000000  0.4622500000000 1.0
C      1  0.4632680000000  0.5108370000000  0.5212540000000 1.0
C      1  0.5011230000000  0.5132990000000  0.5518320000000 1.0
C      1  0.5316170000000  0.5113380000000  0.5093660000000 1.0
C      1  0.4583860000000  0.5547750000000  0.4416950000000 1.0
C      1  0.4341510000000  0.5377560000000  0.5162900000000 1.0
C      1  0.4955510000000  0.5475000000000  0.5733090000000 1.0
C      1  0.5644480000000  0.5491880000000  0.5246200000000 1.0
C      1  0.5363070000000  0.5518480000000  0.4409740000000 1.0
C      1  0.4618480000000  0.4623890000000  0.4448010000000 1.0
C      1  0.4294660000000  0.4599320000000  0.5202390000000 1.0
C      1  0.5021610000000  0.4575920000000  0.5751270000000 1.0
C      1  0.5671720000000  0.4448210000000  0.5281800000000 1.0
C      1  0.5426050000000  0.4566850000000  0.4405270000000 1.0
C      1  0.4753690000000  0.6110470000000  0.5143340000000 1.0
C      1  0.5048130000000  0.6097240000000  0.5240490000000 1.0
C      1  0.5232190000000  0.6020940000000  0.4994170000000 1.0
C      1  0.5069240000000  0.6059850000000  0.4697540000000 1.0
C      1  0.4752460000000  0.6086250000000  0.4818820000000 1.0
C      1  0.4748100000000  0.3898380000000  0.5147140000000 1.0
C      1  0.5039670000000  0.3974390000000  0.5249670000000 1.0
C      1  0.5248230000000  0.3975990000000  0.5002060000000 1.0
C      1  0.5089350000000  0.3926090000000  0.4730220000000 1.0
C      1  0.4776360000000  0.3892200000000  0.4832830000000 1.0
C      1  0.4944740000000  0.4286700000000  0.4541670000000 1.0
C      1  0.4456360000000  0.4234530000000  0.4928600000000 1.0
C      1  0.4726980000000  0.4253080000000  0.5503180000000 1.0
C      1  0.5344240000000  0.4242940000000  0.5353720000000 1.0
C      1  0.5546230000000  0.4199430000000  0.4718670000000 1.0
C      1  0.4931060000000  0.5740660000000  0.4462380000000 1.0
C      1  0.4508880000000  0.5723580000000  0.4909860000000 1.0
C      1  0.4755690000000  0.5732100000000  0.5461160000000 1.0
C      1  0.5373220000000  0.5755780000000  0.5374560000000 1.0
C      1  0.5496790000000  0.5802640000000  0.4734970000000 1.0
C      1  0.5115260000000  0.5435190000000  0.4736990000000 1.0
C      1  0.4820540000000  0.5475560000000  0.4889810000000 1.0
C      1  0.4808880000000  0.5365710000000  0.5161960000000 1.0
C      1  0.5109880000000  0.5370320000000  0.5320120000000 1.0
C      1  0.5267640000000  0.5418210000000  0.5022690000000 1.0
C      1  0.5119870000000  0.4615460000000  0.4687200000000 1.0
C      1  0.4833110000000  0.4527310000000  0.4838190000000 1.0
C      1  0.4751720000000  0.4594970000000  0.5278460000000 1.0
C      1  0.5050660000000  0.4610260000000  0.5355570000000 1.0
C      1  0.5354870000000  0.4594690000000  0.4932390000000 1.0
C      1  0.4928410000000  0.4810660000000  0.6060860000000 1.0
C      1  0.5868240000000  0.4809890000000  0.5408610000000 1.0
C      1  0.5685250000000  0.4790630000000  0.4203080000000 1.0
C      1  0.4450160000000  0.4843770000000  0.4162960000000 1.0
C      1  0.3963020000000  0.4884280000000  0.5317340000000 1.0
C      1  0.4988860000000  0.5143950000000  0.6126410000000 1.0
C      1  0.5912080000000  0.5147340000000  0.5410510000000 1.0
C      1  0.5634800000000  0.5127200000000  0.4227300000000 1.0
C      1  0.4467030000000  0.5170190000000  0.4174270000000 1.0
C      1  0.3982720000000  0.5159500000000  0.5232950000000 1.0
C      1  0.5548630000000  0.4696410000000  0.5435490000000 1.0
C      1  0.5727530000000  0.4672290000000  0.4512780000000 1.0
C      1  0.4779420000000  0.4769120000000  0.4203790000000 1.0
C      1  0.4392020000000  0.4728950000000  0.4950650000000 1.0
C      1  0.4737270000000  0.4722040000000  0.5793880000000 1.0
C      1  0.5635190000000  0.5295280000000  0.5515360000000 1.0
C      1  0.5588420000000  0.5294830000000  0.4531530000000 1.0
C      1  0.4754130000000  0.5269200000000  0.4327190000000 1.0
C      1  0.4213260000000  0.5161290000000  0.4981010000000 1.0
C      1  0.4720020000000  0.5278890000000  0.5620970000000 1.0
C      1  0.4486690000000  0.6001090000000  0.4624280000000 1.0
C      1  0.4483890000000  0.6139780000000  0.5351870000000 1.0
C      1  0.5108000000000  0.6047670000000  0.5515340000000 1.0
C      1  0.5567090000000  0.6059610000000  0.5038870000000 1.0
C      1  0.5204510000000  0.6019950000000  0.4387500000000 1.0
C      1  0.4517190000000  0.3930100000000  0.4633190000000 1.0
C      1  0.4496490000000  0.3974260000000  0.5266320000000 1.0
C      1  0.5163030000000  0.3957060000000  0.5565490000000 1.0
C      1  0.5577410000000  0.3916360000000  0.5063190000000 1.0
C      1  0.5181770000000  0.3974700000000  0.4461660000000 1.0
C      1  0.5661240000000  0.4359180000000  0.4274180000000 1.0
C      1  0.4606210000000  0.4382300000000  0.4224860000000 1.0
C      1  0.4035990000000  0.4399720000000  0.5148380000000 1.0
C      1  0.4934770000000  0.4318100000000  0.5934890000000 1.0
C      1  0.5881650000000  0.4264430000000  0.5470070000000 1.0
C      1  0.5659410000000  0.5654300000000  0.4313020000000 1.0
C      1  0.4543910000000  0.5668480000000  0.4101620000000 1.0
C      1  0.4123520000000  0.5617330000000  0.5145750000000 1.0
C      1  0.4857850000000  0.5664430000000  0.5992830000000 1.0
C      1  0.5901670000000  0.5654520000000  0.5398000000000 1.0
C      1  0.5359860000000  0.5465470000000  0.5547510000000 1.0
C      1  0.5686050000000  0.5544780000000  0.4740910000000 1.0
C      1  0.5033630000000  0.5441660000000  0.4406960000000 1.0
C      1  0.4547720000000  0.5460240000000  0.4713290000000 1.0
C      1  0.4576390000000  0.5466260000000  0.5388890000000 1.0
C      1  0.5297680000000  0.4506530000000  0.5564980000000 1.0
C      1  0.5655750000000  0.4501130000000  0.4797970000000 1.0
C      1  0.5006280000000  0.4565600000000  0.4356960000000 1.0
C      1  0.4507000000000  0.4512420000000  0.4739310000000 1.0
C      1  0.4565550000000  0.4543980000000  0.5560400000000 1.0
C      1  0.5701010000000  0.5854870000000  0.4491180000000 1.0
C      1  0.4761580000000  0.5839760000000  0.4212600000000 1.0
C      1  0.4206710000000  0.5784610000000  0.4949370000000 1.0
C      1  0.4737950000000  0.5808690000000  0.5766670000000 1.0
C      1  0.5672940000000  0.5820260000000  0.5471920000000 1.0
C      1  0.5709000000000  0.4158320000000  0.4450130000000 1.0
C      1  0.4818540000000  0.4222900000000  0.4256340000000 1.0
C      1  0.4150320000000  0.4195850000000  0.4999830000000 1.0
C      1  0.4780220000000  0.4148520000000  0.5794970000000 1.0
C      1  0.5620650000000  0.4114300000000  0.5489160000000 1.0
C      1  0.5206180000000  0.4883040000000  0.5928840000000 1.0
C      1  0.5789000000000  0.4905570000000  0.5127210000000 1.0
C      1  0.5357680000000  0.4839430000000  0.4213500000000 1.0
C      1  0.4434790000000  0.4913480000000  0.4495380000000 1.0
C      1  0.4256870000000  0.4827970000000  0.5410030000000 1.0
C      1  0.5129600000000  0.5196390000000  0.5821250000000 1.0
C      1  0.5617170000000  0.5172430000000  0.5135800000000 1.0
C      1  0.5309500000000  0.5139160000000  0.4293280000000 1.0
C      1  0.4420110000000  0.5174520000000  0.4711250000000 1.0
C      1  0.4364080000000  0.5104870000000  0.5363110000000 1.0
C      1  0.4683240000000  0.4309300000000  0.5170600000000 1.0
C      1  0.5019640000000  0.4283570000000  0.5385090000000 1.0
C      1  0.5413370000000  0.4275910000000  0.5022310000000 1.0
C      1  0.5257170000000  0.4309930000000  0.4656210000000 1.0
C      1  0.4761880000000  0.4208980000000  0.4781590000000 1.0
C      1  0.4615840000000  0.5812800000000  0.5175970000000 1.0
C      1  0.5043990000000  0.5674300000000  0.5398470000000 1.0
C      1  0.5377120000000  0.5710880000000  0.5039840000000 1.0
C      1  0.5191340000000  0.5754670000000  0.4682980000000 1.0
C      1  0.4795060000000  0.5771520000000  0.4732510000000 1.0
C      1  0.5223170000000  0.4142890000000  0.5720850000000 1.0
C      1  0.5740220000000  0.4193710000000  0.5067530000000 1.0
C      1  0.5276050000000  0.4272010000000  0.4325360000000 1.0
C      1  0.4337310000000  0.4084090000000  0.4557970000000 1.0
C      1  0.4378630000000  0.4289530000000  0.5316590000000 1.0
C      1  0.5136490000000  0.5760990000000  0.5696510000000 1.0
C      1  0.5709520000000  0.5775740000000  0.5070510000000 1.0
C      1  0.5254080000000  0.5786510000000  0.4231020000000 1.0
C      1  0.4363250000000  0.5769870000000  0.4540300000000 1.0
C      1  0.4378000000000  0.5849020000000  0.5416230000000 1.0
C      1  0.5017520000000  0.4957720000000  0.5039570000000 1.0
END
