TITL C-2622959-7779-718 0.000322807843971929 125000 -1079.71755158927 0 0 189 (C1) n - 1
REM
REM in /nfs/bkarasulu/CARBON/AIRSS/Generating-Clusters/AIREBO/with-SteepDescent/Higher-Symm/SD-CG/HFTN-CG
REM
REM
REM
REM
REM
REM ./C.cell (b20cbc046b6831c77cfcea5457e17084)
REM
REM compiler GCC version 9.2.1 20190827 (Red Hat 9.2.1-1)
REM options -cpp -mtune=generic -march=x86-64 -g -O0 -fpre-include=/usr/include/finclude/math-vector-fortran.h
REM seed 119998835 1571654610 -989474720 -1632699521 -856307280 -1392959597 -277608575 333405466 -1816153767 -1603840800 -1577672940 -646436442 -195650372 -1817789727 -620071339 -1761449228 -2098032315 1501609089 -490627454 453572262 -1839869875 1453037669 -808437995 214604076 2033151223 1872986008 1119934189 388017692 2138009750 1077571301 1133962383 1215009579 -607747030
REM
CELL 1.54180   50.00000   50.00000   50.00000   90.00000   90.00000   90.00000
LATT -1
SFAC C  
C      1  0.4388250000000  0.5037820000000  0.5882860000000 1.0
C      1  0.4095260000000  0.4923300000000  0.4336270000000 1.0
C      1  0.5674600000000  0.5045840000000  0.4164270000000 1.0
C      1  0.5857690000000  0.5031630000000  0.5651270000000 1.0
C      1  0.5658680000000  0.5016940000000  0.5927040000000 1.0
C      1  0.5891450000000  0.4992890000000  0.4402510000000 1.0
C      1  0.4343360000000  0.4925570000000  0.4147640000000 1.0
C      1  0.4176130000000  0.5000800000000  0.5664220000000 1.0
C      1  0.5051070000000  0.4472330000000  0.3867270000000 1.0
C      1  0.5949340000000  0.4502560000000  0.5079470000000 1.0
C      1  0.5006330000000  0.4522270000000  0.6006440000000 1.0
C      1  0.3979220000000  0.4452870000000  0.4990700000000 1.0
C      1  0.4961750000000  0.5470630000000  0.4022700000000 1.0
C      1  0.3943890000000  0.5470680000000  0.5029730000000 1.0
C      1  0.5013490000000  0.5543610000000  0.6055730000000 1.0
C      1  0.6064520000000  0.5486470000000  0.5002970000000 1.0
C      1  0.4641770000000  0.4603850000000  0.5607970000000 1.0
C      1  0.4389510000000  0.4594410000000  0.4574100000000 1.0
C      1  0.5341470000000  0.4667610000000  0.4371090000000 1.0
C      1  0.5756400000000  0.4553650000000  0.5329950000000 1.0
C      1  0.5345750000000  0.5366140000000  0.5677220000000 1.0
C      1  0.5694910000000  0.5388620000000  0.4644710000000 1.0
C      1  0.4672030000000  0.5384400000000  0.4344080000000 1.0
C      1  0.4304350000000  0.5362880000000  0.5318590000000 1.0
C      1  0.5025690000000  0.4677330000000  0.4463610000000 1.0
C      1  0.5562630000000  0.4728830000000  0.5170620000000 1.0
C      1  0.4953400000000  0.4654890000000  0.5633800000000 1.0
C      1  0.4371210000000  0.4610050000000  0.4896060000000 1.0
C      1  0.4954990000000  0.5259580000000  0.4426720000000 1.0
C      1  0.4327860000000  0.5306930000000  0.4998490000000 1.0
C      1  0.5035030000000  0.5278430000000  0.5587990000000 1.0
C      1  0.5697920000000  0.5330590000000  0.4951620000000 1.0
C      1  0.5929850000000  0.5313380000000  0.5593700000000 1.0
C      1  0.4566250000000  0.5284750000000  0.5901480000000 1.0
C      1  0.4057980000000  0.5170590000000  0.4449110000000 1.0
C      1  0.5691910000000  0.5340510000000  0.4055060000000 1.0
C      1  0.4043170000000  0.4715520000000  0.5684220000000 1.0
C      1  0.5714190000000  0.4711790000000  0.5838630000000 1.0
C      1  0.5929230000000  0.4709260000000  0.4445710000000 1.0
C      1  0.4322240000000  0.4671710000000  0.3961730000000 1.0
C      1  0.4787960000000  0.4329590000000  0.4977130000000 1.0
C      1  0.4994480000000  0.4349340000000  0.4732350000000 1.0
C      1  0.5181170000000  0.4391390000000  0.4983540000000 1.0
C      1  0.4970750000000  0.4467680000000  0.5219250000000 1.0
C      1  0.5276050000000  0.5593680000000  0.5047710000000 1.0
C      1  0.5047170000000  0.5600580000000  0.4818750000000 1.0
C      1  0.4772100000000  0.5591710000000  0.4987370000000 1.0
C      1  0.5009690000000  0.5583580000000  0.5214110000000 1.0
C      1  0.4503380000000  0.4144300000000  0.5613080000000 1.0
C      1  0.4368760000000  0.4253860000000  0.4584890000000 1.0
C      1  0.5424850000000  0.4183870000000  0.4454310000000 1.0
C      1  0.5624690000000  0.4256750000000  0.5411750000000 1.0
C      1  0.5492020000000  0.5843590000000  0.5597140000000 1.0
C      1  0.5597340000000  0.5859830000000  0.4541250000000 1.0
C      1  0.4484830000000  0.5848320000000  0.4487420000000 1.0
C      1  0.4393130000000  0.5839340000000  0.5416400000000 1.0
C      1  0.5133200000000  0.4756560000000  0.3841490000000 1.0
C      1  0.6117210000000  0.4763930000000  0.5071920000000 1.0
C      1  0.4812600000000  0.4761010000000  0.6006940000000 1.0
C      1  0.3966840000000  0.4685990000000  0.4803070000000 1.0
C      1  0.4803490000000  0.5235910000000  0.3997610000000 1.0
C      1  0.3952640000000  0.5224530000000  0.5189510000000 1.0
C      1  0.5170420000000  0.5295890000000  0.6055110000000 1.0
C      1  0.6071300000000  0.5257820000000  0.4832700000000 1.0
C      1  0.5085490000000  0.3854370000000  0.4837820000000 1.0
C      1  0.5173620000000  0.3876160000000  0.5162940000000 1.0
C      1  0.4841560000000  0.3887540000000  0.5150660000000 1.0
C      1  0.4750640000000  0.3835850000000  0.4830340000000 1.0
C      1  0.4863370000000  0.6037340000000  0.4802370000000 1.0
C      1  0.4850670000000  0.6114200000000  0.5134300000000 1.0
C      1  0.5150390000000  0.6145400000000  0.5228760000000 1.0
C      1  0.5180980000000  0.6094720000000  0.4910540000000 1.0
C      1  0.4917280000000  0.5700260000000  0.4190730000000 1.0
C      1  0.5893470000000  0.5710670000000  0.4939890000000 1.0
C      1  0.5087550000000  0.5738150000000  0.5861320000000 1.0
C      1  0.4168490000000  0.5705920000000  0.4930470000000 1.0
C      1  0.5012840000000  0.4289110000000  0.4146350000000 1.0
C      1  0.4084920000000  0.4187830000000  0.4952400000000 1.0
C      1  0.4937120000000  0.4309740000000  0.5835990000000 1.0
C      1  0.5811170000000  0.4226120000000  0.4936710000000 1.0
C      1  0.4626260000000  0.5071560000000  0.4880520000000 1.0
C      1  0.5089270000000  0.5086430000000  0.4761320000000 1.0
C      1  0.5474050000000  0.5052740000000  0.5117250000000 1.0
C      1  0.4750020000000  0.5006400000000  0.5450370000000 1.0
C      1  0.5397960000000  0.5011420000000  0.4799050000000 1.0
C      1  0.4812250000000  0.4969440000000  0.4628010000000 1.0
C      1  0.4583110000000  0.4971750000000  0.5155930000000 1.0
C      1  0.5083030000000  0.4974930000000  0.5443920000000 1.0
C      1  0.5284270000000  0.4345980000000  0.4290260000000 1.0
C      1  0.5835510000000  0.4150200000000  0.5229530000000 1.0
C      1  0.4672380000000  0.4328700000000  0.5745620000000 1.0
C      1  0.4139700000000  0.4139430000000  0.4679640000000 1.0
C      1  0.4654720000000  0.5713210000000  0.4318080000000 1.0
C      1  0.4229880000000  0.5670140000000  0.5249530000000 1.0
C      1  0.5346130000000  0.5677650000000  0.5765330000000 1.0
C      1  0.5787350000000  0.5696000000000  0.4671080000000 1.0
C      1  0.4009240000000  0.5474640000000  0.4517020000000 1.0
C      1  0.5480470000000  0.5513140000000  0.4082610000000 1.0
C      1  0.5996790000000  0.5620710000000  0.5530340000000 1.0
C      1  0.4517020000000  0.5592950000000  0.5896570000000 1.0
C      1  0.5960110000000  0.4402000000000  0.4493440000000 1.0
C      1  0.4512510000000  0.4481000000000  0.3938980000000 1.0
C      1  0.4079890000000  0.4503680000000  0.5520950000000 1.0
C      1  0.5510500000000  0.4519360000000  0.5867100000000 1.0
C      1  0.5522650000000  0.4074540000000  0.4825600000000 1.0
C      1  0.5123690000000  0.4218340000000  0.5608380000000 1.0
C      1  0.4343300000000  0.4133970000000  0.5127010000000 1.0
C      1  0.4831840000000  0.4073840000000  0.4348170000000 1.0
C      1  0.4386450000000  0.5943530000000  0.4932590000000 1.0
C      1  0.4883230000000  0.5845690000000  0.5631410000000 1.0
C      1  0.5713200000000  0.5831230000000  0.5133710000000 1.0
C      1  0.5125040000000  0.5796980000000  0.4359970000000 1.0
C      1  0.4654030000000  0.4897180000000  0.5735400000000 1.0
C      1  0.4416890000000  0.4923270000000  0.4657350000000 1.0
C      1  0.5377880000000  0.5002530000000  0.4324680000000 1.0
C      1  0.5608940000000  0.5029840000000  0.5428550000000 1.0
C      1  0.5353710000000  0.5030960000000  0.5615360000000 1.0
C      1  0.5600080000000  0.5082180000000  0.4553280000000 1.0
C      1  0.4577060000000  0.4935480000000  0.4379200000000 1.0
C      1  0.4349470000000  0.5035220000000  0.5396590000000 1.0
C      1  0.5344170000000  0.4642650000000  0.4942510000000 1.0
C      1  0.5134640000000  0.4763460000000  0.5182680000000 1.0
C      1  0.4649850000000  0.4601490000000  0.5026150000000 1.0
C      1  0.4843830000000  0.4653630000000  0.4750050000000 1.0
C      1  0.4596350000000  0.5389550000000  0.4867330000000 1.0
C      1  0.4877380000000  0.5278750000000  0.5286720000000 1.0
C      1  0.5458010000000  0.5384620000000  0.5152530000000 1.0
C      1  0.5140390000000  0.5378330000000  0.4648210000000 1.0
C      1  0.5919430000000  0.4608060000000  0.4764560000000 1.0
C      1  0.5287340000000  0.4616050000000  0.5997130000000 1.0
C      1  0.4063360000000  0.4562120000000  0.5236540000000 1.0
C      1  0.4784190000000  0.4592090000000  0.3943460000000 1.0
C      1  0.3899680000000  0.5337900000000  0.4771670000000 1.0
C      1  0.4736520000000  0.5536590000000  0.6111800000000 1.0
C      1  0.6077750000000  0.5401080000000  0.5303350000000 1.0
C      1  0.5243430000000  0.5394780000000  0.4017160000000 1.0
C      1  0.5043340000000  0.5842490000000  0.4632580000000 1.0
C      1  0.5413950000000  0.5868940000000  0.5021720000000 1.0
C      1  0.5047150000000  0.5849990000000  0.5363910000000 1.0
C      1  0.4642550000000  0.5858870000000  0.5083800000000 1.0
C      1  0.5028640000000  0.4087370000000  0.4596830000000 1.0
C      1  0.4594290000000  0.4114090000000  0.4933590000000 1.0
C      1  0.4937530000000  0.4160210000000  0.5329710000000 1.0
C      1  0.5331720000000  0.4146140000000  0.5046290000000 1.0
C      1  0.5865850000000  0.4699910000000  0.5576630000000 1.0
C      1  0.4494140000000  0.4823710000000  0.6090500000000 1.0
C      1  0.4080450000000  0.4705850000000  0.4527310000000 1.0
C      1  0.5569990000000  0.4725480000000  0.4118890000000 1.0
C      1  0.4028520000000  0.5249140000000  0.5484830000000 1.0
C      1  0.5461560000000  0.5216530000000  0.5959790000000 1.0
C      1  0.5994640000000  0.5259480000000  0.4547480000000 1.0
C      1  0.4521400000000  0.5211720000000  0.4102540000000 1.0
C      1  0.4333200000000  0.4317030000000  0.5399230000000 1.0
C      1  0.4673320000000  0.4280160000000  0.4163140000000 1.0
C      1  0.5667820000000  0.4323120000000  0.4643860000000 1.0
C      1  0.5412860000000  0.4398810000000  0.5607470000000 1.0
C      1  0.5723980000000  0.5722190000000  0.5434770000000 1.0
C      1  0.5429330000000  0.5699260000000  0.4322680000000 1.0
C      1  0.4245970000000  0.5648260000000  0.4603850000000 1.0
C      1  0.4601420000000  0.5680000000000  0.5623820000000 1.0
C      1  0.4507440000000  0.4587290000000  0.5334600000000 1.0
C      1  0.4586710000000  0.4539750000000  0.4326210000000 1.0
C      1  0.5505830000000  0.4615640000000  0.4664570000000 1.0
C      1  0.5229300000000  0.4601880000000  0.5466570000000 1.0
C      1  0.5532700000000  0.5463220000000  0.5427670000000 1.0
C      1  0.5403610000000  0.5467830000000  0.4538640000000 1.0
C      1  0.4504960000000  0.5465890000000  0.4593760000000 1.0
C      1  0.4605220000000  0.5436820000000  0.5415830000000 1.0
C      1  0.4567900000000  0.6013690000000  0.4702340000000 1.0
C      1  0.5411430000000  0.5973600000000  0.4710410000000 1.0
C      1  0.5334970000000  0.5985960000000  0.5430680000000 1.0
C      1  0.4679070000000  0.5995580000000  0.5396750000000 1.0
C      1  0.5323000000000  0.3913040000000  0.4603130000000 1.0
C      1  0.4629930000000  0.4056720000000  0.4600360000000 1.0
C      1  0.4614510000000  0.4045640000000  0.5326290000000 1.0
C      1  0.5332420000000  0.4088330000000  0.5373650000000 1.0
C      1  0.4171190000000  0.5133110000000  0.4773730000000 1.0
C      1  0.5143930000000  0.5155250000000  0.4204180000000 1.0
C      1  0.5831760000000  0.5191200000000  0.5225760000000 1.0
C      1  0.4850420000000  0.5234250000000  0.5823230000000 1.0
C      1  0.5682610000000  0.4834260000000  0.4856080000000 1.0
C      1  0.4824160000000  0.4758890000000  0.4232120000000 1.0
C      1  0.4293840000000  0.4793040000000  0.5164520000000 1.0
C      1  0.5152650000000  0.4840010000000  0.5812860000000 1.0
C      1  0.5942490000000  0.5015990000000  0.4978910000000 1.0
C      1  0.4992500000000  0.5035420000000  0.6009450000000 1.0
C      1  0.4032650000000  0.4947910000000  0.5011350000000 1.0
C      1  0.4974350000000  0.4966410000000  0.4026320000000 1.0
C      1  0.5024540000000  0.5062720000000  0.5063950000000 1.0
END
