TITL C-2622966-9038-689 0.000388132984800993 125000 -786.332321298975 0 0 149 (C1) n - 1
REM
REM in /nfs/bkarasulu/CARBON/AIRSS/Generating-Clusters/AIREBO/with-SteepDescent/Higher-Symm/SD-CG/HFTN-CG
REM
REM
REM
REM
REM
REM ./C.cell (b20cbc046b6831c77cfcea5457e17084)
REM
REM compiler GCC version 9.2.1 20190827 (Red Hat 9.2.1-1)
REM options -cpp -mtune=generic -march=x86-64 -g -O0 -fpre-include=/usr/include/finclude/math-vector-fortran.h
REM seed 488651399 529540831 -361385439 -122771794 -1289549650 815556820 272378142 -518350672 102827413 -1592691363 1769674870 -1378728203 1975437577 1550713841 1545549010 -2006664418 948507924 1158962187 -1110922288 1933513618 -2132116798 1731431789 719569956 -1746176807 2090433498 1427802076 1115303608 -1978177589 -195752072 372232770 -1080275109 -285042514 1415721054
REM
CELL 1.54180   50.00000   50.00000   50.00000   90.00000   90.00000   90.00000
LATT -1
SFAC C  
C      1  0.5364190000000  0.5184850000000  0.5788810000000 1.0
C      1  0.4097930000000  0.5217700000000  0.4900450000000 1.0
C      1  0.5495540000000  0.5145340000000  0.4114690000000 1.0
C      1  0.5884110000000  0.5056750000000  0.4473800000000 1.0
C      1  0.4979480000000  0.4965030000000  0.6002460000000 1.0
C      1  0.4170290000000  0.4920290000000  0.4505560000000 1.0
C      1  0.5991110000000  0.5097630000000  0.5165950000000 1.0
C      1  0.4503150000000  0.5193480000000  0.5768130000000 1.0
C      1  0.4722800000000  0.5208920000000  0.4173520000000 1.0
C      1  0.4754190000000  0.5415830000000  0.5519220000000 1.0
C      1  0.4435370000000  0.5656730000000  0.4519520000000 1.0
C      1  0.5578860000000  0.5470630000000  0.4971470000000 1.0
C      1  0.3818160000000  0.5045110000000  0.5509440000000 1.0
C      1  0.5148930000000  0.4919080000000  0.3712570000000 1.0
C      1  0.5986060000000  0.4822600000000  0.5751480000000 1.0
C      1  0.5350870000000  0.5426010000000  0.5220300000000 1.0
C      1  0.4530750000000  0.5506910000000  0.5274110000000 1.0
C      1  0.5066230000000  0.5442500000000  0.4544440000000 1.0
C      1  0.4310970000000  0.4849050000000  0.5506220000000 1.0
C      1  0.4857160000000  0.4714590000000  0.4079400000000 1.0
C      1  0.5795860000000  0.4788420000000  0.5277190000000 1.0
C      1  0.4494200000000  0.4093300000000  0.5169750000000 1.0
C      1  0.5104190000000  0.3942780000000  0.4562010000000 1.0
C      1  0.5368310000000  0.4095740000000  0.5216440000000 1.0
C      1  0.4812230000000  0.6003620000000  0.4880440000000 1.0
C      1  0.5120650000000  0.5980080000000  0.4927450000000 1.0
C      1  0.4926860000000  0.5999530000000  0.5174130000000 1.0
C      1  0.5465770000000  0.4286850000000  0.4327840000000 1.0
C      1  0.5288100000000  0.4370110000000  0.5787900000000 1.0
C      1  0.4318710000000  0.4439370000000  0.4840770000000 1.0
C      1  0.5213500000000  0.3832580000000  0.5066700000000 1.0
C      1  0.4914150000000  0.4220230000000  0.5366670000000 1.0
C      1  0.4944740000000  0.3980500000000  0.4957730000000 1.0
C      1  0.5232220000000  0.5497720000000  0.5810930000000 1.0
C      1  0.3981720000000  0.5350360000000  0.4669190000000 1.0
C      1  0.5401260000000  0.5394270000000  0.4178350000000 1.0
C      1  0.4346380000000  0.4525570000000  0.4557190000000 1.0
C      1  0.5740940000000  0.4425120000000  0.4480970000000 1.0
C      1  0.5001030000000  0.4452030000000  0.5848140000000 1.0
C      1  0.4274880000000  0.5570430000000  0.5488920000000 1.0
C      1  0.4958300000000  0.5526460000000  0.4233140000000 1.0
C      1  0.5694370000000  0.5658530000000  0.5532400000000 1.0
C      1  0.4272930000000  0.4614860000000  0.5057080000000 1.0
C      1  0.5255020000000  0.4426730000000  0.4192330000000 1.0
C      1  0.5483500000000  0.4485840000000  0.5635100000000 1.0
C      1  0.5554930000000  0.5020070000000  0.4694170000000 1.0
C      1  0.4957220000000  0.4932780000000  0.5493920000000 1.0
C      1  0.4574680000000  0.5107110000000  0.4666390000000 1.0
C      1  0.5125740000000  0.4724220000000  0.5703040000000 1.0
C      1  0.4473240000000  0.4788370000000  0.4727490000000 1.0
C      1  0.5567190000000  0.4713610000000  0.4547110000000 1.0
C      1  0.4885470000000  0.4969910000000  0.4270510000000 1.0
C      1  0.5656170000000  0.5057500000000  0.5123280000000 1.0
C      1  0.4577250000000  0.5059150000000  0.5481760000000 1.0
C      1  0.4888110000000  0.3996230000000  0.4400830000000 1.0
C      1  0.5649020000000  0.4208280000000  0.5202840000000 1.0
C      1  0.4381960000000  0.4233000000000  0.5387800000000 1.0
C      1  0.4768010000000  0.4284830000000  0.4334480000000 1.0
C      1  0.5676440000000  0.4493720000000  0.5037850000000 1.0
C      1  0.4586980000000  0.4457420000000  0.5539300000000 1.0
C      1  0.4818300000000  0.5126380000000  0.5251240000000 1.0
C      1  0.4869360000000  0.5170240000000  0.4543420000000 1.0
C      1  0.5351450000000  0.5148030000000  0.5032840000000 1.0
C      1  0.5784140000000  0.4841990000000  0.5588290000000 1.0
C      1  0.4051350000000  0.4994700000000  0.5416700000000 1.0
C      1  0.5108890000000  0.4853450000000  0.3960510000000 1.0
C      1  0.4385180000000  0.5505460000000  0.5778980000000 1.0
C      1  0.4648330000000  0.5591580000000  0.4262380000000 1.0
C      1  0.5884200000000  0.5542310000000  0.5279060000000 1.0
C      1  0.5395200000000  0.5746210000000  0.5271160000000 1.0
C      1  0.4575400000000  0.5838040000000  0.5273210000000 1.0
C      1  0.4983350000000  0.5755640000000  0.4618210000000 1.0
C      1  0.5292420000000  0.4181100000000  0.4600740000000 1.0
C      1  0.5263040000000  0.4405090000000  0.5313670000000 1.0
C      1  0.4564290000000  0.4281250000000  0.4920840000000 1.0
C      1  0.5550670000000  0.5765690000000  0.4804680000000 1.0
C      1  0.4994470000000  0.5639320000000  0.5609050000000 1.0
C      1  0.4450340000000  0.5922690000000  0.4730840000000 1.0
C      1  0.5300810000000  0.5850790000000  0.4590230000000 1.0
C      1  0.5232640000000  0.5845380000000  0.5480830000000 1.0
C      1  0.4452760000000  0.5962670000000  0.5050480000000 1.0
C      1  0.5167520000000  0.5507250000000  0.4057880000000 1.0
C      1  0.5527820000000  0.5625150000000  0.5735010000000 1.0
C      1  0.4149370000000  0.5614680000000  0.5226680000000 1.0
C      1  0.5228300000000  0.4955400000000  0.5289840000000 1.0
C      1  0.4584970000000  0.5143290000000  0.5004410000000 1.0
C      1  0.5101520000000  0.4944150000000  0.4536920000000 1.0
C      1  0.5735950000000  0.5977660000000  0.4966690000000 1.0
C      1  0.4769810000000  0.5838720000000  0.5747250000000 1.0
C      1  0.4602850000000  0.6042770000000  0.4475170000000 1.0
C      1  0.5128310000000  0.4664720000000  0.4383860000000 1.0
C      1  0.5381830000000  0.4711450000000  0.5401900000000 1.0
C      1  0.4499120000000  0.4849860000000  0.5153340000000 1.0
C      1  0.4402460000000  0.5391550000000  0.4711810000000 1.0
C      1  0.5554120000000  0.5334310000000  0.4661760000000 1.0
C      1  0.5028590000000  0.5243020000000  0.5579200000000 1.0
C      1  0.4471060000000  0.4856520000000  0.5806150000000 1.0
C      1  0.4563380000000  0.4742570000000  0.4206060000000 1.0
C      1  0.5921480000000  0.4809820000000  0.4961370000000 1.0
C      1  0.4320110000000  0.4568560000000  0.5372550000000 1.0
C      1  0.4954710000000  0.4425350000000  0.4117490000000 1.0
C      1  0.5706900000000  0.4484220000000  0.5378790000000 1.0
C      1  0.5493110000000  0.4894930000000  0.5666410000000 1.0
C      1  0.4191410000000  0.4994340000000  0.5139610000000 1.0
C      1  0.5308610000000  0.4885810000000  0.4198020000000 1.0
C      1  0.4704800000000  0.5710890000000  0.4808340000000 1.0
C      1  0.5264290000000  0.5714160000000  0.4959830000000 1.0
C      1  0.4890740000000  0.5711940000000  0.5293390000000 1.0
C      1  0.4984120000000  0.4535740000000  0.5457960000000 1.0
C      1  0.4690200000000  0.4560370000000  0.4755940000000 1.0
C      1  0.5486350000000  0.4419220000000  0.4696840000000 1.0
C      1  0.4711850000000  0.5447430000000  0.5855090000000 1.0
C      1  0.4456340000000  0.5320930000000  0.4305780000000 1.0
C      1  0.5901060000000  0.5368060000000  0.4987430000000 1.0
C      1  0.5012390000000  0.4937200000000  0.5044690000000 1.0
C      1  0.4916590000000  0.4681150000000  0.4943130000000 1.0
C      1  0.5254610000000  0.4912810000000  0.4807210000000 1.0
C      1  0.5853330000000  0.4552900000000  0.4775720000000 1.0
C      1  0.4702310000000  0.4598030000000  0.5776300000000 1.0
C      1  0.4500410000000  0.4485420000000  0.4329240000000 1.0
C      1  0.5406620000000  0.4653040000000  0.4907510000000 1.0
C      1  0.4705710000000  0.4607760000000  0.5274220000000 1.0
C      1  0.4917500000000  0.4462710000000  0.4558330000000 1.0
C      1  0.5181340000000  0.3748470000000  0.4738830000000 1.0
C      1  0.5106750000000  0.4031080000000  0.5396230000000 1.0
C      1  0.4687430000000  0.3914760000000  0.5021060000000 1.0
C      1  0.5628580000000  0.4926590000000  0.4313570000000 1.0
C      1  0.5263330000000  0.4909170000000  0.5921420000000 1.0
C      1  0.4182720000000  0.4917270000000  0.4812070000000 1.0
C      1  0.5701170000000  0.5817370000000  0.5237490000000 1.0
C      1  0.4521940000000  0.5772300000000  0.5606480000000 1.0
C      1  0.4784740000000  0.5848550000000  0.4394600000000 1.0
C      1  0.5865600000000  0.5095980000000  0.4786440000000 1.0
C      1  0.4790110000000  0.4919100000000  0.5789850000000 1.0
C      1  0.4451470000000  0.4993060000000  0.4370440000000 1.0
C      1  0.6103650000000  0.5523000000000  0.4838370000000 1.0
C      1  0.4953140000000  0.5505130000000  0.5983300000000 1.0
C      1  0.4176840000000  0.5445240000000  0.4455870000000 1.0
C      1  0.5041830000000  0.4272040000000  0.4811950000000 1.0
C      1  0.5244780000000  0.4417630000000  0.5014380000000 1.0
C      1  0.4846370000000  0.4374070000000  0.5071110000000 1.0
C      1  0.5208740000000  0.5397130000000  0.4849820000000 1.0
C      1  0.5011320000000  0.5405040000000  0.5210240000000 1.0
C      1  0.4691890000000  0.5465070000000  0.4977620000000 1.0
C      1  0.5329390000000  0.5286630000000  0.5489490000000 1.0
C      1  0.4298230000000  0.5435330000000  0.5032550000000 1.0
C      1  0.5386110000000  0.5432520000000  0.4457220000000 1.0
C      1  0.5218160000000  0.3605130000000  0.5231700000000 1.0
C      1  0.4932490000000  0.5282170000000  0.4903160000000 1.0
END
