TITL C-2622965-4321-246 0.00121495319926129 125000 -136.314430650847 0 0 28 (C3) n - 1
REM
REM in /nfs/bkarasulu/CARBON/AIRSS/Generating-Clusters/AIREBO/with-SteepDescent/Higher-Symm/SD-CG/HFTN-CG
REM
REM
REM
REM
REM
REM ./C.cell (b20cbc046b6831c77cfcea5457e17084)
REM
REM compiler GCC version 9.2.1 20190827 (Red Hat 9.2.1-1)
REM options -cpp -mtune=generic -march=x86-64 -g -O0 -fpre-include=/usr/include/finclude/math-vector-fortran.h
REM seed -1050026511 -1630653643 -1802047673 -1228716763 -1073073500 752109041 1708605434 1131149174 -928751702 -104046856 1965448296 -2104012742 -1923053121 676490459 -278064316 -1327346687 1484700713 1530415011 1443284622 251726448 -1708198942 -790401134 2088295231 1591400295 70201935 -78498296 -1286209693 -1734128897 -1207934080 697773711 -644747725 895701827 -712380977
REM
CELL 1.54180   50.00000   50.00000   50.00000   90.00000   90.00000   90.00000
LATT -1
SFAC C  
C      1  0.5318630000000  0.5037750000000  0.5297870000000 1.0
C      1  0.4814260000000  0.5254230000000  0.5297890000000 1.0
C      1  0.4878970000000  0.4709190000000  0.5297880000000 1.0
C      1  0.4717280000000  0.5394820000000  0.4644910000000 1.0
C      1  0.4805670000000  0.4554950000000  0.4644900000000 1.0
C      1  0.5488830000000  0.5051430000000  0.4644880000000 1.0
C      1  0.4503590000000  0.5394150000000  0.4877800000000 1.0
C      1  0.4913100000000  0.4370210000000  0.4877770000000 1.0
C      1  0.5595110000000  0.5236830000000  0.4877750000000 1.0
C      1  0.4966310000000  0.4688920000000  0.4984750000000 1.0
C      1  0.5292500000000  0.5123550000000  0.4984750000000 1.0
C      1  0.4753010000000  0.5188720000000  0.4984770000000 1.0
C      1  0.4590140000000  0.4666880000000  0.4856060000000 1.0
C      1  0.5499670000000  0.4808800000000  0.4856020000000 1.0
C      1  0.4921990000000  0.5525510000000  0.4856050000000 1.0
C      1  0.4787730000000  0.4919230000000  0.4808720000000 1.0
C      1  0.5182320000000  0.4853740000000  0.4808700000000 1.0
C      1  0.5041740000000  0.5228220000000  0.4808710000000 1.0
C      1  0.4753050000000  0.5121560000000  0.4555460000000 1.0
C      1  0.5024430000000  0.4722550000000  0.4555450000000 1.0
C      1  0.5234290000000  0.5157080000000  0.4555440000000 1.0
C      1  0.4668540000000  0.5278460000000  0.5531920000000 1.0
C      1  0.4930850000000  0.4570870000000  0.5531900000000 1.0
C      1  0.5412490000000  0.5151830000000  0.5531880000000 1.0
C      1  0.4870610000000  0.5542840000000  0.5127720000000 1.0
C      1  0.4600840000000  0.4613700000000  0.5127720000000 1.0
C      1  0.5540390000000  0.4844640000000  0.5127680000000 1.0
C      1  0.5003950000000  0.5000390000000  0.5284470000000 1.0
END
