TITL C-2622957-9142-409 -0.00359070251908209 125000 -645.602205980793 0 0 116 (C1) n - 1
REM
REM in /nfs/bkarasulu/CARBON/AIRSS/Generating-Clusters/AIREBO/with-SteepDescent/Higher-Symm/SD-CG/HFTN-CG
REM
REM
REM
REM
REM
REM ./C.cell (b20cbc046b6831c77cfcea5457e17084)
REM
REM compiler GCC version 9.2.1 20190827 (Red Hat 9.2.1-1)
REM options -cpp -mtune=generic -march=x86-64 -g -O0 -fpre-include=/usr/include/finclude/math-vector-fortran.h
REM seed -1193035053 1212372 -1176795920 -671863295 -2058777570 -908769166 -1579744498 122922601 752120570 -1860506752 -1371411724 -1167985029 1418176793 -1229790663 -136053788 702917454 465865818 -309483271 139730254 1211506179 1540268061 -769334395 -357427532 -1548721511 1316150143 633224078 -1655117972 1032525943 1330190607 -472443413 1370090189 1717257161 764827793
REM
CELL 1.54180   50.00000   50.00000   50.00000   90.00000   90.00000   90.00000
LATT -1
SFAC C  
C      1  0.5787360000000  0.4883880000000  0.5145010000000 1.0
C      1  0.4801190000000  0.5760780000000  0.5043260000000 1.0
C      1  0.4457750000000  0.4483860000000  0.4989760000000 1.0
C      1  0.5418090000000  0.5886310000000  0.4665700000000 1.0
C      1  0.4008550000000  0.4834930000000  0.4701870000000 1.0
C      1  0.5536120000000  0.4233410000000  0.4631870000000 1.0
C      1  0.4532450000000  0.5428570000000  0.5518490000000 1.0
C      1  0.4836870000000  0.4323000000000  0.5502300000000 1.0
C      1  0.5643550000000  0.5192240000000  0.5564670000000 1.0
C      1  0.4721020000000  0.4735610000000  0.5771350000000 1.0
C      1  0.5342440000000  0.4784390000000  0.5806380000000 1.0
C      1  0.5019030000000  0.5412270000000  0.5771070000000 1.0
C      1  0.4687250000000  0.5294680000000  0.5286430000000 1.0
C      1  0.4879530000000  0.4525710000000  0.5272470000000 1.0
C      1  0.5412520000000  0.5181790000000  0.5361640000000 1.0
C      1  0.4522460000000  0.5280990000000  0.4989340000000 1.0
C      1  0.5039640000000  0.4576190000000  0.4806920000000 1.0
C      1  0.5425940000000  0.5295710000000  0.5041550000000 1.0
C      1  0.4718360000000  0.5012180000000  0.4918710000000 1.0
C      1  0.5026430000000  0.4876350000000  0.4966470000000 1.0
C      1  0.5102840000000  0.5207350000000  0.4983200000000 1.0
C      1  0.4289850000000  0.5048640000000  0.5076170000000 1.0
C      1  0.5575600000000  0.4433330000000  0.5078050000000 1.0
C      1  0.5351090000000  0.5623110000000  0.5097430000000 1.0
C      1  0.4783050000000  0.4611050000000  0.4318420000000 1.0
C      1  0.5552990000000  0.4938460000000  0.4662000000000 1.0
C      1  0.4640100000000  0.5348490000000  0.4384610000000 1.0
C      1  0.4532280000000  0.4439070000000  0.4259190000000 1.0
C      1  0.5602770000000  0.4839880000000  0.4348620000000 1.0
C      1  0.4812070000000  0.5579370000000  0.4219660000000 1.0
C      1  0.5263590000000  0.4918270000000  0.5206590000000 1.0
C      1  0.4979240000000  0.5371290000000  0.5233150000000 1.0
C      1  0.4676470000000  0.4772710000000  0.5156830000000 1.0
C      1  0.5052740000000  0.4728820000000  0.4198970000000 1.0
C      1  0.5192130000000  0.5196800000000  0.4247160000000 1.0
C      1  0.4711340000000  0.5065040000000  0.4255060000000 1.0
C      1  0.4990280000000  0.4240440000000  0.4781850000000 1.0
C      1  0.5661950000000  0.5378470000000  0.4811060000000 1.0
C      1  0.4285380000000  0.5417860000000  0.4787530000000 1.0
C      1  0.5819200000000  0.5232370000000  0.4613330000000 1.0
C      1  0.4355190000000  0.5599160000000  0.4507010000000 1.0
C      1  0.4700010000000  0.4166620000000  0.4645550000000 1.0
C      1  0.4472790000000  0.4910390000000  0.4121850000000 1.0
C      1  0.5145420000000  0.4416420000000  0.4239490000000 1.0
C      1  0.5316860000000  0.5405940000000  0.4009880000000 1.0
C      1  0.4773670000000  0.5597470000000  0.5677660000000 1.0
C      1  0.4580620000000  0.4446930000000  0.5664890000000 1.0
C      1  0.5641860000000  0.4891480000000  0.5722800000000 1.0
C      1  0.5735000000000  0.5150480000000  0.4307800000000 1.0
C      1  0.4482820000000  0.5660560000000  0.4192620000000 1.0
C      1  0.4575530000000  0.4176360000000  0.4366300000000 1.0
C      1  0.5354780000000  0.5409790000000  0.5825770000000 1.0
C      1  0.4568800000000  0.5028030000000  0.5743820000000 1.0
C      1  0.5191640000000  0.4492270000000  0.5790380000000 1.0
C      1  0.4346400000000  0.5259360000000  0.4498890000000 1.0
C      1  0.5077730000000  0.4329740000000  0.4487050000000 1.0
C      1  0.5398400000000  0.5488370000000  0.4692190000000 1.0
C      1  0.5298780000000  0.4288670000000  0.5579350000000 1.0
C      1  0.5492510000000  0.5594430000000  0.5615310000000 1.0
C      1  0.4337180000000  0.5059520000000  0.5531350000000 1.0
C      1  0.5985000000000  0.4536630000000  0.5718340000000 1.0
C      1  0.4868260000000  0.6077480000000  0.5572660000000 1.0
C      1  0.4119900000000  0.4318750000000  0.5548860000000 1.0
C      1  0.5837280000000  0.5583380000000  0.5264840000000 1.0
C      1  0.4065840000000  0.5396790000000  0.5252820000000 1.0
C      1  0.5124860000000  0.4024380000000  0.5216280000000 1.0
C      1  0.4869160000000  0.5146300000000  0.5637010000000 1.0
C      1  0.5008490000000  0.4693530000000  0.5606950000000 1.0
C      1  0.5257870000000  0.5101520000000  0.5719990000000 1.0
C      1  0.4881680000000  0.5823190000000  0.5519540000000 1.0
C      1  0.4344320000000  0.4438970000000  0.5496470000000 1.0
C      1  0.5806620000000  0.4679080000000  0.5588060000000 1.0
C      1  0.5270180000000  0.4665660000000  0.4616430000000 1.0
C      1  0.5077760000000  0.5451400000000  0.4616260000000 1.0
C      1  0.4453000000000  0.4966740000000  0.4542470000000 1.0
C      1  0.4862410000000  0.4426780000000  0.5853720000000 1.0
C      1  0.5592420000000  0.5176570000000  0.5901420000000 1.0
C      1  0.4603500000000  0.5351940000000  0.5842050000000 1.0
C      1  0.4044710000000  0.5036110000000  0.4895920000000 1.0
C      1  0.5467320000000  0.4202070000000  0.4903250000000 1.0
C      1  0.5516140000000  0.5806220000000  0.4904250000000 1.0
C      1  0.5740320000000  0.5620970000000  0.5006560000000 1.0
C      1  0.4041850000000  0.5342110000000  0.4972190000000 1.0
C      1  0.5202730000000  0.4111430000000  0.4958960000000 1.0
C      1  0.5262790000000  0.4988520000000  0.4506660000000 1.0
C      1  0.5047880000000  0.5145220000000  0.4667460000000 1.0
C      1  0.4769030000000  0.5031820000000  0.4589690000000 1.0
C      1  0.4352840000000  0.4683630000000  0.4255150000000 1.0
C      1  0.5384060000000  0.4658600000000  0.4233430000000 1.0
C      1  0.5108980000000  0.5530430000000  0.4226230000000 1.0
C      1  0.5533130000000  0.4975710000000  0.4999390000000 1.0
C      1  0.4695570000000  0.5552280000000  0.4899970000000 1.0
C      1  0.4740730000000  0.4619080000000  0.4858700000000 1.0
C      1  0.4481760000000  0.4360780000000  0.4707940000000 1.0
C      1  0.5906130000000  0.4936070000000  0.4484740000000 1.0
C      1  0.4646450000000  0.5768570000000  0.4461350000000 1.0
C      1  0.4578360000000  0.4663920000000  0.4584840000000 1.0
C      1  0.5496810000000  0.4663820000000  0.4868940000000 1.0
C      1  0.4793410000000  0.5529660000000  0.4621700000000 1.0
C      1  0.5039100000000  0.5700840000000  0.5253040000000 1.0
C      1  0.4395820000000  0.4610910000000  0.5260350000000 1.0
C      1  0.5740940000000  0.4630260000000  0.5301120000000 1.0
C      1  0.5174630000000  0.5347340000000  0.5478100000000 1.0
C      1  0.4713990000000  0.4994440000000  0.5375230000000 1.0
C      1  0.5180380000000  0.4613540000000  0.5323580000000 1.0
C      1  0.5426640000000  0.4445070000000  0.5355550000000 1.0
C      1  0.5332580000000  0.5710820000000  0.5424560000000 1.0
C      1  0.4329750000000  0.4905300000000  0.5305630000000 1.0
C      1  0.4238890000000  0.5336080000000  0.5467580000000 1.0
C      1  0.5078010000000  0.4143480000000  0.5468780000000 1.0
C      1  0.5736670000000  0.5483050000000  0.5505000000000 1.0
C      1  0.5263980000000  0.5687740000000  0.4457440000000 1.0
C      1  0.4200130000000  0.4767110000000  0.4506930000000 1.0
C      1  0.5462540000000  0.4437620000000  0.4479630000000 1.0
C      1  0.4980930000000  0.5006700000000  0.4136790000000 1.0
C      1  0.5090140000000  0.4960450000000  0.5493320000000 1.0
END
