TITL C-2622956-4641-290 0.00269706666840695 125000 -551.662911750926 0 0 106 (C1) n - 1
REM
REM in /nfs/bkarasulu/CARBON/AIRSS/Generating-Clusters/AIREBO/with-SteepDescent/Higher-Symm/SD-CG/HFTN-CG
REM
REM
REM
REM
REM
REM ./C.cell (b20cbc046b6831c77cfcea5457e17084)
REM
REM compiler GCC version 9.2.1 20190827 (Red Hat 9.2.1-1)
REM options -cpp -mtune=generic -march=x86-64 -g -O0 -fpre-include=/usr/include/finclude/math-vector-fortran.h
REM seed -966532246 1109712835 -123469804 -1458000850 752697971 -181678994 825280786 -297433783 -150164269 -1245099655 116510216 1278021063 -1823130645 -1805652979 1287380434 -786662379 1429957323 352707325 961355877 -2098972559 640612257 -409823019 1577900684 -577174197 -572484439 1052723304 -924178942 -515388190 1042238838 1848626982 1823287516 -1773993964 1771480598
REM
CELL 1.54180   50.00000   50.00000   50.00000   90.00000   90.00000   90.00000
LATT -1
SFAC C  
C      1  0.5570520000000  0.4284470000000  0.5028210000000 1.0
C      1  0.5189940000000  0.4179190000000  0.5390490000000 1.0
C      1  0.4597950000000  0.4040920000000  0.5280270000000 1.0
C      1  0.4553720000000  0.4140810000000  0.4631210000000 1.0
C      1  0.5069930000000  0.4086250000000  0.4499890000000 1.0
C      1  0.4163950000000  0.5121560000000  0.4684770000000 1.0
C      1  0.5126890000000  0.5009110000000  0.4141850000000 1.0
C      1  0.6014640000000  0.5164510000000  0.4760860000000 1.0
C      1  0.5500560000000  0.5108690000000  0.5811210000000 1.0
C      1  0.4350580000000  0.5099490000000  0.5700390000000 1.0
C      1  0.4750260000000  0.5423740000000  0.5659950000000 1.0
C      1  0.4428140000000  0.5456110000000  0.4929880000000 1.0
C      1  0.4855980000000  0.5443040000000  0.4298520000000 1.0
C      1  0.5689370000000  0.5523450000000  0.4528550000000 1.0
C      1  0.5582660000000  0.5463960000000  0.5427810000000 1.0
C      1  0.5101810000000  0.4783260000000  0.5278770000000 1.0
C      1  0.4789020000000  0.4769430000000  0.5330670000000 1.0
C      1  0.4625510000000  0.4804950000000  0.5053040000000 1.0
C      1  0.5062290000000  0.4837210000000  0.4683610000000 1.0
C      1  0.5229060000000  0.4865400000000  0.4974330000000 1.0
C      1  0.5260130000000  0.4671400000000  0.5531120000000 1.0
C      1  0.4569890000000  0.4600460000000  0.5479940000000 1.0
C      1  0.4507100000000  0.4579130000000  0.4887080000000 1.0
C      1  0.5062530000000  0.4592170000000  0.4457640000000 1.0
C      1  0.5445470000000  0.4639690000000  0.4907080000000 1.0
C      1  0.4932070000000  0.5280320000000  0.5901730000000 1.0
C      1  0.4094140000000  0.5210730000000  0.5276110000000 1.0
C      1  0.4554950000000  0.5297210000000  0.4220670000000 1.0
C      1  0.5623710000000  0.5311570000000  0.4268980000000 1.0
C      1  0.5862050000000  0.5291760000000  0.5313590000000 1.0
C      1  0.5418940000000  0.5621680000000  0.4688720000000 1.0
C      1  0.5282520000000  0.5665340000000  0.5263280000000 1.0
C      1  0.4799170000000  0.5790530000000  0.5430950000000 1.0
C      1  0.4602560000000  0.5882510000000  0.5070650000000 1.0
C      1  0.4878060000000  0.5783670000000  0.4556650000000 1.0
C      1  0.4305300000000  0.4804650000000  0.5542620000000 1.0
C      1  0.4272590000000  0.4881980000000  0.4469320000000 1.0
C      1  0.5267660000000  0.4706470000000  0.4206660000000 1.0
C      1  0.5910340000000  0.4934740000000  0.4981600000000 1.0
C      1  0.5337650000000  0.4810760000000  0.5828900000000 1.0
C      1  0.4396370000000  0.5260690000000  0.4479180000000 1.0
C      1  0.5328620000000  0.5220770000000  0.4281760000000 1.0
C      1  0.5844170000000  0.5326870000000  0.4995300000000 1.0
C      1  0.5220950000000  0.5248010000000  0.5749090000000 1.0
C      1  0.4293660000000  0.5355890000000  0.5496820000000 1.0
C      1  0.4175200000000  0.4616490000000  0.4893530000000 1.0
C      1  0.4760980000000  0.4643530000000  0.4309190000000 1.0
C      1  0.5614350000000  0.4716850000000  0.4660900000000 1.0
C      1  0.5572560000000  0.4721620000000  0.5522650000000 1.0
C      1  0.4565220000000  0.4657140000000  0.5804310000000 1.0
C      1  0.4496350000000  0.5027280000000  0.4048340000000 1.0
C      1  0.5664460000000  0.4978240000000  0.4218350000000 1.0
C      1  0.5986730000000  0.4976490000000  0.5367310000000 1.0
C      1  0.4913010000000  0.4956630000000  0.5978490000000 1.0
C      1  0.4143560000000  0.4872730000000  0.5297450000000 1.0
C      1  0.4571660000000  0.4319340000000  0.5371650000000 1.0
C      1  0.4369520000000  0.4335280000000  0.4694160000000 1.0
C      1  0.5140850000000  0.4287380000000  0.4324330000000 1.0
C      1  0.5694710000000  0.4533890000000  0.5126510000000 1.0
C      1  0.5196680000000  0.4373180000000  0.5577730000000 1.0
C      1  0.4294360000000  0.4818360000000  0.5883180000000 1.0
C      1  0.4075860000000  0.4792990000000  0.4703430000000 1.0
C      1  0.4968810000000  0.4706290000000  0.4082650000000 1.0
C      1  0.5900230000000  0.4851370000000  0.4669290000000 1.0
C      1  0.5670470000000  0.4805250000000  0.5836540000000 1.0
C      1  0.4552080000000  0.5572040000000  0.5447350000000 1.0
C      1  0.4519810000000  0.5453880000000  0.4674050000000 1.0
C      1  0.5164230000000  0.5437740000000  0.4442790000000 1.0
C      1  0.5691660000000  0.5568310000000  0.4870170000000 1.0
C      1  0.5249810000000  0.5459850000000  0.5509470000000 1.0
C      1  0.5027830000000  0.4357160000000  0.4701010000000 1.0
C      1  0.5259570000000  0.4354680000000  0.4921810000000 1.0
C      1  0.5087890000000  0.4205140000000  0.5142030000000 1.0
C      1  0.4805170000000  0.4211600000000  0.5103100000000 1.0
C      1  0.4741510000000  0.4336180000000  0.4836610000000 1.0
C      1  0.4819600000000  0.5473240000000  0.4635270000000 1.0
C      1  0.5189030000000  0.5429650000000  0.4781960000000 1.0
C      1  0.5476720000000  0.5476660000000  0.5104900000000 1.0
C      1  0.4942430000000  0.5497360000000  0.5404710000000 1.0
C      1  0.4649720000000  0.5586040000000  0.5121890000000 1.0
C      1  0.5651740000000  0.4955820000000  0.5355630000000 1.0
C      1  0.4795650000000  0.4869080000000  0.5671610000000 1.0
C      1  0.4395430000000  0.4998520000000  0.5135470000000 1.0
C      1  0.4646340000000  0.4924810000000  0.4336020000000 1.0
C      1  0.5559800000000  0.5001090000000  0.4522660000000 1.0
C      1  0.5905020000000  0.4701340000000  0.5183450000000 1.0
C      1  0.5131620000000  0.4809420000000  0.6048950000000 1.0
C      1  0.4054450000000  0.4630060000000  0.5137180000000 1.0
C      1  0.4288970000000  0.4857280000000  0.4169780000000 1.0
C      1  0.5552440000000  0.4758550000000  0.4099150000000 1.0
C      1  0.4729350000000  0.5089210000000  0.4908870000000 1.0
C      1  0.4934600000000  0.5153470000000  0.4657760000000 1.0
C      1  0.5310750000000  0.5196960000000  0.5005480000000 1.0
C      1  0.5083110000000  0.5121230000000  0.5246460000000 1.0
C      1  0.4801140000000  0.5286640000000  0.5178130000000 1.0
C      1  0.4638430000000  0.5151330000000  0.5762660000000 1.0
C      1  0.4233120000000  0.5227360000000  0.4966650000000 1.0
C      1  0.4853010000000  0.5135990000000  0.4192540000000 1.0
C      1  0.5807050000000  0.5217750000000  0.4539230000000 1.0
C      1  0.5661700000000  0.5186710000000  0.5567460000000 1.0
C      1  0.5623710000000  0.5081500000000  0.5071260000000 1.0
C      1  0.5051700000000  0.5061810000000  0.5557910000000 1.0
C      1  0.4528790000000  0.5192920000000  0.5328020000000 1.0
C      1  0.4545650000000  0.5007670000000  0.4638550000000 1.0
C      1  0.5251710000000  0.5070300000000  0.4567340000000 1.0
C      1  0.4935080000000  0.5574940000000  0.4937200000000 1.0
END
