TITL C-2622966-9038-313 -0.0031929895997477 125000 -517.967588056057 0 0 93 (C1) n - 1
REM
REM in /nfs/bkarasulu/CARBON/AIRSS/Generating-Clusters/AIREBO/with-SteepDescent/Higher-Symm/SD-CG/HFTN-CG
REM
REM
REM
REM
REM
REM ./C.cell (b20cbc046b6831c77cfcea5457e17084)
REM
REM compiler GCC version 9.2.1 20190827 (Red Hat 9.2.1-1)
REM options -cpp -mtune=generic -march=x86-64 -g -O0 -fpre-include=/usr/include/finclude/math-vector-fortran.h
REM seed -1389279896 -1123799955 1899765680 -1200727885 276409744 -188703944 -821872148 1070036088 429836666 -1387005474 1754237468 782672393 939270594 1218412128 -1874651867 2108663600 1306372728 -1960090230 -1175243442 65788767 -1387124452 -1934214527 2113760533 217830977 1065885566 -262522399 -18132176 519820512 1324598705 -1497749605 1309670585 -769287264 -884070529
REM
CELL 1.54180   50.00000   50.00000   50.00000   90.00000   90.00000   90.00000
LATT -1
SFAC C  
C      1  0.4608680000000  0.4253030000000  0.5129770000000 1.0
C      1  0.5394810000000  0.5779050000000  0.5167280000000 1.0
C      1  0.4073040000000  0.5434800000000  0.5296580000000 1.0
C      1  0.5914370000000  0.4568120000000  0.5266050000000 1.0
C      1  0.5120510000000  0.5847040000000  0.5216570000000 1.0
C      1  0.4873980000000  0.4169360000000  0.5197030000000 1.0
C      1  0.5027590000000  0.4729350000000  0.4794690000000 1.0
C      1  0.4907710000000  0.5292620000000  0.4776370000000 1.0
C      1  0.5303470000000  0.5622420000000  0.4412640000000 1.0
C      1  0.4706850000000  0.4367650000000  0.4380590000000 1.0
C      1  0.4719630000000  0.5272900000000  0.4395950000000 1.0
C      1  0.5254820000000  0.4711380000000  0.4411050000000 1.0
C      1  0.5012510000000  0.4283780000000  0.5426010000000 1.0
C      1  0.4989930000000  0.5736800000000  0.5453700000000 1.0
C      1  0.4541460000000  0.4351050000000  0.4831780000000 1.0
C      1  0.5466480000000  0.5669350000000  0.4869240000000 1.0
C      1  0.5513300000000  0.4201810000000  0.4915070000000 1.0
C      1  0.4502300000000  0.5720430000000  0.4906530000000 1.0
C      1  0.5864350000000  0.5037000000000  0.4973930000000 1.0
C      1  0.4148630000000  0.4973070000000  0.4971330000000 1.0
C      1  0.4543630000000  0.5628100000000  0.4441160000000 1.0
C      1  0.5449550000000  0.4276620000000  0.4437480000000 1.0
C      1  0.4651520000000  0.4220330000000  0.4611040000000 1.0
C      1  0.5355090000000  0.5779890000000  0.4637800000000 1.0
C      1  0.5224960000000  0.4409550000000  0.4315760000000 1.0
C      1  0.4805690000000  0.5581110000000  0.4307790000000 1.0
C      1  0.4454740000000  0.5161940000000  0.5259360000000 1.0
C      1  0.5519860000000  0.4823800000000  0.5247650000000 1.0
C      1  0.5158250000000  0.5968080000000  0.4710010000000 1.0
C      1  0.4845370000000  0.4036360000000  0.4696410000000 1.0
C      1  0.5406600000000  0.4658230000000  0.4692320000000 1.0
C      1  0.4589570000000  0.5185330000000  0.4697670000000 1.0
C      1  0.5513030000000  0.4392000000000  0.4698090000000 1.0
C      1  0.4512930000000  0.5518260000000  0.4703430000000 1.0
C      1  0.4925680000000  0.4743250000000  0.4490210000000 1.0
C      1  0.5041690000000  0.5297010000000  0.4463830000000 1.0
C      1  0.5540740000000  0.4498780000000  0.5586190000000 1.0
C      1  0.4461630000000  0.5503320000000  0.5601650000000 1.0
C      1  0.5728210000000  0.4386140000000  0.5377710000000 1.0
C      1  0.4273640000000  0.5611400000000  0.5390640000000 1.0
C      1  0.4809380000000  0.5460360000000  0.5231280000000 1.0
C      1  0.5196020000000  0.4567900000000  0.5214030000000 1.0
C      1  0.4694370000000  0.4614410000000  0.4983050000000 1.0
C      1  0.5307960000000  0.5414780000000  0.5029510000000 1.0
C      1  0.4971010000000  0.5863440000000  0.4933770000000 1.0
C      1  0.5026990000000  0.4144090000000  0.4923770000000 1.0
C      1  0.4542470000000  0.4876220000000  0.5138060000000 1.0
C      1  0.5399170000000  0.5102330000000  0.5128270000000 1.0
C      1  0.4900940000000  0.4541640000000  0.5590860000000 1.0
C      1  0.5102570000000  0.5462520000000  0.5616900000000 1.0
C      1  0.5751580000000  0.5075280000000  0.4713870000000 1.0
C      1  0.4269190000000  0.4978850000000  0.4708490000000 1.0
C      1  0.4923940000000  0.5094870000000  0.5965320000000 1.0
C      1  0.5074840000000  0.4893680000000  0.5956400000000 1.0
C      1  0.5193490000000  0.5075120000000  0.5362710000000 1.0
C      1  0.4787160000000  0.4954510000000  0.5330710000000 1.0
C      1  0.4632730000000  0.4657250000000  0.4404720000000 1.0
C      1  0.5370300000000  0.5323260000000  0.4441910000000 1.0
C      1  0.5716120000000  0.5174140000000  0.5228420000000 1.0
C      1  0.4232640000000  0.4832580000000  0.5271140000000 1.0
C      1  0.5457160000000  0.5527100000000  0.5316480000000 1.0
C      1  0.4556010000000  0.4502070000000  0.5274680000000 1.0
C      1  0.5300730000000  0.4020700000000  0.4887210000000 1.0
C      1  0.4685400000000  0.5930410000000  0.4856430000000 1.0
C      1  0.5397570000000  0.5373990000000  0.5542340000000 1.0
C      1  0.4617290000000  0.4636520000000  0.5506970000000 1.0
C      1  0.4185580000000  0.5213800000000  0.5167210000000 1.0
C      1  0.5789350000000  0.4790480000000  0.5149320000000 1.0
C      1  0.5065400000000  0.5664340000000  0.4265660000000 1.0
C      1  0.4960870000000  0.4329580000000  0.4255750000000 1.0
C      1  0.5633380000000  0.5110030000000  0.4472870000000 1.0
C      1  0.4381630000000  0.4875830000000  0.4474510000000 1.0
C      1  0.5235690000000  0.5202950000000  0.4778790000000 1.0
C      1  0.4770300000000  0.4919220000000  0.4813250000000 1.0
C      1  0.4665550000000  0.5689310000000  0.5404920000000 1.0
C      1  0.5332140000000  0.4331380000000  0.5376200000000 1.0
C      1  0.4658240000000  0.4974950000000  0.4301720000000 1.0
C      1  0.5348850000000  0.5011870000000  0.4307070000000 1.0
C      1  0.5173240000000  0.4746570000000  0.5722860000000 1.0
C      1  0.4826590000000  0.5258840000000  0.5743540000000 1.0
C      1  0.5577220000000  0.4229160000000  0.5181660000000 1.0
C      1  0.4428510000000  0.5730770000000  0.5171680000000 1.0
C      1  0.5059980000000  0.4776420000000  0.5403650000000 1.0
C      1  0.4927900000000  0.5250150000000  0.5420840000000 1.0
C      1  0.5560180000000  0.5135010000000  0.5506570000000 1.0
C      1  0.4449510000000  0.4866290000000  0.5526070000000 1.0
C      1  0.4992960000000  0.5538740000000  0.4996660000000 1.0
C      1  0.5006290000000  0.4478710000000  0.4982050000000 1.0
C      1  0.5469420000000  0.4813660000000  0.5569820000000 1.0
C      1  0.4539520000000  0.5191530000000  0.5573780000000 1.0
C      1  0.5282620000000  0.4906000000000  0.4871990000000 1.0
C      1  0.4858860000000  0.5105030000000  0.5055750000000 1.0
C      1  0.5003460000000  0.5003830000000  0.4318190000000 1.0
END
