TITL C-2622962-9663-870 0.00256580714166466 125000 -592.886654494262 0 0 113 (C1) n - 1
REM
REM in /nfs/bkarasulu/CARBON/AIRSS/Generating-Clusters/AIREBO/with-SteepDescent/Higher-Symm/SD-CG/HFTN-CG
REM
REM
REM
REM
REM
REM ./C.cell (b20cbc046b6831c77cfcea5457e17084)
REM
REM compiler GCC version 9.2.1 20190827 (Red Hat 9.2.1-1)
REM options -cpp -mtune=generic -march=x86-64 -g -O0 -fpre-include=/usr/include/finclude/math-vector-fortran.h
REM seed -1798934441 -122323053 2017712598 1816278965 -1227731913 303922647 -1482661920 -422975885 2044577425 515103833 1467411650 1590799346 -551956521 -1996095083 752456565 280461630 1299963158 498270610 845107764 -682950237 183740430 1312243696 -1838628431 1311612292 1377513855 1052640564 767739789 -796515171 -1088661822 1522678451 -1749063614 -2143104669 -655355238
REM
CELL 1.54180   50.00000   50.00000   50.00000   90.00000   90.00000   90.00000
LATT -1
SFAC C  
C      1  0.5881310000000  0.4666960000000  0.5198600000000 1.0
C      1  0.5545740000000  0.5722320000000  0.5176920000000 1.0
C      1  0.4530650000000  0.5820030000000  0.5214530000000 1.0
C      1  0.4143550000000  0.4742240000000  0.5230680000000 1.0
C      1  0.4875970000000  0.4083620000000  0.5243140000000 1.0
C      1  0.5026310000000  0.4461920000000  0.5923580000000 1.0
C      1  0.5356980000000  0.4974120000000  0.5858570000000 1.0
C      1  0.5163230000000  0.5428940000000  0.5802920000000 1.0
C      1  0.4696890000000  0.5343150000000  0.5869110000000 1.0
C      1  0.4513680000000  0.4749840000000  0.5900180000000 1.0
C      1  0.4944030000000  0.4278360000000  0.5500130000000 1.0
C      1  0.5813190000000  0.4712650000000  0.5510520000000 1.0
C      1  0.5490500000000  0.5696330000000  0.5490410000000 1.0
C      1  0.4588040000000  0.5703510000000  0.5521300000000 1.0
C      1  0.4271070000000  0.4739500000000  0.5525450000000 1.0
C      1  0.5308670000000  0.4935400000000  0.5212730000000 1.0
C      1  0.5096250000000  0.5293100000000  0.5246270000000 1.0
C      1  0.4669910000000  0.5118510000000  0.5185990000000 1.0
C      1  0.4807800000000  0.4809880000000  0.5148790000000 1.0
C      1  0.5112690000000  0.4660330000000  0.5169770000000 1.0
C      1  0.4249170000000  0.5845060000000  0.4801880000000 1.0
C      1  0.4045780000000  0.4552180000000  0.4773280000000 1.0
C      1  0.5203970000000  0.3938000000000  0.4778190000000 1.0
C      1  0.6080870000000  0.4694130000000  0.4756640000000 1.0
C      1  0.5622130000000  0.5897920000000  0.4738970000000 1.0
C      1  0.5606430000000  0.5453240000000  0.5566110000000 1.0
C      1  0.4781800000000  0.5947490000000  0.5498440000000 1.0
C      1  0.4294980000000  0.5000170000000  0.5617200000000 1.0
C      1  0.4611350000000  0.4203250000000  0.5526560000000 1.0
C      1  0.5581030000000  0.4551060000000  0.5557550000000 1.0
C      1  0.4443730000000  0.5513850000000  0.5283810000000 1.0
C      1  0.4443950000000  0.4603380000000  0.5273780000000 1.0
C      1  0.5193040000000  0.4200790000000  0.5282010000000 1.0
C      1  0.5808390000000  0.4977240000000  0.5296750000000 1.0
C      1  0.5231690000000  0.5764800000000  0.5279650000000 1.0
C      1  0.4841230000000  0.4771480000000  0.4085990000000 1.0
C      1  0.5175040000000  0.4806990000000  0.4053880000000 1.0
C      1  0.5233580000000  0.5133490000000  0.4070350000000 1.0
C      1  0.4946000000000  0.5293790000000  0.4097480000000 1.0
C      1  0.4700130000000  0.5067600000000  0.4094700000000 1.0
C      1  0.5014060000000  0.4063630000000  0.4951930000000 1.0
C      1  0.5968350000000  0.4522310000000  0.4932360000000 1.0
C      1  0.5736530000000  0.5741280000000  0.4927850000000 1.0
C      1  0.4475290000000  0.5926620000000  0.4920230000000 1.0
C      1  0.4069060000000  0.4770770000000  0.4924530000000 1.0
C      1  0.5547520000000  0.5374900000000  0.4472720000000 1.0
C      1  0.4738230000000  0.5665680000000  0.4438450000000 1.0
C      1  0.4311340000000  0.5010860000000  0.4456650000000 1.0
C      1  0.4787760000000  0.4379920000000  0.4445720000000 1.0
C      1  0.5545900000000  0.4588200000000  0.4424650000000 1.0
C      1  0.5644730000000  0.5245140000000  0.5304220000000 1.0
C      1  0.4912390000000  0.5726010000000  0.5287010000000 1.0
C      1  0.4323660000000  0.5206290000000  0.5365000000000 1.0
C      1  0.4715600000000  0.4443670000000  0.5309820000000 1.0
C      1  0.5444490000000  0.4419000000000  0.5274640000000 1.0
C      1  0.4893820000000  0.5457020000000  0.5722670000000 1.0
C      1  0.4673180000000  0.5034110000000  0.5809660000000 1.0
C      1  0.4806700000000  0.4661070000000  0.5761490000000 1.0
C      1  0.5203010000000  0.4704780000000  0.5770490000000 1.0
C      1  0.5307760000000  0.5201260000000  0.5721600000000 1.0
C      1  0.5034850000000  0.4689750000000  0.4340740000000 1.0
C      1  0.5352950000000  0.4928410000000  0.4314830000000 1.0
C      1  0.5151450000000  0.5268520000000  0.4367840000000 1.0
C      1  0.4754020000000  0.5260970000000  0.4369240000000 1.0
C      1  0.4680480000000  0.4869870000000  0.4370600000000 1.0
C      1  0.5343990000000  0.5185480000000  0.5429100000000 1.0
C      1  0.4852720000000  0.5425480000000  0.5410690000000 1.0
C      1  0.4631820000000  0.5184910000000  0.5507700000000 1.0
C      1  0.4813060000000  0.4723020000000  0.5477530000000 1.0
C      1  0.5268540000000  0.4633650000000  0.5471130000000 1.0
C      1  0.4451700000000  0.5367530000000  0.4761700000000 1.0
C      1  0.4433140000000  0.4591010000000  0.4683470000000 1.0
C      1  0.5228760000000  0.4422040000000  0.4693940000000 1.0
C      1  0.5635870000000  0.4977460000000  0.4769610000000 1.0
C      1  0.5196070000000  0.5582760000000  0.4756770000000 1.0
C      1  0.5345360000000  0.5887080000000  0.4729130000000 1.0
C      1  0.4189420000000  0.5576060000000  0.4788580000000 1.0
C      1  0.4231600000000  0.4326250000000  0.4694490000000 1.0
C      1  0.5358760000000  0.4109260000000  0.4664330000000 1.0
C      1  0.5974110000000  0.4949380000000  0.4748560000000 1.0
C      1  0.4596700000000  0.4554440000000  0.4320280000000 1.0
C      1  0.5307900000000  0.4498620000000  0.4309450000000 1.0
C      1  0.5607670000000  0.5135490000000  0.4330930000000 1.0
C      1  0.5026030000000  0.5581690000000  0.4372580000000 1.0
C      1  0.4424280000000  0.5235340000000  0.4330290000000 1.0
C      1  0.5638270000000  0.4511400000000  0.5022460000000 1.0
C      1  0.5636360000000  0.5431360000000  0.5033360000000 1.0
C      1  0.4777200000000  0.5781400000000  0.4983550000000 1.0
C      1  0.4224180000000  0.5034240000000  0.5087530000000 1.0
C      1  0.4759810000000  0.4295330000000  0.5003750000000 1.0
C      1  0.4524430000000  0.4722040000000  0.4982020000000 1.0
C      1  0.5143100000000  0.4400350000000  0.5015100000000 1.0
C      1  0.5579040000000  0.4907380000000  0.5077900000000 1.0
C      1  0.5214870000000  0.5516970000000  0.5072140000000 1.0
C      1  0.4554540000000  0.5324430000000  0.5062820000000 1.0
C      1  0.4627560000000  0.4870080000000  0.4683060000000 1.0
C      1  0.4993630000000  0.4663080000000  0.4646250000000 1.0
C      1  0.5347640000000  0.4870290000000  0.4624270000000 1.0
C      1  0.5222200000000  0.5254800000000  0.4670500000000 1.0
C      1  0.4770890000000  0.5338560000000  0.4660400000000 1.0
C      1  0.4740140000000  0.4462130000000  0.4752990000000 1.0
C      1  0.5504110000000  0.4600420000000  0.4760210000000 1.0
C      1  0.5542790000000  0.5287820000000  0.4782080000000 1.0
C      1  0.4887180000000  0.5637130000000  0.4742770000000 1.0
C      1  0.4353400000000  0.5048860000000  0.4775480000000 1.0
C      1  0.5063440000000  0.4302520000000  0.4421720000000 1.0
C      1  0.5712140000000  0.4850110000000  0.4463530000000 1.0
C      1  0.5355230000000  0.5596100000000  0.4456410000000 1.0
C      1  0.4477580000000  0.5529470000000  0.4463590000000 1.0
C      1  0.4312180000000  0.4725870000000  0.4395730000000 1.0
C      1  0.5070890000000  0.4975380000000  0.4740800000000 1.0
C      1  0.5003380000000  0.4987550000000  0.5362990000000 1.0
C      1  0.4970190000000  0.4906310000000  0.5915650000000 1.0
END
