TITL C-2622960-5345-407 0.00421682672189577 125000 -805.23249632092 0 0 150 (C1) n - 1
REM
REM in /nfs/bkarasulu/CARBON/AIRSS/Generating-Clusters/AIREBO/with-SteepDescent/Higher-Symm/SD-CG/HFTN-CG
REM
REM
REM
REM
REM
REM ./C.cell (b20cbc046b6831c77cfcea5457e17084)
REM
REM compiler GCC version 9.2.1 20190827 (Red Hat 9.2.1-1)
REM options -cpp -mtune=generic -march=x86-64 -g -O0 -fpre-include=/usr/include/finclude/math-vector-fortran.h
REM seed 21467075 1924709977 -1256760081 -1294224508 -1488913441 -1926149863 454963670 -627757134 -331446933 -871033222 1666505326 198198649 38448330 -316280703 -182827281 210793422 235278117 1166235865 -2016057623 860645750 1306625968 -1202061358 -23621204 1563135281 1506540978 -1857806683 1826757752 -395092779 1276776296 -1071679567 884440866 -1837091334 -2007174370
REM
CELL 1.54180   50.00000   50.00000   50.00000   90.00000   90.00000   90.00000
LATT -1
SFAC C  
C      1  0.4407300000000  0.5757460000000  0.4559180000000 1.0
C      1  0.5562390000000  0.4299310000000  0.4548060000000 1.0
C      1  0.5534310000000  0.5782310000000  0.5430830000000 1.0
C      1  0.4472140000000  0.4205880000000  0.5466720000000 1.0
C      1  0.5811580000000  0.4522530000000  0.4580400000000 1.0
C      1  0.4192150000000  0.5493240000000  0.4517250000000 1.0
C      1  0.5793200000000  0.5565450000000  0.5514150000000 1.0
C      1  0.4249800000000  0.4453350000000  0.5389320000000 1.0
C      1  0.4321750000000  0.5178890000000  0.4512890000000 1.0
C      1  0.5592630000000  0.4773310000000  0.4633680000000 1.0
C      1  0.5697200000000  0.5240670000000  0.5483710000000 1.0
C      1  0.4451580000000  0.4712820000000  0.5370630000000 1.0
C      1  0.5169570000000  0.4370960000000  0.4542150000000 1.0
C      1  0.4789610000000  0.5661260000000  0.4518300000000 1.0
C      1  0.5222740000000  0.5645590000000  0.5425370000000 1.0
C      1  0.4861000000000  0.4309290000000  0.5427610000000 1.0
C      1  0.5115510000000  0.4306050000000  0.4871500000000 1.0
C      1  0.4896760000000  0.5680320000000  0.4840420000000 1.0
C      1  0.4851680000000  0.4326500000000  0.5087490000000 1.0
C      1  0.5006640000000  0.5689130000000  0.5164830000000 1.0
C      1  0.4320280000000  0.5002640000000  0.4804500000000 1.0
C      1  0.5694200000000  0.4947290000000  0.4902800000000 1.0
C      1  0.4369450000000  0.4894900000000  0.5124080000000 1.0
C      1  0.5719950000000  0.5187420000000  0.5142240000000 1.0
C      1  0.5852360000000  0.4692560000000  0.5380110000000 1.0
C      1  0.4247790000000  0.5304870000000  0.5305230000000 1.0
C      1  0.4129910000000  0.4708190000000  0.4568280000000 1.0
C      1  0.5800880000000  0.5310250000000  0.4698270000000 1.0
C      1  0.4703320000000  0.5841970000000  0.5393360000000 1.0
C      1  0.5340500000000  0.4208990000000  0.5335550000000 1.0
C      1  0.4633030000000  0.4180530000000  0.4691170000000 1.0
C      1  0.5285990000000  0.5816120000000  0.4626860000000 1.0
C      1  0.4521920000000  0.4279030000000  0.5155780000000 1.0
C      1  0.5494730000000  0.5685490000000  0.5117930000000 1.0
C      1  0.5447020000000  0.4251470000000  0.4834820000000 1.0
C      1  0.4557020000000  0.5677020000000  0.4853880000000 1.0
C      1  0.4312230000000  0.4506150000000  0.5059280000000 1.0
C      1  0.5750190000000  0.5515680000000  0.5200620000000 1.0
C      1  0.4333260000000  0.5453400000000  0.4798820000000 1.0
C      1  0.5676180000000  0.4477540000000  0.4886620000000 1.0
C      1  0.5143020000000  0.3974800000000  0.4917310000000 1.0
C      1  0.4804480000000  0.6002320000000  0.4898970000000 1.0
C      1  0.4794210000000  0.3992150000000  0.5110320000000 1.0
C      1  0.5151270000000  0.5989500000000  0.5097720000000 1.0
C      1  0.4032400000000  0.5173330000000  0.4864930000000 1.0
C      1  0.5986250000000  0.4806270000000  0.4897270000000 1.0
C      1  0.4046200000000  0.4826660000000  0.5062310000000 1.0
C      1  0.6045690000000  0.5140600000000  0.5145870000000 1.0
C      1  0.4645030000000  0.5108660000000  0.4100070000000 1.0
C      1  0.5256740000000  0.4936230000000  0.4241040000000 1.0
C      1  0.5331200000000  0.5065520000000  0.5899100000000 1.0
C      1  0.4720980000000  0.4889650000000  0.5799680000000 1.0
C      1  0.5012540000000  0.4702590000000  0.4196470000000 1.0
C      1  0.4896800000000  0.5337440000000  0.4118840000000 1.0
C      1  0.5105510000000  0.5315780000000  0.5851770000000 1.0
C      1  0.4966520000000  0.4659070000000  0.5780050000000 1.0
C      1  0.3992740000000  0.4632660000000  0.4860750000000 1.0
C      1  0.6018340000000  0.5374870000000  0.4941840000000 1.0
C      1  0.5993350000000  0.4600050000000  0.5093390000000 1.0
C      1  0.4038230000000  0.5382010000000  0.5054020000000 1.0
C      1  0.4576260000000  0.3948360000000  0.4933020000000 1.0
C      1  0.5355780000000  0.5990060000000  0.4904530000000 1.0
C      1  0.4601950000000  0.5989640000000  0.5104290000000 1.0
C      1  0.5363210000000  0.3965220000000  0.5099600000000 1.0
C      1  0.5045540000000  0.4391590000000  0.4237330000000 1.0
C      1  0.4897090000000  0.5640540000000  0.4208160000000 1.0
C      1  0.4917900000000  0.4352390000000  0.5740850000000 1.0
C      1  0.5149690000000  0.5626350000000  0.5751130000000 1.0
C      1  0.4331680000000  0.5113870000000  0.4196490000000 1.0
C      1  0.5551290000000  0.4872770000000  0.4316110000000 1.0
C      1  0.4434460000000  0.4828500000000  0.5689800000000 1.0
C      1  0.5630200000000  0.5105030000000  0.5853480000000 1.0
C      1  0.6091860000000  0.4922540000000  0.5306180000000 1.0
C      1  0.4030270000000  0.5046320000000  0.5265380000000 1.0
C      1  0.3948670000000  0.4975290000000  0.4660460000000 1.0
C      1  0.6022560000000  0.5052300000000  0.4709660000000 1.0
C      1  0.4945730000000  0.6058380000000  0.5303380000000 1.0
C      1  0.5038840000000  0.4053970000000  0.5310910000000 1.0
C      1  0.4914110000000  0.3992570000000  0.4728010000000 1.0
C      1  0.5024070000000  0.6024680000000  0.4687710000000 1.0
C      1  0.5649960000000  0.5384740000000  0.4412800000000 1.0
C      1  0.4398980000000  0.4622780000000  0.4378510000000 1.0
C      1  0.4384770000000  0.5334050000000  0.5569990000000 1.0
C      1  0.5589170000000  0.4636560000000  0.5588290000000 1.0
C      1  0.5365640000000  0.5550390000000  0.4429570000000 1.0
C      1  0.4559320000000  0.4335160000000  0.4404880000000 1.0
C      1  0.5432000000000  0.4358510000000  0.5618310000000 1.0
C      1  0.4648520000000  0.5549890000000  0.5559480000000 1.0
C      1  0.5338190000000  0.5090630000000  0.5392200000000 1.0
C      1  0.4820420000000  0.5049950000000  0.5345240000000 1.0
C      1  0.4744330000000  0.4984290000000  0.4609210000000 1.0
C      1  0.5251990000000  0.4964680000000  0.4711710000000 1.0
C      1  0.5058260000000  0.5243600000000  0.5325420000000 1.0
C      1  0.4917250000000  0.4773010000000  0.5401050000000 1.0
C      1  0.4986360000000  0.4801100000000  0.4669650000000 1.0
C      1  0.4851800000000  0.5271030000000  0.4571050000000 1.0
C      1  0.4384380000000  0.4668850000000  0.4790330000000 1.0
C      1  0.5479130000000  0.5289790000000  0.4759020000000 1.0
C      1  0.5601540000000  0.4642890000000  0.5160480000000 1.0
C      1  0.4464880000000  0.5368260000000  0.5088600000000 1.0
C      1  0.4660680000000  0.4518010000000  0.4722450000000 1.0
C      1  0.5347740000000  0.5582060000000  0.4854750000000 1.0
C      1  0.4677480000000  0.5602910000000  0.5164140000000 1.0
C      1  0.5314040000000  0.4532450000000  0.5280710000000 1.0
C      1  0.4603620000000  0.4296780000000  0.5732280000000 1.0
C      1  0.5473010000000  0.5650820000000  0.5734450000000 1.0
C      1  0.5365910000000  0.4304010000000  0.4272330000000 1.0
C      1  0.4571650000000  0.5722100000000  0.4263470000000 1.0
C      1  0.4377930000000  0.4507560000000  0.5701630000000 1.0
C      1  0.5682120000000  0.5403740000000  0.5786040000000 1.0
C      1  0.4368890000000  0.5450680000000  0.4224960000000 1.0
C      1  0.5602490000000  0.4545670000000  0.4307880000000 1.0
C      1  0.4653640000000  0.5150650000000  0.5601170000000 1.0
C      1  0.5383330000000  0.4906260000000  0.5610870000000 1.0
C      1  0.5330300000000  0.5157490000000  0.4488780000000 1.0
C      1  0.4614590000000  0.4877670000000  0.4345290000000 1.0
C      1  0.5190090000000  0.4680810000000  0.5524410000000 1.0
C      1  0.4915940000000  0.5348950000000  0.5589150000000 1.0
C      1  0.5093710000000  0.5348330000000  0.4395850000000 1.0
C      1  0.4802710000000  0.4623570000000  0.4452110000000 1.0
C      1  0.5665200000000  0.5905590000000  0.4914940000000 1.0
C      1  0.4314400000000  0.4135200000000  0.4925800000000 1.0
C      1  0.4320980000000  0.5914210000000  0.5071830000000 1.0
C      1  0.5639850000000  0.4133340000000  0.5081600000000 1.0
C      1  0.5840620000000  0.5652270000000  0.4926690000000 1.0
C      1  0.4063840000000  0.4324590000000  0.4914530000000 1.0
C      1  0.5899730000000  0.4298620000000  0.5070340000000 1.0
C      1  0.4199630000000  0.5661780000000  0.5031930000000 1.0
C      1  0.5749570000000  0.4864680000000  0.5783450000000 1.0
C      1  0.4282610000000  0.5097240000000  0.5738220000000 1.0
C      1  0.4254130000000  0.4831750000000  0.4170120000000 1.0
C      1  0.5673950000000  0.5157650000000  0.4246750000000 1.0
C      1  0.4841030000000  0.5707310000000  0.5759800000000 1.0
C      1  0.5232050000000  0.4308130000000  0.5809960000000 1.0
C      1  0.4776590000000  0.4275240000000  0.4213700000000 1.0
C      1  0.5174630000000  0.5724190000000  0.4209620000000 1.0
C      1  0.4618630000000  0.5146290000000  0.4881890000000 1.0
C      1  0.5382340000000  0.4837320000000  0.4985810000000 1.0
C      1  0.5389390000000  0.5168000000000  0.5064930000000 1.0
C      1  0.4697330000000  0.4910480000000  0.5096930000000 1.0
C      1  0.5140950000000  0.4609500000000  0.5022740000000 1.0
C      1  0.4894310000000  0.5344540000000  0.4864350000000 1.0
C      1  0.5139240000000  0.5397800000000  0.5050180000000 1.0
C      1  0.4811540000000  0.4651630000000  0.4996380000000 1.0
C      1  0.5284280000000  0.4639010000000  0.4650780000000 1.0
C      1  0.4730960000000  0.4588000000000  0.5382720000000 1.0
C      1  0.4578860000000  0.5396030000000  0.4489110000000 1.0
C      1  0.5417100000000  0.5404350000000  0.5391070000000 1.0
C      1  0.4952540000000  0.5020780000000  0.4187390000000 1.0
C      1  0.5034630000000  0.4987420000000  0.5799210000000 1.0
END
