TITL C-2622957-9142-103 -0.000135812406126959 125000 -118.681426205729 0 0 22 (C1) n - 1
REM
REM in /nfs/bkarasulu/CARBON/AIRSS/Generating-Clusters/AIREBO/with-SteepDescent/Higher-Symm/SD-CG/HFTN-CG
REM
REM
REM
REM
REM
REM ./C.cell (b20cbc046b6831c77cfcea5457e17084)
REM
REM compiler GCC version 9.2.1 20190827 (Red Hat 9.2.1-1)
REM options -cpp -mtune=generic -march=x86-64 -g -O0 -fpre-include=/usr/include/finclude/math-vector-fortran.h
REM seed -300375695 -1849910536 1489249527 -1589970058 777241307 890227360 -1773342886 -1823326604 1808046312 -1362540397 326166123 1695573403 -459419233 1294676412 -2098082419 1943471681 1889405900 1963242337 827146427 -657167734 -256500387 100747968 -2086750707 -1465990698 -889380611 564521414 -385214622 332987818 -1861363272 -74934843 348724087 160575668 505631905
REM
CELL 1.54180   50.00000   50.00000   50.00000   90.00000   90.00000   90.00000
LATT -1
SFAC C  
C      1  0.4233420000000  0.4906490000000  0.4984010000000 1.0
C      1  0.4827400000000  0.4351160000000  0.5149920000000 1.0
C      1  0.4934740000000  0.4909300000000  0.5561910000000 1.0
C      1  0.5137120000000  0.5051330000000  0.5701580000000 1.0
C      1  0.5267240000000  0.5221530000000  0.5515300000000 1.0
C      1  0.4908800000000  0.4574140000000  0.5022040000000 1.0
C      1  0.5141490000000  0.5192900000000  0.5253700000000 1.0
C      1  0.4344400000000  0.5029850000000  0.4712800000000 1.0
C      1  0.5120190000000  0.5313210000000  0.4775030000000 1.0
C      1  0.4573190000000  0.4931400000000  0.4954220000000 1.0
C      1  0.5294880000000  0.5145320000000  0.4640540000000 1.0
C      1  0.5329300000000  0.4626480000000  0.4675860000000 1.0
C      1  0.4805470000000  0.4829010000000  0.5090310000000 1.0
C      1  0.4941180000000  0.4985990000000  0.5279090000000 1.0
C      1  0.5526370000000  0.4447010000000  0.4638170000000 1.0
C      1  0.5472670000000  0.5479050000000  0.5052520000000 1.0
C      1  0.4851670000000  0.5317970000000  0.4706440000000 1.0
C      1  0.5341090000000  0.4887290000000  0.4576530000000 1.0
C      1  0.5193990000000  0.5413170000000  0.5051590000000 1.0
C      1  0.5096210000000  0.4568190000000  0.4816690000000 1.0
C      1  0.5036370000000  0.5642930000000  0.5114940000000 1.0
C      1  0.4622810000000  0.5176270000000  0.4726810000000 1.0
END
