TITL C-2622963-3633-739 -0.00158106251692169 125000 -217.059224758579 0 0 41 (C1) n - 1
REM
REM in /nfs/bkarasulu/CARBON/AIRSS/Generating-Clusters/AIREBO/with-SteepDescent/Higher-Symm/SD-CG/HFTN-CG
REM
REM
REM
REM
REM
REM ./C.cell (b20cbc046b6831c77cfcea5457e17084)
REM
REM compiler GCC version 9.2.1 20190827 (Red Hat 9.2.1-1)
REM options -cpp -mtune=generic -march=x86-64 -g -O0 -fpre-include=/usr/include/finclude/math-vector-fortran.h
REM seed -952207897 -80396290 -1462507814 186995373 708282821 -877121145 1423247536 -1766100201 1651607349 -1465713742 102752337 -2027428417 33066295 291503511 2104734486 -244569704 -667822973 -1952263992 1067598550 479294605 -1347444413 -541733256 817249877 504086812 47958443 -786072966 1657466525 -1068780750 -876221538 1733311065 483706405 -724716993 -528785883
REM
CELL 1.54180   50.00000   50.00000   50.00000   90.00000   90.00000   90.00000
LATT -1
SFAC C  
C      1  0.4675360000000  0.5497200000000  0.4829120000000 1.0
C      1  0.5311460000000  0.5467760000000  0.5167700000000 1.0
C      1  0.5545750000000  0.5597400000000  0.5349270000000 1.0
C      1  0.4520590000000  0.5608100000000  0.4566180000000 1.0
C      1  0.5205320000000  0.5267710000000  0.4535140000000 1.0
C      1  0.4734000000000  0.5300480000000  0.5568760000000 1.0
C      1  0.4603510000000  0.5009750000000  0.4998600000000 1.0
C      1  0.5313600000000  0.4890990000000  0.5079110000000 1.0
C      1  0.4305000000000  0.4789140000000  0.4853570000000 1.0
C      1  0.5703170000000  0.4755490000000  0.5193410000000 1.0
C      1  0.5215840000000  0.5134350000000  0.4294760000000 1.0
C      1  0.4908350000000  0.5147200000000  0.5722580000000 1.0
C      1  0.4397820000000  0.5368330000000  0.4733320000000 1.0
C      1  0.5582920000000  0.5311420000000  0.5224130000000 1.0
C      1  0.4769520000000  0.4819940000000  0.4885490000000 1.0
C      1  0.5168210000000  0.4911220000000  0.5338320000000 1.0
C      1  0.5195660000000  0.5109810000000  0.4836120000000 1.0
C      1  0.4687110000000  0.5223070000000  0.5249830000000 1.0
C      1  0.5611350000000  0.5048120000000  0.5104080000000 1.0
C      1  0.4326360000000  0.5121820000000  0.4883360000000 1.0
C      1  0.4860220000000  0.4689560000000  0.5461320000000 1.0
C      1  0.5120750000000  0.4730040000000  0.4528710000000 1.0
C      1  0.4488460000000  0.5793090000000  0.4384520000000 1.0
C      1  0.5635330000000  0.5795590000000  0.5493690000000 1.0
C      1  0.4723490000000  0.4525420000000  0.4990360000000 1.0
C      1  0.5308840000000  0.4586220000000  0.4966980000000 1.0
C      1  0.4745540000000  0.4480750000000  0.5314770000000 1.0
C      1  0.5320750000000  0.4572030000000  0.4654360000000 1.0
C      1  0.5528730000000  0.5060970000000  0.4787930000000 1.0
C      1  0.4344030000000  0.5222960000000  0.5207510000000 1.0
C      1  0.4835810000000  0.5411620000000  0.5034000000000 1.0
C      1  0.5111150000000  0.5361520000000  0.5018080000000 1.0
C      1  0.4982960000000  0.4884080000000  0.4728190000000 1.0
C      1  0.4864020000000  0.4957210000000  0.5295630000000 1.0
C      1  0.5568570000000  0.4529750000000  0.5125700000000 1.0
C      1  0.4449750000000  0.4560130000000  0.4832280000000 1.0
C      1  0.5152560000000  0.4864790000000  0.4282250000000 1.0
C      1  0.5042540000000  0.4904960000000  0.5645860000000 1.0
C      1  0.4356600000000  0.4339970000000  0.4696250000000 1.0
C      1  0.5647320000000  0.4271210000000  0.5166900000000 1.0
C      1  0.5039670000000  0.4443890000000  0.5047280000000 1.0
END
