TITL C-2622959-7779-349 -0.00105141048668324 125000 -956.014796352847 0 0 171 (C1) n - 1
REM
REM in /nfs/bkarasulu/CARBON/AIRSS/Generating-Clusters/AIREBO/with-SteepDescent/Higher-Symm/SD-CG/HFTN-CG
REM
REM
REM
REM
REM
REM ./C.cell (b20cbc046b6831c77cfcea5457e17084)
REM
REM compiler GCC version 9.2.1 20190827 (Red Hat 9.2.1-1)
REM options -cpp -mtune=generic -march=x86-64 -g -O0 -fpre-include=/usr/include/finclude/math-vector-fortran.h
REM seed -1531393781 -450394594 334105018 -206899157 1085021763 -1809795342 -812710617 -1916834865 -1902140880 -890757512 -3156062 -430779346 -1094311863 -585572847 -641287230 1693853422 1460087787 468187866 1260327841 2125687199 -1971293732 -582545307 1297874437 561955293 -2022529828 1879998639 114769851 -944562414 308846389 1321494924 -1253314029 1251722488 1465993530
REM
CELL 1.54180   50.00000   50.00000   50.00000   90.00000   90.00000   90.00000
LATT -1
SFAC C  
C      1  0.5456150000000  0.5084840000000  0.4776620000000 1.0
C      1  0.5580580000000  0.4806420000000  0.4787140000000 1.0
C      1  0.5444480000000  0.4764660000000  0.5067540000000 1.0
C      1  0.5551040000000  0.4962830000000  0.5295110000000 1.0
C      1  0.5533770000000  0.5261740000000  0.5030240000000 1.0
C      1  0.5216550000000  0.4460740000000  0.3949120000000 1.0
C      1  0.5243560000000  0.3829920000000  0.5162040000000 1.0
C      1  0.5169550000000  0.4995900000000  0.6045220000000 1.0
C      1  0.5115290000000  0.6050150000000  0.5421320000000 1.0
C      1  0.5186220000000  0.5784400000000  0.4155930000000 1.0
C      1  0.4094170000000  0.4606080000000  0.5378300000000 1.0
C      1  0.4055350000000  0.5266640000000  0.5388030000000 1.0
C      1  0.4126590000000  0.5549670000000  0.4856730000000 1.0
C      1  0.4170200000000  0.4985790000000  0.4449020000000 1.0
C      1  0.4117670000000  0.4475710000000  0.4811710000000 1.0
C      1  0.4680710000000  0.5213690000000  0.4851800000000 1.0
C      1  0.4764590000000  0.4886640000000  0.4821480000000 1.0
C      1  0.4745260000000  0.4767720000000  0.5099440000000 1.0
C      1  0.4741690000000  0.5007710000000  0.5288190000000 1.0
C      1  0.4723590000000  0.5279540000000  0.5144180000000 1.0
C      1  0.5558540000000  0.5259290000000  0.5892890000000 1.0
C      1  0.5471920000000  0.5967330000000  0.5013790000000 1.0
C      1  0.5544970000000  0.5335140000000  0.4125230000000 1.0
C      1  0.5522730000000  0.4239370000000  0.4386280000000 1.0
C      1  0.5649130000000  0.4087050000000  0.5323730000000 1.0
C      1  0.3908270000000  0.5328880000000  0.4888720000000 1.0
C      1  0.3908930000000  0.5032900000000  0.4582740000000 1.0
C      1  0.3875910000000  0.4672470000000  0.4948670000000 1.0
C      1  0.3857320000000  0.4604160000000  0.5220980000000 1.0
C      1  0.3871620000000  0.5203180000000  0.5182280000000 1.0
C      1  0.4179040000000  0.4457970000000  0.5594510000000 1.0
C      1  0.4247040000000  0.5348010000000  0.5657300000000 1.0
C      1  0.4263860000000  0.5811010000000  0.4858820000000 1.0
C      1  0.4316050000000  0.5002080000000  0.4210540000000 1.0
C      1  0.4329780000000  0.4228730000000  0.4711220000000 1.0
C      1  0.5482110000000  0.5111460000000  0.3968300000000 1.0
C      1  0.5096460000000  0.4077110000000  0.4659090000000 1.0
C      1  0.5275030000000  0.4481560000000  0.6060150000000 1.0
C      1  0.5400250000000  0.5461870000000  0.5800490000000 1.0
C      1  0.5354830000000  0.5940140000000  0.4756540000000 1.0
C      1  0.5299020000000  0.4738550000000  0.5576330000000 1.0
C      1  0.5362740000000  0.5461050000000  0.5448060000000 1.0
C      1  0.5230060000000  0.5626100000000  0.4718430000000 1.0
C      1  0.5250690000000  0.4888460000000  0.4470760000000 1.0
C      1  0.5205460000000  0.4373780000000  0.4784730000000 1.0
C      1  0.4844690000000  0.5228040000000  0.5704510000000 1.0
C      1  0.4938870000000  0.5660610000000  0.4890560000000 1.0
C      1  0.4810450000000  0.5085930000000  0.4346420000000 1.0
C      1  0.4870780000000  0.4397950000000  0.4728660000000 1.0
C      1  0.4710060000000  0.4405260000000  0.5507730000000 1.0
C      1  0.4467650000000  0.5603310000000  0.5700040000000 1.0
C      1  0.4524820000000  0.5929390000000  0.4670210000000 1.0
C      1  0.4518490000000  0.4893010000000  0.3959660000000 1.0
C      1  0.4563970000000  0.4035170000000  0.4866400000000 1.0
C      1  0.4352420000000  0.4497660000000  0.5826470000000 1.0
C      1  0.5160930000000  0.4818540000000  0.4791260000000 1.0
C      1  0.5163630000000  0.4590420000000  0.5043520000000 1.0
C      1  0.5223050000000  0.5005330000000  0.5374860000000 1.0
C      1  0.5233200000000  0.5284990000000  0.5187480000000 1.0
C      1  0.5147450000000  0.5134540000000  0.4889720000000 1.0
C      1  0.5428650000000  0.5027390000000  0.5962460000000 1.0
C      1  0.5323030000000  0.5961140000000  0.5261990000000 1.0
C      1  0.5361980000000  0.5563130000000  0.4175720000000 1.0
C      1  0.5382700000000  0.4385580000000  0.4179320000000 1.0
C      1  0.5469640000000  0.3991030000000  0.5143060000000 1.0
C      1  0.5396170000000  0.4087930000000  0.4581040000000 1.0
C      1  0.5522680000000  0.4536810000000  0.5973810000000 1.0
C      1  0.5412580000000  0.5737710000000  0.5731830000000 1.0
C      1  0.5503410000000  0.5858590000000  0.4510040000000 1.0
C      1  0.5394210000000  0.4859620000000  0.4026230000000 1.0
C      1  0.5421050000000  0.5182900000000  0.4478440000000 1.0
C      1  0.5432840000000  0.4564050000000  0.4617620000000 1.0
C      1  0.5433700000000  0.4584150000000  0.5338500000000 1.0
C      1  0.5541710000000  0.5200770000000  0.5499300000000 1.0
C      1  0.5453060000000  0.5554990000000  0.4965170000000 1.0
C      1  0.4970720000000  0.4725940000000  0.5664430000000 1.0
C      1  0.4895190000000  0.5711250000000  0.5385960000000 1.0
C      1  0.4984760000000  0.5515080000000  0.4510620000000 1.0
C      1  0.5007030000000  0.4704360000000  0.4314690000000 1.0
C      1  0.4902880000000  0.4179670000000  0.5241070000000 1.0
C      1  0.4389460000000  0.4482790000000  0.4506430000000 1.0
C      1  0.4196490000000  0.4207590000000  0.5283440000000 1.0
C      1  0.4247830000000  0.5050710000000  0.5820490000000 1.0
C      1  0.4295810000000  0.5922990000000  0.5146820000000 1.0
C      1  0.4302230000000  0.5400160000000  0.4241760000000 1.0
C      1  0.5809860000000  0.5240050000000  0.5167610000000 1.0
C      1  0.6041720000000  0.5379710000000  0.4980700000000 1.0
C      1  0.5878800000000  0.4844600000000  0.4695580000000 1.0
C      1  0.6089470000000  0.4607200000000  0.4812770000000 1.0
C      1  0.5890100000000  0.4948960000000  0.5268020000000 1.0
C      1  0.4980660000000  0.5819340000000  0.4358910000000 1.0
C      1  0.5036170000000  0.4693320000000  0.3976100000000 1.0
C      1  0.5001440000000  0.3941610000000  0.5081910000000 1.0
C      1  0.5061300000000  0.4719420000000  0.5978380000000 1.0
C      1  0.4833840000000  0.5958680000000  0.5589510000000 1.0
C      1  0.4894620000000  0.3964950000000  0.4819850000000 1.0
C      1  0.4996840000000  0.4464770000000  0.6197800000000 1.0
C      1  0.4588830000000  0.5860050000000  0.5768810000000 1.0
C      1  0.4814840000000  0.5991290000000  0.4501900000000 1.0
C      1  0.4811620000000  0.4831570000000  0.3858820000000 1.0
C      1  0.5702790000000  0.4404510000000  0.5319540000000 1.0
C      1  0.5816250000000  0.5213970000000  0.5681670000000 1.0
C      1  0.5708280000000  0.5753470000000  0.5031970000000 1.0
C      1  0.5732870000000  0.5252250000000  0.4368280000000 1.0
C      1  0.5729750000000  0.4431820000000  0.4517690000000 1.0
C      1  0.6189190000000  0.4948330000000  0.5220110000000 1.0
C      1  0.6280080000000  0.5207160000000  0.5142200000000 1.0
C      1  0.6271910000000  0.5206630000000  0.4820860000000 1.0
C      1  0.6204680000000  0.4920800000000  0.4764430000000 1.0
C      1  0.6288630000000  0.4734320000000  0.5042340000000 1.0
C      1  0.4451660000000  0.4958080000000  0.5363550000000 1.0
C      1  0.4519780000000  0.5473500000000  0.5326750000000 1.0
C      1  0.4478580000000  0.5419650000000  0.4718950000000 1.0
C      1  0.4508750000000  0.4910400000000  0.4658670000000 1.0
C      1  0.4539450000000  0.4503610000000  0.5095860000000 1.0
C      1  0.5869310000000  0.5570260000000  0.4835400000000 1.0
C      1  0.5879830000000  0.4987890000000  0.4402090000000 1.0
C      1  0.5860380000000  0.4419270000000  0.4793800000000 1.0
C      1  0.5808210000000  0.4687870000000  0.5428560000000 1.0
C      1  0.5855110000000  0.5426260000000  0.5418490000000 1.0
C      1  0.4263020000000  0.4747110000000  0.4924470000000 1.0
C      1  0.4325110000000  0.4734070000000  0.5224750000000 1.0
C      1  0.4337030000000  0.5230490000000  0.5260760000000 1.0
C      1  0.4297910000000  0.5271610000000  0.4951390000000 1.0
C      1  0.4256280000000  0.5023450000000  0.4776080000000 1.0
C      1  0.4453550000000  0.4877870000000  0.5650640000000 1.0
C      1  0.4372840000000  0.5743290000000  0.5327050000000 1.0
C      1  0.4282900000000  0.5482320000000  0.4476440000000 1.0
C      1  0.4480140000000  0.4733220000000  0.4456230000000 1.0
C      1  0.4254560000000  0.4371710000000  0.5075400000000 1.0
C      1  0.4629740000000  0.4266990000000  0.4548020000000 1.0
C      1  0.4409650000000  0.4241390000000  0.5526150000000 1.0
C      1  0.4525510000000  0.5229670000000  0.5824060000000 1.0
C      1  0.4514930000000  0.6061060000000  0.4967510000000 1.0
C      1  0.4561540000000  0.5220010000000  0.4174040000000 1.0
C      1  0.5515090000000  0.4792970000000  0.5797590000000 1.0
C      1  0.5487770000000  0.5767030000000  0.5427010000000 1.0
C      1  0.5462530000000  0.5521820000000  0.4486650000000 1.0
C      1  0.5458930000000  0.4681690000000  0.4298830000000 1.0
C      1  0.5456720000000  0.4171370000000  0.4899870000000 1.0
C      1  0.4917030000000  0.4685010000000  0.4636800000000 1.0
C      1  0.4906370000000  0.4517510000000  0.5253570000000 1.0
C      1  0.4937710000000  0.5008010000000  0.5513870000000 1.0
C      1  0.4961600000000  0.5468660000000  0.5167880000000 1.0
C      1  0.4928420000000  0.5204550000000  0.4642500000000 1.0
C      1  0.5001840000000  0.4366820000000  0.4273810000000 1.0
C      1  0.4753820000000  0.4065250000000  0.5489650000000 1.0
C      1  0.4975010000000  0.5187490000000  0.6012450000000 1.0
C      1  0.4930160000000  0.5864290000000  0.5119700000000 1.0
C      1  0.4925920000000  0.5373750000000  0.4207030000000 1.0
C      1  0.4742310000000  0.5480570000000  0.5565140000000 1.0
C      1  0.4698180000000  0.5637860000000  0.4646540000000 1.0
C      1  0.4687120000000  0.4788860000000  0.4235930000000 1.0
C      1  0.4725770000000  0.4289060000000  0.4982300000000 1.0
C      1  0.4658640000000  0.4629080000000  0.5758680000000 1.0
C      1  0.5783220000000  0.4706020000000  0.4333850000000 1.0
C      1  0.5707160000000  0.4328230000000  0.4991680000000 1.0
C      1  0.5752930000000  0.4882590000000  0.5637440000000 1.0
C      1  0.5775720000000  0.5699180000000  0.5337760000000 1.0
C      1  0.5765200000000  0.5476280000000  0.4610970000000 1.0
C      1  0.4760300000000  0.6088310000000  0.5111310000000 1.0
C      1  0.4666190000000  0.5524850000000  0.4133130000000 1.0
C      1  0.4737950000000  0.4284910000000  0.4262730000000 1.0
C      1  0.4485000000000  0.3943850000000  0.5379800000000 1.0
C      1  0.4699600000000  0.5083730000000  0.6045380000000 1.0
C      1  0.4677770000000  0.4810080000000  0.6045890000000 1.0
C      1  0.4750290000000  0.6201370000000  0.5374570000000 1.0
C      1  0.4599900000000  0.5702950000000  0.4327510000000 1.0
C      1  0.4617850000000  0.4481320000000  0.4108370000000 1.0
C      1  0.4463860000000  0.3865500000000  0.5119920000000 1.0
C      1  0.3883250000000  0.4990540000000  0.4913030000000 1.0
END
