TITL C-2622955-8511-807 -0.00044941787643196 125000 -1069.34089127517 0 0 196 (C1) n - 1
REM
REM in /nfs/bkarasulu/CARBON/AIRSS/Generating-Clusters/AIREBO/with-SteepDescent/Higher-Symm/SD-CG/HFTN-CG
REM
REM
REM
REM
REM
REM ./C.cell (b20cbc046b6831c77cfcea5457e17084)
REM
REM compiler GCC version 9.2.1 20190827 (Red Hat 9.2.1-1)
REM options -cpp -mtune=generic -march=x86-64 -g -O0 -fpre-include=/usr/include/finclude/math-vector-fortran.h
REM seed 2108114720 270897495 -112585863 -1912718288 458649979 521622889 555248323 -254098392 -1561310541 1719640746 -225233225 287875002 -1536316660 -487700621 -2035714282 -129332015 -390836078 245067059 -102967337 -395582241 1134801970 969639027 -928998221 -105553029 -1991681971 1211463953 -788410632 982289277 1673675021 976117967 1931589033 -1748291997 594329270
REM
CELL 1.54180   50.00000   50.00000   50.00000   90.00000   90.00000   90.00000
LATT -1
SFAC C  
C      1  0.4285360000000  0.5052880000000  0.5931370000000 1.0
C      1  0.4547770000000  0.5054040000000  0.3961060000000 1.0
C      1  0.6091170000000  0.5028260000000  0.5138120000000 1.0
C      1  0.4265400000000  0.4756020000000  0.5030440000000 1.0
C      1  0.5319970000000  0.4855960000000  0.4360580000000 1.0
C      1  0.5341890000000  0.4748240000000  0.5728560000000 1.0
C      1  0.5422510000000  0.4819500000000  0.3894260000000 1.0
C      1  0.5728500000000  0.4921170000000  0.5964140000000 1.0
C      1  0.3899520000000  0.4833990000000  0.5169960000000 1.0
C      1  0.5461680000000  0.5277850000000  0.3722680000000 1.0
C      1  0.5796820000000  0.5186350000000  0.5862930000000 1.0
C      1  0.3726390000000  0.5283330000000  0.5257060000000 1.0
C      1  0.5707790000000  0.5402670000000  0.4177490000000 1.0
C      1  0.5339720000000  0.5354110000000  0.6003040000000 1.0
C      1  0.3826230000000  0.5378870000000  0.4748790000000 1.0
C      1  0.4848590000000  0.5052650000000  0.5771910000000 1.0
C      1  0.4470800000000  0.5057780000000  0.4529550000000 1.0
C      1  0.5630440000000  0.5031830000000  0.4773320000000 1.0
C      1  0.4231750000000  0.4166010000000  0.4867400000000 1.0
C      1  0.5545360000000  0.4251510000000  0.4427640000000 1.0
C      1  0.5226720000000  0.4123750000000  0.5729050000000 1.0
C      1  0.4458170000000  0.4685420000000  0.4388860000000 1.0
C      1  0.5701530000000  0.4625940000000  0.4730280000000 1.0
C      1  0.4839220000000  0.4657850000000  0.5808540000000 1.0
C      1  0.5567490000000  0.5656750000000  0.5597080000000 1.0
C      1  0.4122090000000  0.5605410000000  0.5143550000000 1.0
C      1  0.5366020000000  0.5692230000000  0.4079620000000 1.0
C      1  0.4657170000000  0.4794430000000  0.4642750000000 1.0
C      1  0.5486670000000  0.4784620000000  0.4941010000000 1.0
C      1  0.4864760000000  0.4771250000000  0.5488340000000 1.0
C      1  0.5011270000000  0.5262940000000  0.5281510000000 1.0
C      1  0.4894500000000  0.5266230000000  0.4962170000000 1.0
C      1  0.5115960000000  0.5312870000000  0.4742360000000 1.0
C      1  0.5510030000000  0.5810940000000  0.4295920000000 1.0
C      1  0.5312580000000  0.5816220000000  0.5691740000000 1.0
C      1  0.4215650000000  0.5781130000000  0.4928930000000 1.0
C      1  0.5419550000000  0.5355810000000  0.4051000000000 1.0
C      1  0.5380710000000  0.5397920000000  0.5714910000000 1.0
C      1  0.3982580000000  0.5310930000000  0.5045740000000 1.0
C      1  0.4642390000000  0.4879660000000  0.5974880000000 1.0
C      1  0.4340260000000  0.4895010000000  0.4148360000000 1.0
C      1  0.5957520000000  0.4804560000000  0.4836160000000 1.0
C      1  0.4845890000000  0.5865450000000  0.5294600000000 1.0
C      1  0.4879160000000  0.5909140000000  0.4728440000000 1.0
C      1  0.5262980000000  0.6005310000000  0.5006930000000 1.0
C      1  0.5529860000000  0.4270810000000  0.5021440000000 1.0
C      1  0.4718460000000  0.4304950000000  0.5514520000000 1.0
C      1  0.4762650000000  0.4292570000000  0.4515420000000 1.0
C      1  0.4706200000000  0.5564400000000  0.4058370000000 1.0
C      1  0.5905040000000  0.5549290000000  0.5018410000000 1.0
C      1  0.4438950000000  0.5556950000000  0.5695570000000 1.0
C      1  0.4452780000000  0.4363090000000  0.5613250000000 1.0
C      1  0.4800220000000  0.4332650000000  0.4235980000000 1.0
C      1  0.5767660000000  0.4312250000000  0.5261520000000 1.0
C      1  0.4067830000000  0.4832410000000  0.5789420000000 1.0
C      1  0.4796680000000  0.4882570000000  0.3805350000000 1.0
C      1  0.6091950000000  0.4817190000000  0.5405760000000 1.0
C      1  0.4771950000000  0.4782700000000  0.4300370000000 1.0
C      1  0.5638090000000  0.4808270000000  0.5252910000000 1.0
C      1  0.4529200000000  0.4826550000000  0.5466060000000 1.0
C      1  0.5409380000000  0.4142410000000  0.5378960000000 1.0
C      1  0.4547380000000  0.4182020000000  0.5105410000000 1.0
C      1  0.5161480000000  0.4275930000000  0.4518420000000 1.0
C      1  0.4646870000000  0.3923950000000  0.5290610000000 1.0
C      1  0.5006320000000  0.3991530000000  0.4418190000000 1.0
C      1  0.5581930000000  0.3921290000000  0.5204940000000 1.0
C      1  0.5295400000000  0.4241400000000  0.4207750000000 1.0
C      1  0.5561980000000  0.4156250000000  0.5682480000000 1.0
C      1  0.4240570000000  0.4235130000000  0.5200620000000 1.0
C      1  0.4439620000000  0.5240740000000  0.5745150000000 1.0
C      1  0.4657610000000  0.5279770000000  0.4172160000000 1.0
C      1  0.5865100000000  0.5249900000000  0.5113810000000 1.0
C      1  0.4253570000000  0.4707520000000  0.5334250000000 1.0
C      1  0.5078300000000  0.4705840000000  0.4174320000000 1.0
C      1  0.5626080000000  0.4665500000000  0.5561260000000 1.0
C      1  0.5448030000000  0.4867080000000  0.5988780000000 1.0
C      1  0.4042120000000  0.4994580000000  0.4936140000000 1.0
C      1  0.5577850000000  0.4901840000000  0.4143680000000 1.0
C      1  0.4991820000000  0.5457680000000  0.5785840000000 1.0
C      1  0.4290610000000  0.5407190000000  0.4597000000000 1.0
C      1  0.5633710000000  0.5454200000000  0.4643290000000 1.0
C      1  0.5203040000000  0.5806190000000  0.4742510000000 1.0
C      1  0.5168820000000  0.5839110000000  0.5232400000000 1.0
C      1  0.4708590000000  0.5841380000000  0.4994570000000 1.0
C      1  0.5121630000000  0.5458950000000  0.4298610000000 1.0
C      1  0.5473150000000  0.5379410000000  0.5326660000000 1.0
C      1  0.4477090000000  0.5376970000000  0.5188970000000 1.0
C      1  0.5882650000000  0.4587950000000  0.4445030000000 1.0
C      1  0.5061130000000  0.4585790000000  0.6030420000000 1.0
C      1  0.4146770000000  0.4651190000000  0.4521300000000 1.0
C      1  0.5310060000000  0.4502900000000  0.5012150000000 1.0
C      1  0.4845530000000  0.4504790000000  0.5304860000000 1.0
C      1  0.4850560000000  0.4522300000000  0.4707320000000 1.0
C      1  0.6030730000000  0.5117340000000  0.5548230000000 1.0
C      1  0.3994190000000  0.5117640000000  0.5619570000000 1.0
C      1  0.5008870000000  0.5144580000000  0.3837520000000 1.0
C      1  0.4723900000000  0.6181030000000  0.4666460000000 1.0
C      1  0.5537430000000  0.6207030000000  0.5029640000000 1.0
C      1  0.4772050000000  0.6292950000000  0.5659530000000 1.0
C      1  0.4706640000000  0.4407810000000  0.5997010000000 1.0
C      1  0.4344720000000  0.4395080000000  0.4252660000000 1.0
C      1  0.5791440000000  0.4359720000000  0.4870880000000 1.0
C      1  0.5643490000000  0.5257280000000  0.5594480000000 1.0
C      1  0.4213960000000  0.5198610000000  0.5268110000000 1.0
C      1  0.5209830000000  0.5141900000000  0.4212710000000 1.0
C      1  0.4166280000000  0.5682980000000  0.4683080000000 1.0
C      1  0.5700440000000  0.5612760000000  0.4372990000000 1.0
C      1  0.5163090000000  0.5690400000000  0.5878640000000 1.0
C      1  0.4885100000000  0.5165470000000  0.4578200000000 1.0
C      1  0.5402730000000  0.5109230000000  0.5158640000000 1.0
C      1  0.4690700000000  0.5153000000000  0.5310330000000 1.0
C      1  0.4517780000000  0.3985510000000  0.4832440000000 1.0
C      1  0.5374730000000  0.4035180000000  0.4628870000000 1.0
C      1  0.5109760000000  0.4012990000000  0.5426260000000 1.0
C      1  0.5139640000000  0.4584420000000  0.4591440000000 1.0
C      1  0.5369130000000  0.4475580000000  0.5323400000000 1.0
C      1  0.4573160000000  0.4521760000000  0.5130640000000 1.0
C      1  0.5352880000000  0.5567830000000  0.4934060000000 1.0
C      1  0.4742270000000  0.5579780000000  0.5415760000000 1.0
C      1  0.4737660000000  0.5625150000000  0.4604000000000 1.0
C      1  0.5124810000000  0.4780490000000  0.6207740000000 1.0
C      1  0.3964370000000  0.4852310000000  0.4508930000000 1.0
C      1  0.5898600000000  0.4810500000000  0.4288300000000 1.0
C      1  0.4611100000000  0.5348970000000  0.4498260000000 1.0
C      1  0.5575600000000  0.5311140000000  0.4946290000000 1.0
C      1  0.4741980000000  0.5311780000000  0.5606760000000 1.0
C      1  0.5923340000000  0.5319770000000  0.4527600000000 1.0
C      1  0.4775770000000  0.5389150000000  0.5997450000000 1.0
C      1  0.4260990000000  0.5430130000000  0.4259000000000 1.0
C      1  0.5757530000000  0.5077860000000  0.5349700000000 1.0
C      1  0.4314480000000  0.5053870000000  0.5524710000000 1.0
C      1  0.4898500000000  0.5060860000000  0.4148120000000 1.0
C      1  0.6115990000000  0.4692520000000  0.5090330000000 1.0
C      1  0.4347450000000  0.4720630000000  0.5947320000000 1.0
C      1  0.4562240000000  0.4707300000000  0.3970950000000 1.0
C      1  0.4216500000000  0.5111110000000  0.4339820000000 1.0
C      1  0.5944500000000  0.5052260000000  0.4691920000000 1.0
C      1  0.4874990000000  0.5095380000000  0.6103950000000 1.0
C      1  0.4003060000000  0.5581570000000  0.5458130000000 1.0
C      1  0.5153670000000  0.5617790000000  0.3845070000000 1.0
C      1  0.5895890000000  0.5601500000000  0.5594820000000 1.0
C      1  0.4122650000000  0.4434230000000  0.4692710000000 1.0
C      1  0.5835510000000  0.4332480000000  0.4354860000000 1.0
C      1  0.5231800000000  0.4394050000000  0.5935270000000 1.0
C      1  0.4427950000000  0.5955330000000  0.4953110000000 1.0
C      1  0.5402100000000  0.5953380000000  0.4509420000000 1.0
C      1  0.5166760000000  0.5960690000000  0.5511680000000 1.0
C      1  0.4745010000000  0.5542760000000  0.5082130000000 1.0
C      1  0.5040850000000  0.5577360000000  0.4577910000000 1.0
C      1  0.5210030000000  0.5529890000000  0.5211870000000 1.0
C      1  0.5123360000000  0.4837030000000  0.3896770000000 1.0
C      1  0.5864820000000  0.4848330000000  0.5660380000000 1.0
C      1  0.3993190000000  0.4828950000000  0.5456450000000 1.0
C      1  0.4656370000000  0.4850770000000  0.5157090000000 1.0
C      1  0.5082530000000  0.4913250000000  0.4597280000000 1.0
C      1  0.5317110000000  0.4811180000000  0.5299680000000 1.0
C      1  0.4476790000000  0.6192260000000  0.4797830000000 1.0
C      1  0.5440020000000  0.6127470000000  0.4743540000000 1.0
C      1  0.4905660000000  0.6103470000000  0.5526000000000 1.0
C      1  0.5157240000000  0.4868910000000  0.4925560000000 1.0
C      1  0.5037210000000  0.4926520000000  0.5239430000000 1.0
C      1  0.4824690000000  0.4938940000000  0.4901330000000 1.0
C      1  0.5090420000000  0.3958630000000  0.5089120000000 1.0
C      1  0.4779140000000  0.3869940000000  0.5018760000000 1.0
C      1  0.5063270000000  0.3959610000000  0.4754500000000 1.0
C      1  0.4976060000000  0.5612410000000  0.4080160000000 1.0
C      1  0.5732830000000  0.5578600000000  0.5302240000000 1.0
C      1  0.4332070000000  0.5585910000000  0.5414780000000 1.0
C      1  0.6004250000000  0.5376220000000  0.5718590000000 1.0
C      1  0.3853290000000  0.5345690000000  0.5499790000000 1.0
C      1  0.5180880000000  0.5357900000000  0.3731320000000 1.0
C      1  0.5475510000000  0.5075410000000  0.4533430000000 1.0
C      1  0.5120970000000  0.4931880000000  0.5643960000000 1.0
C      1  0.4427580000000  0.4945080000000  0.4843500000000 1.0
C      1  0.4808460000000  0.4045370000000  0.5482200000000 1.0
C      1  0.4751150000000  0.4007260000000  0.4641180000000 1.0
C      1  0.5401850000000  0.3992940000000  0.4957020000000 1.0
C      1  0.5699760000000  0.4374120000000  0.5523740000000 1.0
C      1  0.4259360000000  0.4415350000000  0.5413160000000 1.0
C      1  0.5056060000000  0.4409090000000  0.4157270000000 1.0
C      1  0.4359710000000  0.4473850000000  0.4904290000000 1.0
C      1  0.5449890000000  0.4569280000000  0.4508640000000 1.0
C      1  0.5288780000000  0.4439360000000  0.5617310000000 1.0
C      1  0.5359330000000  0.5350630000000  0.4518550000000 1.0
C      1  0.5135340000000  0.5250200000000  0.5579240000000 1.0
C      1  0.4416760000000  0.5265680000000  0.4879290000000 1.0
C      1  0.5215060000000  0.5080930000000  0.6104850000000 1.0
C      1  0.4055350000000  0.5154270000000  0.4636180000000 1.0
C      1  0.5799290000000  0.5122860000000  0.4277730000000 1.0
C      1  0.4559470000000  0.5552360000000  0.5963840000000 1.0
C      1  0.4407050000000  0.5580300000000  0.4092180000000 1.0
C      1  0.6000530000000  0.5557910000000  0.4758030000000 1.0
C      1  0.4583540000000  0.4440830000000  0.4098500000000 1.0
C      1  0.6009140000000  0.4404800000000  0.5088220000000 1.0
C      1  0.4447540000000  0.4442910000000  0.5882080000000 1.0
C      1  0.4994100000000  0.4513160000000  0.5003000000000 1.0
END
