TITL C-2622955-8511-515 -0.000763806371260936 125000 -878.846891038827 0 0 160 (C1) n - 1
REM
REM in /nfs/bkarasulu/CARBON/AIRSS/Generating-Clusters/AIREBO/with-SteepDescent/Higher-Symm/SD-CG/HFTN-CG
REM
REM
REM
REM
REM
REM ./C.cell (b20cbc046b6831c77cfcea5457e17084)
REM
REM compiler GCC version 9.2.1 20190827 (Red Hat 9.2.1-1)
REM options -cpp -mtune=generic -march=x86-64 -g -O0 -fpre-include=/usr/include/finclude/math-vector-fortran.h
REM seed 315158173 1789891917 155968474 815029778 -594402145 -1059365502 1070239965 -2107739213 1974160748 1077158644 1701636300 -397957782 1273495142 1061854558 -147093355 -1911456238 905496446 -567769126 -863663343 1520759972 -437695425 -1729229705 23727314 -81737976 -1258992243 1248614042 -1571752301 1281245070 -1028537639 -60279500 -1557223537 -153610424 2127512500
REM
CELL 1.54180   50.00000   50.00000   50.00000   90.00000   90.00000   90.00000
LATT -1
SFAC C  
C      1  0.5353410000000  0.4457790000000  0.4913520000000 1.0
C      1  0.5349850000000  0.4362060000000  0.5246640000000 1.0
C      1  0.5048030000000  0.4390080000000  0.5401820000000 1.0
C      1  0.4782060000000  0.4266870000000  0.5315650000000 1.0
C      1  0.4599600000000  0.4388000000000  0.5084080000000 1.0
C      1  0.4634850000000  0.4261870000000  0.4774790000000 1.0
C      1  0.4851320000000  0.4400190000000  0.4583800000000 1.0
C      1  0.5182210000000  0.4377390000000  0.4658860000000 1.0
C      1  0.5540430000000  0.4630950000000  0.4369450000000 1.0
C      1  0.5848930000000  0.4663630000000  0.4955750000000 1.0
C      1  0.5682160000000  0.4651220000000  0.5596360000000 1.0
C      1  0.5091270000000  0.4658470000000  0.5915130000000 1.0
C      1  0.4434540000000  0.4676080000000  0.5689050000000 1.0
C      1  0.4115330000000  0.4678600000000  0.5035390000000 1.0
C      1  0.4336300000000  0.4645140000000  0.4451880000000 1.0
C      1  0.4919420000000  0.4627790000000  0.4008290000000 1.0
C      1  0.4045280000000  0.5410150000000  0.4771900000000 1.0
C      1  0.4450730000000  0.5395610000000  0.4113780000000 1.0
C      1  0.5212830000000  0.5392410000000  0.3972090000000 1.0
C      1  0.5805120000000  0.5391620000000  0.4489040000000 1.0
C      1  0.5969390000000  0.5409310000000  0.5253920000000 1.0
C      1  0.5539160000000  0.5400580000000  0.5890010000000 1.0
C      1  0.4761870000000  0.5386330000000  0.6015240000000 1.0
C      1  0.4130120000000  0.5388770000000  0.5524030000000 1.0
C      1  0.4162100000000  0.5537500000000  0.5012850000000 1.0
C      1  0.4399740000000  0.5518960000000  0.4388330000000 1.0
C      1  0.4970330000000  0.5520290000000  0.4093200000000 1.0
C      1  0.5546170000000  0.5498790000000  0.4389010000000 1.0
C      1  0.5829470000000  0.5521780000000  0.5010570000000 1.0
C      1  0.5619280000000  0.5539700000000  0.5636700000000 1.0
C      1  0.5006180000000  0.5516740000000  0.5900270000000 1.0
C      1  0.4403370000000  0.5493190000000  0.5594810000000 1.0
C      1  0.5278070000000  0.4980920000000  0.4594650000000 1.0
C      1  0.5456510000000  0.5049500000000  0.5035830000000 1.0
C      1  0.5307600000000  0.5126770000000  0.5318090000000 1.0
C      1  0.5002640000000  0.5125580000000  0.5436790000000 1.0
C      1  0.4789260000000  0.5043030000000  0.5228590000000 1.0
C      1  0.4614660000000  0.5158460000000  0.5023720000000 1.0
C      1  0.4764730000000  0.5080280000000  0.4734210000000 1.0
C      1  0.4963780000000  0.5085140000000  0.4517090000000 1.0
C      1  0.4712110000000  0.3971280000000  0.4801840000000 1.0
C      1  0.4942940000000  0.3911120000000  0.4652690000000 1.0
C      1  0.5181200000000  0.4050960000000  0.4703160000000 1.0
C      1  0.5351180000000  0.3966570000000  0.4911030000000 1.0
C      1  0.5319170000000  0.4039610000000  0.5181680000000 1.0
C      1  0.5107490000000  0.3909400000000  0.5319520000000 1.0
C      1  0.4836090000000  0.3975670000000  0.5271230000000 1.0
C      1  0.4688310000000  0.3861630000000  0.5060420000000 1.0
C      1  0.4809420000000  0.5520840000000  0.5434890000000 1.0
C      1  0.4649550000000  0.5530710000000  0.5164330000000 1.0
C      1  0.4662830000000  0.5514750000000  0.4850250000000 1.0
C      1  0.4867300000000  0.5504990000000  0.4604750000000 1.0
C      1  0.5182990000000  0.5506950000000  0.4587350000000 1.0
C      1  0.5339880000000  0.5519340000000  0.4847620000000 1.0
C      1  0.5353720000000  0.5505600000000  0.5168730000000 1.0
C      1  0.5128070000000  0.5501070000000  0.5386670000000 1.0
C      1  0.4073200000000  0.5126960000000  0.4494760000000 1.0
C      1  0.4684160000000  0.5111180000000  0.3961960000000 1.0
C      1  0.5485240000000  0.5115820000000  0.4050600000000 1.0
C      1  0.5978170000000  0.5127040000000  0.4731900000000 1.0
C      1  0.5958660000000  0.5141730000000  0.5549620000000 1.0
C      1  0.5308010000000  0.5117540000000  0.6046350000000 1.0
C      1  0.4490880000000  0.5119750000000  0.5905400000000 1.0
C      1  0.3945440000000  0.5124630000000  0.5291080000000 1.0
C      1  0.4899280000000  0.4941200000000  0.3920600000000 1.0
C      1  0.5656350000000  0.4924080000000  0.4249650000000 1.0
C      1  0.6016900000000  0.4958220000000  0.4950040000000 1.0
C      1  0.5814030000000  0.4938680000000  0.5722190000000 1.0
C      1  0.5087710000000  0.4947300000000  0.6050000000000 1.0
C      1  0.4358420000000  0.4968710000000  0.5671080000000 1.0
C      1  0.3920370000000  0.4955110000000  0.5069360000000 1.0
C      1  0.4220960000000  0.4946760000000  0.4345420000000 1.0
C      1  0.5408900000000  0.5829910000000  0.5082630000000 1.0
C      1  0.5260910000000  0.5822720000000  0.5388670000000 1.0
C      1  0.4937250000000  0.5831170000000  0.5492870000000 1.0
C      1  0.4700450000000  0.5855800000000  0.5250020000000 1.0
C      1  0.4598950000000  0.5843590000000  0.4925700000000 1.0
C      1  0.4752170000000  0.5824580000000  0.4621540000000 1.0
C      1  0.5072380000000  0.5828500000000  0.4507140000000 1.0
C      1  0.5297780000000  0.5845940000000  0.4761670000000 1.0
C      1  0.4378260000000  0.5063480000000  0.4100200000000 1.0
C      1  0.5185350000000  0.5070980000000  0.3896360000000 1.0
C      1  0.5837470000000  0.5071320000000  0.4432410000000 1.0
C      1  0.6038370000000  0.5086820000000  0.5225640000000 1.0
C      1  0.5587530000000  0.5076100000000  0.5857750000000 1.0
C      1  0.4797700000000  0.5060530000000  0.6039750000000 1.0
C      1  0.4080890000000  0.5088780000000  0.5574150000000 1.0
C      1  0.4007560000000  0.5087250000000  0.4816330000000 1.0
C      1  0.5949380000000  0.5425750000000  0.4747960000000 1.0
C      1  0.5902080000000  0.5445720000000  0.5545970000000 1.0
C      1  0.5272440000000  0.5420890000000  0.6031970000000 1.0
C      1  0.4486950000000  0.5425060000000  0.5888400000000 1.0
C      1  0.4000100000000  0.5439640000000  0.5261080000000 1.0
C      1  0.4120060000000  0.5430320000000  0.4482580000000 1.0
C      1  0.4709910000000  0.5414010000000  0.3961570000000 1.0
C      1  0.5485840000000  0.5418150000000  0.4097320000000 1.0
C      1  0.5656580000000  0.4771180000000  0.4622880000000 1.0
C      1  0.5763410000000  0.4797950000000  0.5233880000000 1.0
C      1  0.5400100000000  0.4767700000000  0.5687340000000 1.0
C      1  0.4833620000000  0.4686510000000  0.5695020000000 1.0
C      1  0.4413890000000  0.4806320000000  0.5309670000000 1.0
C      1  0.4307160000000  0.4823000000000  0.4808640000000 1.0
C      1  0.4594890000000  0.4806780000000  0.4359830000000 1.0
C      1  0.5180290000000  0.4701660000000  0.4213460000000 1.0
C      1  0.4235470000000  0.4245890000000  0.4766770000000 1.0
C      1  0.4617190000000  0.4249080000000  0.4298010000000 1.0
C      1  0.5229570000000  0.4354410000000  0.4215540000000 1.0
C      1  0.5650620000000  0.4245470000000  0.4676770000000 1.0
C      1  0.5732690000000  0.4250810000000  0.5229950000000 1.0
C      1  0.5387150000000  0.4251300000000  0.5721620000000 1.0
C      1  0.4790440000000  0.4343340000000  0.5703750000000 1.0
C      1  0.4299520000000  0.4486690000000  0.5329010000000 1.0
C      1  0.4270270000000  0.4375350000000  0.5017260000000 1.0
C      1  0.4422200000000  0.4360700000000  0.4526750000000 1.0
C      1  0.4910080000000  0.4387870000000  0.4249070000000 1.0
C      1  0.5453060000000  0.4354610000000  0.4454580000000 1.0
C      1  0.5685990000000  0.4405410000000  0.4961880000000 1.0
C      1  0.5579430000000  0.4368080000000  0.5497560000000 1.0
C      1  0.5108690000000  0.4398600000000  0.5731220000000 1.0
C      1  0.4546600000000  0.4427170000000  0.5502910000000 1.0
C      1  0.4840360000000  0.5342360000000  0.4332060000000 1.0
C      1  0.5300100000000  0.5271230000000  0.4418940000000 1.0
C      1  0.5582330000000  0.5323130000000  0.4888460000000 1.0
C      1  0.5543910000000  0.5360500000000  0.5390220000000 1.0
C      1  0.5129990000000  0.5341210000000  0.5666920000000 1.0
C      1  0.4650450000000  0.5261630000000  0.5563350000000 1.0
C      1  0.4379890000000  0.5360440000000  0.5164130000000 1.0
C      1  0.4522050000000  0.5305040000000  0.4622640000000 1.0
C      1  0.4600180000000  0.5113110000000  0.4353010000000 1.0
C      1  0.5136020000000  0.5038530000000  0.4227540000000 1.0
C      1  0.5586340000000  0.5096070000000  0.4660520000000 1.0
C      1  0.5700210000000  0.5115230000000  0.5247930000000 1.0
C      1  0.5335120000000  0.5079570000000  0.5649190000000 1.0
C      1  0.4825560000000  0.5026180000000  0.5709550000000 1.0
C      1  0.4424190000000  0.5117080000000  0.5372260000000 1.0
C      1  0.4333040000000  0.5139690000000  0.4834080000000 1.0
C      1  0.4489670000000  0.5759600000000  0.5462330000000 1.0
C      1  0.4296580000000  0.5819020000000  0.4950590000000 1.0
C      1  0.4526440000000  0.5802270000000  0.4426790000000 1.0
C      1  0.5037350000000  0.5807800000000  0.4211490000000 1.0
C      1  0.5468420000000  0.5774970000000  0.4506270000000 1.0
C      1  0.5708160000000  0.5808120000000  0.5060810000000 1.0
C      1  0.5479030000000  0.5817640000000  0.5589410000000 1.0
C      1  0.4953080000000  0.5806960000000  0.5790660000000 1.0
C      1  0.4627060000000  0.4704020000000  0.4092490000000 1.0
C      1  0.5476750000000  0.4720160000000  0.4047880000000 1.0
C      1  0.5959060000000  0.4710820000000  0.4644480000000 1.0
C      1  0.5969300000000  0.4723070000000  0.5458290000000 1.0
C      1  0.5405150000000  0.4711130000000  0.5996170000000 1.0
C      1  0.4598660000000  0.4661390000000  0.5939710000000 1.0
C      1  0.4083920000000  0.4746360000000  0.5367120000000 1.0
C      1  0.4063860000000  0.4718060000000  0.4631750000000 1.0
C      1  0.4884020000000  0.4750710000000  0.5364730000000 1.0
C      1  0.4651840000000  0.4684270000000  0.5125290000000 1.0
C      1  0.4624290000000  0.4799900000000  0.4848820000000 1.0
C      1  0.4785190000000  0.4710600000000  0.4586930000000 1.0
C      1  0.5118370000000  0.4693900000000  0.4541150000000 1.0
C      1  0.5469450000000  0.4773040000000  0.4895100000000 1.0
C      1  0.5458900000000  0.4683330000000  0.5222940000000 1.0
C      1  0.5209980000000  0.4686270000000  0.5433640000000 1.0
END
