TITL C-2622967-6265-549 3.81554507092874e-05 125000 -975.586231022667 0 0 193 (C1) n - 1
REM
REM in /nfs/bkarasulu/CARBON/AIRSS/Generating-Clusters/AIREBO/with-SteepDescent/Higher-Symm/SD-CG/HFTN-CG
REM
REM
REM
REM
REM
REM ./C.cell (b20cbc046b6831c77cfcea5457e17084)
REM
REM compiler GCC version 9.2.1 20190827 (Red Hat 9.2.1-1)
REM options -cpp -mtune=generic -march=x86-64 -g -O0 -fpre-include=/usr/include/finclude/math-vector-fortran.h
REM seed -1543799934 284141092 -1538260108 1537876371 -661958259 -1549064854 61123538 1352781109 -1974496416 752194026 1024676277 -1875782748 1934255955 -43825492 1009904065 114806976 -1249180843 -406086306 112344500 -930654959 246548447 -1965980019 -419826145 -547492756 -1080236749 423104149 2061595938 1243293478 -621219240 -1647156252 253941241 869683270 -1599976585
REM
CELL 1.54180   50.00000   50.00000   50.00000   90.00000   90.00000   90.00000
LATT -1
SFAC C  
C      1  0.5391720000000  0.4681300000000  0.4140070000000 1.0
C      1  0.5423770000000  0.5303320000000  0.5937170000000 1.0
C      1  0.5512200000000  0.5298940000000  0.4027920000000 1.0
C      1  0.5439120000000  0.4963530000000  0.5881500000000 1.0
C      1  0.5720180000000  0.5635030000000  0.4173130000000 1.0
C      1  0.5574580000000  0.4166150000000  0.6072870000000 1.0
C      1  0.5477260000000  0.4216100000000  0.3901900000000 1.0
C      1  0.5589380000000  0.5806340000000  0.5948050000000 1.0
C      1  0.4832870000000  0.6018250000000  0.5087310000000 1.0
C      1  0.4811960000000  0.3920800000000  0.4906430000000 1.0
C      1  0.4863190000000  0.3987090000000  0.5187450000000 1.0
C      1  0.4823200000000  0.5987030000000  0.4777810000000 1.0
C      1  0.5325490000000  0.5597900000000  0.5897880000000 1.0
C      1  0.5345600000000  0.4345480000000  0.4112040000000 1.0
C      1  0.5452870000000  0.4353540000000  0.5877340000000 1.0
C      1  0.5433230000000  0.5630850000000  0.4019000000000 1.0
C      1  0.4161250000000  0.4532990000000  0.4527060000000 1.0
C      1  0.4132070000000  0.5515110000000  0.5501830000000 1.0
C      1  0.4199130000000  0.5535370000000  0.4505650000000 1.0
C      1  0.4144510000000  0.4537660000000  0.5490590000000 1.0
C      1  0.4073400000000  0.5179190000000  0.5549450000000 1.0
C      1  0.4138890000000  0.4872990000000  0.4499840000000 1.0
C      1  0.4107490000000  0.4842610000000  0.5513690000000 1.0
C      1  0.4109250000000  0.5208520000000  0.4441600000000 1.0
C      1  0.4865820000000  0.3856620000000  0.4391650000000 1.0
C      1  0.4765600000000  0.5954470000000  0.5694770000000 1.0
C      1  0.4807310000000  0.5999570000000  0.4378660000000 1.0
C      1  0.4861490000000  0.3934400000000  0.5595960000000 1.0
C      1  0.4509500000000  0.5385880000000  0.5505340000000 1.0
C      1  0.4549770000000  0.4562820000000  0.4612970000000 1.0
C      1  0.4537680000000  0.4525340000000  0.5458990000000 1.0
C      1  0.4581080000000  0.5426140000000  0.4521080000000 1.0
C      1  0.4476100000000  0.5214610000000  0.5927780000000 1.0
C      1  0.4473050000000  0.4726890000000  0.4134450000000 1.0
C      1  0.4508130000000  0.4688410000000  0.5859800000000 1.0
C      1  0.4503830000000  0.5262660000000  0.4077690000000 1.0
C      1  0.4812800000000  0.5424480000000  0.5884120000000 1.0
C      1  0.4879960000000  0.4540000000000  0.4236060000000 1.0
C      1  0.4872380000000  0.4567950000000  0.5746770000000 1.0
C      1  0.4847010000000  0.5459900000000  0.4054840000000 1.0
C      1  0.4196320000000  0.4464570000000  0.4850790000000 1.0
C      1  0.4161480000000  0.5546290000000  0.5163620000000 1.0
C      1  0.4214600000000  0.5556540000000  0.4845280000000 1.0
C      1  0.4148540000000  0.4441540000000  0.5180790000000 1.0
C      1  0.4409490000000  0.4336510000000  0.4401470000000 1.0
C      1  0.4374100000000  0.5645540000000  0.5678370000000 1.0
C      1  0.4458040000000  0.5669190000000  0.4343710000000 1.0
C      1  0.4336140000000  0.4316570000000  0.5636660000000 1.0
C      1  0.5049180000000  0.4258620000000  0.4147590000000 1.0
C      1  0.5055680000000  0.5625500000000  0.6011600000000 1.0
C      1  0.5050020000000  0.5721930000000  0.4076780000000 1.0
C      1  0.5136610000000  0.4369650000000  0.5810570000000 1.0
C      1  0.4461410000000  0.4920080000000  0.4769210000000 1.0
C      1  0.4532910000000  0.5148960000000  0.5156310000000 1.0
C      1  0.4447630000000  0.5232280000000  0.4840930000000 1.0
C      1  0.4454780000000  0.4842550000000  0.5245610000000 1.0
C      1  0.5118940000000  0.6065590000000  0.4816850000000 1.0
C      1  0.5142960000000  0.3899790000000  0.5248860000000 1.0
C      1  0.5117270000000  0.3820740000000  0.4930770000000 1.0
C      1  0.5122810000000  0.6093790000000  0.5155660000000 1.0
C      1  0.5761600000000  0.5086290000000  0.5227130000000 1.0
C      1  0.5672920000000  0.4788920000000  0.4835280000000 1.0
C      1  0.5796760000000  0.4790100000000  0.5152470000000 1.0
C      1  0.5732080000000  0.5095960000000  0.4749180000000 1.0
C      1  0.4427700000000  0.5175550000000  0.4377270000000 1.0
C      1  0.4499600000000  0.4839280000000  0.5582660000000 1.0
C      1  0.4471970000000  0.4843890000000  0.4437970000000 1.0
C      1  0.4386090000000  0.5115730000000  0.5636780000000 1.0
C      1  0.4154220000000  0.4794510000000  0.4836800000000 1.0
C      1  0.4235560000000  0.5235170000000  0.5255860000000 1.0
C      1  0.4131860000000  0.5244930000000  0.4758770000000 1.0
C      1  0.4127820000000  0.4780940000000  0.5175550000000 1.0
C      1  0.5091780000000  0.3968570000000  0.4625470000000 1.0
C      1  0.5207520000000  0.5882280000000  0.5408220000000 1.0
C      1  0.5310020000000  0.5943870000000  0.4563300000000 1.0
C      1  0.5272510000000  0.4155620000000  0.5402560000000 1.0
C      1  0.5033970000000  0.4473850000000  0.4531960000000 1.0
C      1  0.4959390000000  0.5478080000000  0.5582050000000 1.0
C      1  0.5163600000000  0.5575390000000  0.4521660000000 1.0
C      1  0.5065310000000  0.4570040000000  0.5466650000000 1.0
C      1  0.5720960000000  0.5235490000000  0.5812320000000 1.0
C      1  0.5703950000000  0.4816440000000  0.4118780000000 1.0
C      1  0.5768910000000  0.4904990000000  0.5877030000000 1.0
C      1  0.5753990000000  0.5115310000000  0.4151710000000 1.0
C      1  0.5703010000000  0.4708790000000  0.5469030000000 1.0
C      1  0.5740570000000  0.5266740000000  0.4455250000000 1.0
C      1  0.5768730000000  0.5279730000000  0.5506730000000 1.0
C      1  0.5762010000000  0.4757960000000  0.4508620000000 1.0
C      1  0.4868090000000  0.5155760000000  0.4537320000000 1.0
C      1  0.4834350000000  0.4881480000000  0.5368980000000 1.0
C      1  0.4850440000000  0.4821230000000  0.4596230000000 1.0
C      1  0.4795670000000  0.5210390000000  0.5450950000000 1.0
C      1  0.4547950000000  0.5941870000000  0.4423830000000 1.0
C      1  0.4605090000000  0.4110260000000  0.5609570000000 1.0
C      1  0.4588820000000  0.4058870000000  0.4404930000000 1.0
C      1  0.4495380000000  0.5938470000000  0.5659360000000 1.0
C      1  0.6044290000000  0.5236900000000  0.5117010000000 1.0
C      1  0.6199580000000  0.4636320000000  0.4877510000000 1.0
C      1  0.6122870000000  0.4694410000000  0.5141900000000 1.0
C      1  0.6031370000000  0.5226240000000  0.4839780000000 1.0
C      1  0.5763740000000  0.4452520000000  0.5128660000000 1.0
C      1  0.5720800000000  0.5587940000000  0.4862680000000 1.0
C      1  0.5707430000000  0.5565680000000  0.5138560000000 1.0
C      1  0.5716200000000  0.4452780000000  0.4807580000000 1.0
C      1  0.5162710000000  0.4880090000000  0.4030790000000 1.0
C      1  0.5116220000000  0.5176890000000  0.5962630000000 1.0
C      1  0.5219500000000  0.5177980000000  0.4102410000000 1.0
C      1  0.5172080000000  0.4857640000000  0.6026870000000 1.0
C      1  0.5434630000000  0.4129640000000  0.5104770000000 1.0
C      1  0.5476570000000  0.5904000000000  0.4857410000000 1.0
C      1  0.5447350000000  0.5867150000000  0.5167620000000 1.0
C      1  0.5366030000000  0.4093180000000  0.4783160000000 1.0
C      1  0.4796100000000  0.5166830000000  0.4222610000000 1.0
C      1  0.4874590000000  0.4839930000000  0.5904600000000 1.0
C      1  0.4850330000000  0.4857960000000  0.4119000000000 1.0
C      1  0.4760620000000  0.5106380000000  0.5775850000000 1.0
C      1  0.5376730000000  0.4762760000000  0.5102750000000 1.0
C      1  0.5437050000000  0.5253690000000  0.4810120000000 1.0
C      1  0.5440320000000  0.5098960000000  0.5116510000000 1.0
C      1  0.5345250000000  0.4740110000000  0.4784470000000 1.0
C      1  0.4577160000000  0.4466840000000  0.4184130000000 1.0
C      1  0.4499050000000  0.5523230000000  0.5928090000000 1.0
C      1  0.4536190000000  0.5574170000000  0.4066820000000 1.0
C      1  0.4599830000000  0.4405030000000  0.5832360000000 1.0
C      1  0.5999970000000  0.4607310000000  0.4699160000000 1.0
C      1  0.5912530000000  0.5448800000000  0.5282610000000 1.0
C      1  0.5894700000000  0.5452820000000  0.4692160000000 1.0
C      1  0.5978220000000  0.4524220000000  0.5385630000000 1.0
C      1  0.5131080000000  0.4437050000000  0.5160320000000 1.0
C      1  0.5095450000000  0.5641370000000  0.4848230000000 1.0
C      1  0.5108760000000  0.5511070000000  0.5132170000000 1.0
C      1  0.5084420000000  0.4446900000000  0.4844960000000 1.0
C      1  0.5123720000000  0.4895320000000  0.5547120000000 1.0
C      1  0.5138890000000  0.5280050000000  0.4408780000000 1.0
C      1  0.5167790000000  0.5224970000000  0.5629970000000 1.0
C      1  0.5143410000000  0.4762730000000  0.4440610000000 1.0
C      1  0.3814850000000  0.4824300000000  0.4828840000000 1.0
C      1  0.3938900000000  0.5132820000000  0.5180390000000 1.0
C      1  0.3914930000000  0.5109880000000  0.4893580000000 1.0
C      1  0.3793880000000  0.4843950000000  0.5163800000000 1.0
C      1  0.5460210000000  0.4452600000000  0.5214630000000 1.0
C      1  0.5416900000000  0.5587490000000  0.4748240000000 1.0
C      1  0.5405340000000  0.5554290000000  0.5294430000000 1.0
C      1  0.5391060000000  0.4413620000000  0.4701110000000 1.0
C      1  0.4790320000000  0.4602380000000  0.4850060000000 1.0
C      1  0.4826150000000  0.5321640000000  0.5130760000000 1.0
C      1  0.4764020000000  0.5349110000000  0.4797360000000 1.0
C      1  0.4709870000000  0.4625020000000  0.5183110000000 1.0
C      1  0.4334610000000  0.4020950000000  0.4627580000000 1.0
C      1  0.4410850000000  0.5916180000000  0.5386840000000 1.0
C      1  0.4427060000000  0.5986440000000  0.4673520000000 1.0
C      1  0.4450680000000  0.4073460000000  0.5342190000000 1.0
C      1  0.4475140000000  0.4283400000000  0.4791880000000 1.0
C      1  0.4455290000000  0.5612040000000  0.5288660000000 1.0
C      1  0.4442540000000  0.5765330000000  0.4831570000000 1.0
C      1  0.4453040000000  0.4297490000000  0.5130910000000 1.0
C      1  0.4760480000000  0.5674580000000  0.4896470000000 1.0
C      1  0.4769090000000  0.4298200000000  0.5257020000000 1.0
C      1  0.4756000000000  0.4140870000000  0.4756670000000 1.0
C      1  0.4739240000000  0.5752250000000  0.5227870000000 1.0
C      1  0.5497250000000  0.4378620000000  0.4378880000000 1.0
C      1  0.5432800000000  0.5701650000000  0.5592370000000 1.0
C      1  0.5463660000000  0.5770870000000  0.4329990000000 1.0
C      1  0.5459150000000  0.4398460000000  0.5550300000000 1.0
C      1  0.4470550000000  0.5041490000000  0.6179680000000 1.0
C      1  0.4594050000000  0.4853220000000  0.3902190000000 1.0
C      1  0.4607490000000  0.4816310000000  0.6108420000000 1.0
C      1  0.4484800000000  0.5091200000000  0.3828630000000 1.0
C      1  0.5101680000000  0.5239550000000  0.4844540000000 1.0
C      1  0.5063460000000  0.4823350000000  0.5162230000000 1.0
C      1  0.5052670000000  0.4903770000000  0.4841380000000 1.0
C      1  0.5105280000000  0.5130470000000  0.5165170000000 1.0
C      1  0.5671190000000  0.6037280000000  0.5304090000000 1.0
C      1  0.5603780000000  0.3927770000000  0.4667440000000 1.0
C      1  0.5679300000000  0.3948040000000  0.5166500000000 1.0
C      1  0.5727300000000  0.6077200000000  0.4796750000000 1.0
C      1  0.5882740000000  0.5428430000000  0.4120250000000 1.0
C      1  0.5611930000000  0.4622720000000  0.5766650000000 1.0
C      1  0.5726790000000  0.4534520000000  0.4298350000000 1.0
C      1  0.5698720000000  0.5571950000000  0.5766810000000 1.0
C      1  0.5438710000000  0.5241810000000  0.5425050000000 1.0
C      1  0.5450180000000  0.4862670000000  0.4421730000000 1.0
C      1  0.5462250000000  0.4930840000000  0.5561090000000 1.0
C      1  0.5427090000000  0.5160540000000  0.4482020000000 1.0
C      1  0.5060550000000  0.4566310000000  0.3948710000000 1.0
C      1  0.4950890000000  0.5350660000000  0.6186020000000 1.0
C      1  0.5161440000000  0.5449650000000  0.3924910000000 1.0
C      1  0.5127180000000  0.4563540000000  0.6054940000000 1.0
C      1  0.4899500000000  0.4189610000000  0.4452170000000 1.0
C      1  0.4926400000000  0.5770060000000  0.5500040000000 1.0
C      1  0.5069310000000  0.5831710000000  0.4351590000000 1.0
C      1  0.4970130000000  0.4249200000000  0.5527000000000 1.0
C      1  0.4737580000000  0.4979220000000  0.4944600000000 1.0
END
