TITL C-2622964-2985-342 -0.00496147474943026 125000 -786.409486284704 0 0 147 (C1) n - 1
REM
REM in /nfs/bkarasulu/CARBON/AIRSS/Generating-Clusters/AIREBO/with-SteepDescent/Higher-Symm/SD-CG/HFTN-CG
REM
REM
REM
REM
REM
REM ./C.cell (b20cbc046b6831c77cfcea5457e17084)
REM
REM compiler GCC version 9.2.1 20190827 (Red Hat 9.2.1-1)
REM options -cpp -mtune=generic -march=x86-64 -g -O0 -fpre-include=/usr/include/finclude/math-vector-fortran.h
REM seed -1463563957 -282332705 40647407 1131141830 1904510434 418655901 1557084992 1525501443 1278393105 -944380086 1178810990 -1643337256 379608622 1284552063 647323138 -1973920226 1473128011 -2086009130 -849875080 170270586 765003221 766182378 -231097062 1576794048 1814632803 573147169 -1713111456 -2033383941 -260508053 1371112200 -1216353961 -2088988800 931388988
REM
CELL 1.54180   50.00000   50.00000   50.00000   90.00000   90.00000   90.00000
LATT -1
SFAC C  
C      1  0.4949420000000  0.5221340000000  0.5122710000000 1.0
C      1  0.4912440000000  0.5247350000000  0.4816240000000 1.0
C      1  0.5638540000000  0.4951930000000  0.4164340000000 1.0
C      1  0.5791050000000  0.4708900000000  0.5939450000000 1.0
C      1  0.4264650000000  0.4810900000000  0.4135310000000 1.0
C      1  0.4513350000000  0.4913610000000  0.5730370000000 1.0
C      1  0.5220420000000  0.4279850000000  0.5726420000000 1.0
C      1  0.5177780000000  0.4328860000000  0.4297320000000 1.0
C      1  0.5895700000000  0.4552640000000  0.5140170000000 1.0
C      1  0.5914890000000  0.4568090000000  0.4867350000000 1.0
C      1  0.5193770000000  0.4798580000000  0.5027820000000 1.0
C      1  0.5074720000000  0.4812060000000  0.4752980000000 1.0
C      1  0.4909430000000  0.4815100000000  0.5797140000000 1.0
C      1  0.4799490000000  0.4905150000000  0.4128350000000 1.0
C      1  0.4788770000000  0.5987900000000  0.4474150000000 1.0
C      1  0.4861090000000  0.5833990000000  0.5581640000000 1.0
C      1  0.4295970000000  0.4437930000000  0.5139160000000 1.0
C      1  0.4356400000000  0.4393370000000  0.4818200000000 1.0
C      1  0.5367850000000  0.5077860000000  0.5942020000000 1.0
C      1  0.5265840000000  0.5159660000000  0.3993600000000 1.0
C      1  0.5478900000000  0.5636600000000  0.5717520000000 1.0
C      1  0.5603750000000  0.5534480000000  0.4359240000000 1.0
C      1  0.5425020000000  0.5354130000000  0.4679100000000 1.0
C      1  0.5419310000000  0.5292230000000  0.5310550000000 1.0
C      1  0.4789770000000  0.4489480000000  0.4134880000000 1.0
C      1  0.4879880000000  0.4480870000000  0.6029240000000 1.0
C      1  0.4151750000000  0.4547490000000  0.4594640000000 1.0
C      1  0.4097720000000  0.4662070000000  0.5268680000000 1.0
C      1  0.5752700000000  0.5123860000000  0.4840150000000 1.0
C      1  0.5803290000000  0.4989190000000  0.5125820000000 1.0
C      1  0.5491180000000  0.5042520000000  0.5129570000000 1.0
C      1  0.5420970000000  0.5045140000000  0.4796810000000 1.0
C      1  0.4451200000000  0.5860720000000  0.4700830000000 1.0
C      1  0.4448190000000  0.5826850000000  0.5257020000000 1.0
C      1  0.5207460000000  0.5472810000000  0.4102420000000 1.0
C      1  0.5166500000000  0.5354990000000  0.5937010000000 1.0
C      1  0.5650090000000  0.5214410000000  0.4465940000000 1.0
C      1  0.5830500000000  0.5184750000000  0.5521190000000 1.0
C      1  0.4566830000000  0.4169030000000  0.4735230000000 1.0
C      1  0.4494360000000  0.4263510000000  0.5353630000000 1.0
C      1  0.5050840000000  0.4991170000000  0.6051380000000 1.0
C      1  0.4932660000000  0.4738880000000  0.3860500000000 1.0
C      1  0.4455250000000  0.4640060000000  0.4351650000000 1.0
C      1  0.4557390000000  0.4637830000000  0.5550330000000 1.0
C      1  0.4479480000000  0.5029100000000  0.5412340000000 1.0
C      1  0.4328950000000  0.5017780000000  0.4379190000000 1.0
C      1  0.4200560000000  0.5416400000000  0.5231040000000 1.0
C      1  0.4285640000000  0.5395480000000  0.4705490000000 1.0
C      1  0.5091060000000  0.4505480000000  0.4674280000000 1.0
C      1  0.5214200000000  0.4474530000000  0.5447630000000 1.0
C      1  0.4710650000000  0.5708400000000  0.4816740000000 1.0
C      1  0.4716160000000  0.5699110000000  0.5124570000000 1.0
C      1  0.4958710000000  0.4556560000000  0.5238530000000 1.0
C      1  0.4902380000000  0.4441360000000  0.4932830000000 1.0
C      1  0.4495620000000  0.5835160000000  0.4376960000000 1.0
C      1  0.4534840000000  0.5721510000000  0.5568670000000 1.0
C      1  0.4696120000000  0.5380580000000  0.4025220000000 1.0
C      1  0.4576620000000  0.5184900000000  0.5850160000000 1.0
C      1  0.4488910000000  0.5524050000000  0.4253580000000 1.0
C      1  0.4435920000000  0.5408390000000  0.5664650000000 1.0
C      1  0.5041480000000  0.4038040000000  0.5317630000000 1.0
C      1  0.5039440000000  0.3990240000000  0.4805240000000 1.0
C      1  0.5375130000000  0.4518850000000  0.4487520000000 1.0
C      1  0.5508140000000  0.4638720000000  0.5501090000000 1.0
C      1  0.5232470000000  0.5410410000000  0.4430880000000 1.0
C      1  0.5345940000000  0.5336550000000  0.5639650000000 1.0
C      1  0.4819870000000  0.4526200000000  0.4470160000000 1.0
C      1  0.4936790000000  0.4543650000000  0.5631910000000 1.0
C      1  0.4948750000000  0.4092850000000  0.4372380000000 1.0
C      1  0.4903510000000  0.4164440000000  0.5773120000000 1.0
C      1  0.4633020000000  0.4808420000000  0.5100110000000 1.0
C      1  0.4545180000000  0.4890020000000  0.4810880000000 1.0
C      1  0.4725850000000  0.5401620000000  0.5242030000000 1.0
C      1  0.4684400000000  0.5422170000000  0.4720620000000 1.0
C      1  0.5400900000000  0.5868380000000  0.5659280000000 1.0
C      1  0.5547850000000  0.5721450000000  0.4584980000000 1.0
C      1  0.5319790000000  0.4842800000000  0.5332760000000 1.0
C      1  0.5278400000000  0.4905310000000  0.4520300000000 1.0
C      1  0.4078220000000  0.4913500000000  0.5076710000000 1.0
C      1  0.4208770000000  0.4925480000000  0.4845870000000 1.0
C      1  0.4792920000000  0.5056160000000  0.5480250000000 1.0
C      1  0.4652750000000  0.5036690000000  0.4400460000000 1.0
C      1  0.4457230000000  0.5252320000000  0.5172890000000 1.0
C      1  0.4480050000000  0.5217630000000  0.4874370000000 1.0
C      1  0.5221510000000  0.4260070000000  0.5183640000000 1.0
C      1  0.5248790000000  0.4255580000000  0.4842710000000 1.0
C      1  0.4798180000000  0.4248860000000  0.5255170000000 1.0
C      1  0.4793180000000  0.4138530000000  0.4936070000000 1.0
C      1  0.4713450000000  0.4211010000000  0.4490370000000 1.0
C      1  0.4682750000000  0.4331920000000  0.5628330000000 1.0
C      1  0.4967840000000  0.5871610000000  0.4692030000000 1.0
C      1  0.4906670000000  0.5897520000000  0.5259330000000 1.0
C      1  0.5665020000000  0.4609970000000  0.4640370000000 1.0
C      1  0.5844890000000  0.4661310000000  0.5458460000000 1.0
C      1  0.5172280000000  0.5885300000000  0.5465960000000 1.0
C      1  0.5308170000000  0.5872970000000  0.4657150000000 1.0
C      1  0.4932230000000  0.5190600000000  0.4052420000000 1.0
C      1  0.4867240000000  0.5201350000000  0.5887190000000 1.0
C      1  0.4177770000000  0.4822580000000  0.4579800000000 1.0
C      1  0.4162760000000  0.4976190000000  0.5385060000000 1.0
C      1  0.5065580000000  0.5145460000000  0.5616700000000 1.0
C      1  0.5107500000000  0.5137700000000  0.4340150000000 1.0
C      1  0.4634210000000  0.4634930000000  0.5883140000000 1.0
C      1  0.4555150000000  0.4687200000000  0.4036630000000 1.0
C      1  0.4924050000000  0.4893960000000  0.5211730000000 1.0
C      1  0.4833930000000  0.4987860000000  0.4684800000000 1.0
C      1  0.5210350000000  0.4860750000000  0.5645480000000 1.0
C      1  0.5024320000000  0.4766040000000  0.4342150000000 1.0
C      1  0.5166640000000  0.5422210000000  0.4855290000000 1.0
C      1  0.5183310000000  0.5435130000000  0.5179940000000 1.0
C      1  0.5554560000000  0.4363070000000  0.4844120000000 1.0
C      1  0.5393690000000  0.4531210000000  0.5092280000000 1.0
C      1  0.4707910000000  0.5354070000000  0.4423790000000 1.0
C      1  0.4750810000000  0.5385800000000  0.5552720000000 1.0
C      1  0.5264690000000  0.4754610000000  0.5964610000000 1.0
C      1  0.5187110000000  0.4845920000000  0.4054470000000 1.0
C      1  0.5238880000000  0.4096050000000  0.4542540000000 1.0
C      1  0.5101430000000  0.3998640000000  0.5589510000000 1.0
C      1  0.5742560000000  0.4121970000000  0.4851110000000 1.0
C      1  0.5662980000000  0.4397350000000  0.5224680000000 1.0
C      1  0.5635330000000  0.5553980000000  0.4856390000000 1.0
C      1  0.5555230000000  0.5578100000000  0.5186020000000 1.0
C      1  0.5152260000000  0.4474790000000  0.5961400000000 1.0
C      1  0.5114970000000  0.4513710000000  0.4045880000000 1.0
C      1  0.4667520000000  0.5655360000000  0.5873690000000 1.0
C      1  0.4798130000000  0.5780780000000  0.4231560000000 1.0
C      1  0.4495670000000  0.4652380000000  0.5267310000000 1.0
C      1  0.4540800000000  0.4619340000000  0.4643410000000 1.0
C      1  0.4296880000000  0.5327490000000  0.4429630000000 1.0
C      1  0.4194690000000  0.5292570000000  0.5505670000000 1.0
C      1  0.5625390000000  0.4806120000000  0.5759130000000 1.0
C      1  0.5499900000000  0.4776260000000  0.4316800000000 1.0
C      1  0.4217060000000  0.5659410000000  0.5104850000000 1.0
C      1  0.4246170000000  0.5648700000000  0.4823380000000 1.0
C      1  0.5600310000000  0.5123620000000  0.5714220000000 1.0
C      1  0.5544910000000  0.5269930000000  0.4153720000000 1.0
C      1  0.5882000000000  0.4684150000000  0.4389190000000 1.0
C      1  0.6005970000000  0.4537330000000  0.5649870000000 1.0
C      1  0.5854730000000  0.5373120000000  0.5031500000000 1.0
C      1  0.5801920000000  0.5402190000000  0.5341490000000 1.0
C      1  0.5902340000000  0.4954170000000  0.5379630000000 1.0
C      1  0.5754090000000  0.4934550000000  0.4580410000000 1.0
C      1  0.5156990000000  0.5737420000000  0.4920820000000 1.0
C      1  0.5274540000000  0.5752390000000  0.5207490000000 1.0
C      1  0.4943360000000  0.5526160000000  0.4301760000000 1.0
C      1  0.4968200000000  0.5557710000000  0.5748540000000 1.0
C      1  0.4362370000000  0.6011290000000  0.4986300000000 1.0
END
