TITL C-2622963-3633-301 -0.00161316159780614 125000 -861.323230897851 0 0 170 (C1) n - 1
REM
REM in /nfs/bkarasulu/CARBON/AIRSS/Generating-Clusters/AIREBO/with-SteepDescent/Higher-Symm/SD-CG/HFTN-CG
REM
REM
REM
REM
REM
REM ./C.cell (b20cbc046b6831c77cfcea5457e17084)
REM
REM compiler GCC version 9.2.1 20190827 (Red Hat 9.2.1-1)
REM options -cpp -mtune=generic -march=x86-64 -g -O0 -fpre-include=/usr/include/finclude/math-vector-fortran.h
REM seed -768848451 -875034403 265901319 124178783 -745156581 -1278767773 1267987928 -892460993 412459097 -1379663951 162376271 525897623 -2075311585 814201153 415196174 -98696437 -417709884 -652934638 -1117778732 -1262868818 538689206 1321177032 -149696635 228202261 319145112 1200616711 1070219382 285971376 -124792776 1375106994 -1176661662 90370951 -1343181278
REM
CELL 1.54180   50.00000   50.00000   50.00000   90.00000   90.00000   90.00000
LATT -1
SFAC C  
C      1  0.4457840000000  0.4798470000000  0.5855770000000 1.0
C      1  0.5182160000000  0.4497980000000  0.5852040000000 1.0
C      1  0.5622120000000  0.5200230000000  0.5786910000000 1.0
C      1  0.4830110000000  0.5491670000000  0.5818750000000 1.0
C      1  0.4538050000000  0.4586260000000  0.4172700000000 1.0
C      1  0.5368950000000  0.4501820000000  0.4215150000000 1.0
C      1  0.5466340000000  0.5397860000000  0.4196400000000 1.0
C      1  0.4723230000000  0.5632890000000  0.4235890000000 1.0
C      1  0.4589320000000  0.5167030000000  0.6020420000000 1.0
C      1  0.4740500000000  0.4498720000000  0.6088670000000 1.0
C      1  0.5344200000000  0.4839560000000  0.5982200000000 1.0
C      1  0.5187030000000  0.5390140000000  0.6024600000000 1.0
C      1  0.4545030000000  0.5149930000000  0.4004910000000 1.0
C      1  0.5069500000000  0.4752390000000  0.3857980000000 1.0
C      1  0.5462480000000  0.4852040000000  0.3862160000000 1.0
C      1  0.5017950000000  0.5352120000000  0.3875820000000 1.0
C      1  0.5586890000000  0.5833490000000  0.4879090000000 1.0
C      1  0.4142990000000  0.5619080000000  0.4819890000000 1.0
C      1  0.4427530000000  0.4117840000000  0.4859640000000 1.0
C      1  0.5882540000000  0.4403480000000  0.4876010000000 1.0
C      1  0.5656680000000  0.5859820000000  0.5204250000000 1.0
C      1  0.4185130000000  0.5614340000000  0.5153500000000 1.0
C      1  0.4351950000000  0.4189450000000  0.5177500000000 1.0
C      1  0.5864080000000  0.4392300000000  0.5215470000000 1.0
C      1  0.5104950000000  0.4245080000000  0.5638050000000 1.0
C      1  0.5828550000000  0.5139280000000  0.5530660000000 1.0
C      1  0.4914220000000  0.5751940000000  0.5616150000000 1.0
C      1  0.4180660000000  0.4869890000000  0.5671920000000 1.0
C      1  0.5118980000000  0.4284650000000  0.4294110000000 1.0
C      1  0.5626500000000  0.5104670000000  0.4260400000000 1.0
C      1  0.4962230000000  0.5804040000000  0.4278960000000 1.0
C      1  0.4332500000000  0.4829320000000  0.4298120000000 1.0
C      1  0.4494050000000  0.4462570000000  0.5894310000000 1.0
C      1  0.5510130000000  0.4577820000000  0.5892850000000 1.0
C      1  0.5441060000000  0.5476950000000  0.5865950000000 1.0
C      1  0.4497680000000  0.5440760000000  0.5868730000000 1.0
C      1  0.4832630000000  0.4415780000000  0.4161270000000 1.0
C      1  0.5464860000000  0.4824430000000  0.4153230000000 1.0
C      1  0.5228230000000  0.5636620000000  0.4145150000000 1.0
C      1  0.4293380000000  0.5078350000000  0.4113560000000 1.0
C      1  0.5180010000000  0.5099730000000  0.4921010000000 1.0
C      1  0.4869040000000  0.5168610000000  0.4891450000000 1.0
C      1  0.4699440000000  0.4909560000000  0.4956930000000 1.0
C      1  0.5015370000000  0.4803700000000  0.4953010000000 1.0
C      1  0.5331050000000  0.5143560000000  0.5185070000000 1.0
C      1  0.4787000000000  0.5298350000000  0.5158960000000 1.0
C      1  0.4659880000000  0.4772150000000  0.5233890000000 1.0
C      1  0.5109820000000  0.4691970000000  0.5225800000000 1.0
C      1  0.4962890000000  0.5582800000000  0.5220680000000 1.0
C      1  0.4368220000000  0.4945660000000  0.5211900000000 1.0
C      1  0.5049180000000  0.4378810000000  0.5265380000000 1.0
C      1  0.5651570000000  0.5073920000000  0.5167060000000 1.0
C      1  0.4899220000000  0.5622100000000  0.4708420000000 1.0
C      1  0.4430650000000  0.4920480000000  0.4804150000000 1.0
C      1  0.5053790000000  0.4508750000000  0.4816910000000 1.0
C      1  0.5608220000000  0.5051820000000  0.4754360000000 1.0
C      1  0.4769440000000  0.5160640000000  0.4173930000000 1.0
C      1  0.5070830000000  0.4655630000000  0.4159670000000 1.0
C      1  0.5186140000000  0.4936580000000  0.4312550000000 1.0
C      1  0.4972830000000  0.5415850000000  0.4185710000000 1.0
C      1  0.4769930000000  0.4933600000000  0.5851360000000 1.0
C      1  0.4940750000000  0.4661120000000  0.5969790000000 1.0
C      1  0.5307980000000  0.5073370000000  0.5815860000000 1.0
C      1  0.4992520000000  0.5195220000000  0.5858020000000 1.0
C      1  0.5311690000000  0.5738800000000  0.4605650000000 1.0
C      1  0.4302770000000  0.5276210000000  0.4525390000000 1.0
C      1  0.4810910000000  0.4337220000000  0.4551490000000 1.0
C      1  0.5722020000000  0.4723140000000  0.4557260000000 1.0
C      1  0.5271760000000  0.5692290000000  0.5450990000000 1.0
C      1  0.4313740000000  0.5278520000000  0.5426850000000 1.0
C      1  0.4699070000000  0.4318880000000  0.5445290000000 1.0
C      1  0.5713060000000  0.4694700000000  0.5429230000000 1.0
C      1  0.4675000000000  0.5678210000000  0.5147420000000 1.0
C      1  0.4296210000000  0.4658510000000  0.5126480000000 1.0
C      1  0.5334730000000  0.4364220000000  0.5183980000000 1.0
C      1  0.5645060000000  0.5388680000000  0.5149310000000 1.0
C      1  0.4644580000000  0.5605650000000  0.4853220000000 1.0
C      1  0.4395690000000  0.4611690000000  0.4837650000000 1.0
C      1  0.5339620000000  0.4405060000000  0.4872830000000 1.0
C      1  0.5657440000000  0.5313640000000  0.4847490000000 1.0
C      1  0.4371720000000  0.5724060000000  0.4590520000000 1.0
C      1  0.4303840000000  0.4301790000000  0.4606950000000 1.0
C      1  0.5679750000000  0.4257840000000  0.4729200000000 1.0
C      1  0.5712200000000  0.5640390000000  0.4627840000000 1.0
C      1  0.4386110000000  0.5708040000000  0.5412210000000 1.0
C      1  0.4271670000000  0.4404690000000  0.5428280000000 1.0
C      1  0.5625720000000  0.4307460000000  0.5443180000000 1.0
C      1  0.5747240000000  0.5632180000000  0.5440220000000 1.0
C      1  0.4396110000000  0.5393500000000  0.4810620000000 1.0
C      1  0.4628820000000  0.4389340000000  0.4822610000000 1.0
C      1  0.5558900000000  0.4630400000000  0.4818500000000 1.0
C      1  0.5408310000000  0.5544190000000  0.4867260000000 1.0
C      1  0.4460280000000  0.5414540000000  0.5152090000000 1.0
C      1  0.4566150000000  0.4453150000000  0.5162380000000 1.0
C      1  0.5588560000000  0.4565540000000  0.5140400000000 1.0
C      1  0.5425410000000  0.5610580000000  0.5205230000000 1.0
C      1  0.4685170000000  0.4731310000000  0.4511780000000 1.0
C      1  0.5326650000000  0.4668310000000  0.4573090000000 1.0
C      1  0.5300100000000  0.5291330000000  0.4667010000000 1.0
C      1  0.4719310000000  0.5280640000000  0.4604970000000 1.0
C      1  0.4753240000000  0.4776730000000  0.5546030000000 1.0
C      1  0.5278870000000  0.4813570000000  0.5468570000000 1.0
C      1  0.5253940000000  0.5210480000000  0.5509390000000 1.0
C      1  0.4709160000000  0.5185530000000  0.5470130000000 1.0
C      1  0.4700760000000  0.3973330000000  0.4768980000000 1.0
C      1  0.6037210000000  0.4608860000000  0.4774090000000 1.0
C      1  0.5373250000000  0.6071730000000  0.4815120000000 1.0
C      1  0.3974130000000  0.5346860000000  0.4735220000000 1.0
C      1  0.4637620000000  0.4022640000000  0.5185840000000 1.0
C      1  0.6009770000000  0.4689530000000  0.5164830000000 1.0
C      1  0.5347530000000  0.6001170000000  0.5212030000000 1.0
C      1  0.3997310000000  0.5345830000000  0.5195340000000 1.0
C      1  0.5957690000000  0.5511630000000  0.5201830000000 1.0
C      1  0.4514760000000  0.5950700000000  0.5211400000000 1.0
C      1  0.4038760000000  0.4482460000000  0.5192640000000 1.0
C      1  0.5490140000000  0.4072820000000  0.5264920000000 1.0
C      1  0.5883000000000  0.5565630000000  0.4882580000000 1.0
C      1  0.4443380000000  0.5873720000000  0.4887320000000 1.0
C      1  0.4138640000000  0.4391880000000  0.4880490000000 1.0
C      1  0.5488730000000  0.4104000000000  0.4925270000000 1.0
C      1  0.4462340000000  0.4605130000000  0.5586440000000 1.0
C      1  0.5392910000000  0.4513030000000  0.5582120000000 1.0
C      1  0.5532390000000  0.5405910000000  0.5542290000000 1.0
C      1  0.4615820000000  0.5501740000000  0.5554950000000 1.0
C      1  0.4452600000000  0.4487520000000  0.4463870000000 1.0
C      1  0.5509940000000  0.4389860000000  0.4504250000000 1.0
C      1  0.5546820000000  0.5439450000000  0.4485680000000 1.0
C      1  0.4579150000000  0.5557340000000  0.4464120000000 1.0
C      1  0.5385940000000  0.4981950000000  0.4554880000000 1.0
C      1  0.5028140000000  0.5392890000000  0.4520660000000 1.0
C      1  0.4516440000000  0.5026430000000  0.4505530000000 1.0
C      1  0.5001780000000  0.4611870000000  0.4489930000000 1.0
C      1  0.5559890000000  0.4959840000000  0.5453580000000 1.0
C      1  0.5059230000000  0.5468130000000  0.5497620000000 1.0
C      1  0.4427150000000  0.5003280000000  0.5513640000000 1.0
C      1  0.4938100000000  0.4513030000000  0.5538600000000 1.0
C      1  0.4551850000000  0.4225390000000  0.5665540000000 1.0
C      1  0.5770310000000  0.4591230000000  0.5683920000000 1.0
C      1  0.5400490000000  0.5750870000000  0.5692580000000 1.0
C      1  0.4240300000000  0.5422780000000  0.5658700000000 1.0
C      1  0.4750870000000  0.4134040000000  0.4322420000000 1.0
C      1  0.5726600000000  0.4678440000000  0.4293190000000 1.0
C      1  0.5351400000000  0.5836690000000  0.4354060000000 1.0
C      1  0.4170500000000  0.5276300000000  0.4280650000000 1.0
C      1  0.6106050000000  0.5205380000000  0.4691670000000 1.0
C      1  0.4865400000000  0.6154000000000  0.4787000000000 1.0
C      1  0.3905100000000  0.4790560000000  0.4829750000000 1.0
C      1  0.5222450000000  0.3953110000000  0.4816430000000 1.0
C      1  0.6050740000000  0.5235750000000  0.5025840000000 1.0
C      1  0.4824670000000  0.6045670000000  0.5108040000000 1.0
C      1  0.3927580000000  0.4803170000000  0.5170900000000 1.0
C      1  0.5179650000000  0.3997750000000  0.5150810000000 1.0
C      1  0.5104800000000  0.5856190000000  0.5126900000000 1.0
C      1  0.4092410000000  0.5081750000000  0.5126300000000 1.0
C      1  0.4885790000000  0.4148480000000  0.5135780000000 1.0
C      1  0.5904900000000  0.4929750000000  0.5052190000000 1.0
C      1  0.5084050000000  0.5893640000000  0.4796510000000 1.0
C      1  0.4118030000000  0.5054270000000  0.4801450000000 1.0
C      1  0.4968350000000  0.4179640000000  0.4807420000000 1.0
C      1  0.5919510000000  0.4921810000000  0.4711640000000 1.0
C      1  0.3966740000000  0.4788950000000  0.5508730000000 1.0
C      1  0.5112600000000  0.4020610000000  0.5483450000000 1.0
C      1  0.6036170000000  0.5153380000000  0.5355660000000 1.0
C      1  0.4871190000000  0.5958380000000  0.5433870000000 1.0
C      1  0.4116270000000  0.4814040000000  0.4560550000000 1.0
C      1  0.5161240000000  0.4135990000000  0.4530570000000 1.0
C      1  0.5858220000000  0.5143550000000  0.4460770000000 1.0
C      1  0.4923130000000  0.5965700000000  0.4505660000000 1.0
C      1  0.4993660000000  0.4998780000000  0.5453370000000 1.0
C      1  0.4868010000000  0.4953050000000  0.4330040000000 1.0
END
