TITL C-2622954-8726-109 0.000476131957336282 125000 -477.748730824573 0 0 84 (C1) n - 1
REM
REM in /nfs/bkarasulu/CARBON/AIRSS/Generating-Clusters/AIREBO/with-SteepDescent/Higher-Symm/SD-CG/HFTN-CG
REM
REM
REM
REM
REM
REM ./C.cell (b20cbc046b6831c77cfcea5457e17084)
REM
REM compiler GCC version 9.2.1 20190827 (Red Hat 9.2.1-1)
REM options -cpp -mtune=generic -march=x86-64 -g -O0 -fpre-include=/usr/include/finclude/math-vector-fortran.h
REM seed 1569705826 859088871 -1741141486 1370207503 -1817708591 1867285236 877321204 1294077000 330640277 -132903645 -400052414 1764363645 -845924682 -127582065 1236645400 781185204 -1938960940 -1588952895 -1565994232 -1144623010 146189418 471922019 1829370816 914266863 1960064354 -775329726 -1557635343 897190994 1141435716 -1689781376 301367194 -741724243 -401085805
REM
CELL 1.54180   50.00000   50.00000   50.00000   90.00000   90.00000   90.00000
LATT -1
SFAC C  
C      1  0.4209130000000  0.4516300000000  0.4749400000000 1.0
C      1  0.4645110000000  0.4266100000000  0.5519140000000 1.0
C      1  0.5473760000000  0.5577980000000  0.4625650000000 1.0
C      1  0.5027020000000  0.4786490000000  0.4922920000000 1.0
C      1  0.5530000000000  0.4613320000000  0.4332780000000 1.0
C      1  0.5319880000000  0.5615610000000  0.4339750000000 1.0
C      1  0.4737990000000  0.5528030000000  0.5553470000000 1.0
C      1  0.5291460000000  0.4689650000000  0.5573660000000 1.0
C      1  0.5103100000000  0.4787770000000  0.5815690000000 1.0
C      1  0.4401810000000  0.5275690000000  0.4506100000000 1.0
C      1  0.4849210000000  0.5004260000000  0.5781440000000 1.0
C      1  0.4443740000000  0.4606160000000  0.5486230000000 1.0
C      1  0.4413290000000  0.4294520000000  0.4706190000000 1.0
C      1  0.4274060000000  0.5035720000000  0.4672450000000 1.0
C      1  0.4638140000000  0.4707680000000  0.4602250000000 1.0
C      1  0.4687160000000  0.5063370000000  0.5563960000000 1.0
C      1  0.4867430000000  0.3916680000000  0.5162830000000 1.0
C      1  0.5808390000000  0.4810920000000  0.4778050000000 1.0
C      1  0.4689580000000  0.5232780000000  0.4413900000000 1.0
C      1  0.4671040000000  0.5735060000000  0.5717450000000 1.0
C      1  0.5568360000000  0.5395160000000  0.4354020000000 1.0
C      1  0.4868670000000  0.4774740000000  0.4421360000000 1.0
C      1  0.5430530000000  0.4454210000000  0.4911910000000 1.0
C      1  0.5631500000000  0.5121230000000  0.4381370000000 1.0
C      1  0.5104180000000  0.5717310000000  0.4857200000000 1.0
C      1  0.5729270000000  0.5439370000000  0.5021850000000 1.0
C      1  0.4713370000000  0.4421690000000  0.4759240000000 1.0
C      1  0.4591310000000  0.4233200000000  0.5793750000000 1.0
C      1  0.4996280000000  0.5518060000000  0.5398100000000 1.0
C      1  0.4307450000000  0.4423140000000  0.5069380000000 1.0
C      1  0.5305370000000  0.5728270000000  0.5753260000000 1.0
C      1  0.4326330000000  0.4765970000000  0.4648000000000 1.0
C      1  0.4733350000000  0.4871050000000  0.5344370000000 1.0
C      1  0.5366170000000  0.5239430000000  0.5237750000000 1.0
C      1  0.4968420000000  0.4042030000000  0.4943620000000 1.0
C      1  0.5588820000000  0.5254880000000  0.4831020000000 1.0
C      1  0.5487580000000  0.4554050000000  0.4608420000000 1.0
C      1  0.5377680000000  0.4804690000000  0.4740870000000 1.0
C      1  0.4581400000000  0.5308940000000  0.5480410000000 1.0
C      1  0.4942400000000  0.5689330000000  0.5122400000000 1.0
C      1  0.5437290000000  0.4995550000000  0.5544310000000 1.0
C      1  0.5542490000000  0.5645360000000  0.5101800000000 1.0
C      1  0.5841050000000  0.5278350000000  0.5221340000000 1.0
C      1  0.5115000000000  0.4825890000000  0.4198640000000 1.0
C      1  0.4561490000000  0.4873200000000  0.5093210000000 1.0
C      1  0.5239190000000  0.4945760000000  0.5281420000000 1.0
C      1  0.4324980000000  0.5049720000000  0.5147660000000 1.0
C      1  0.4786170000000  0.5187160000000  0.4729020000000 1.0
C      1  0.4962080000000  0.5291850000000  0.5145440000000 1.0
C      1  0.5295200000000  0.5317570000000  0.4698710000000 1.0
C      1  0.5033700000000  0.5387450000000  0.4845880000000 1.0
C      1  0.4909830000000  0.5673470000000  0.4597690000000 1.0
C      1  0.5721930000000  0.5040600000000  0.4641160000000 1.0
C      1  0.5136820000000  0.4500580000000  0.5002170000000 1.0
C      1  0.5382970000000  0.5513140000000  0.5298590000000 1.0
C      1  0.4661720000000  0.5502250000000  0.4714830000000 1.0
C      1  0.5044150000000  0.5590130000000  0.4359120000000 1.0
C      1  0.4702330000000  0.5477010000000  0.5051200000000 1.0
C      1  0.4952050000000  0.4986870000000  0.5163160000000 1.0
C      1  0.5414360000000  0.5756850000000  0.4871910000000 1.0
C      1  0.5315340000000  0.5227290000000  0.5707990000000 1.0
C      1  0.5258380000000  0.5510640000000  0.5585820000000 1.0
C      1  0.5633420000000  0.5036720000000  0.5281700000000 1.0
C      1  0.4779040000000  0.4569090000000  0.5441470000000 1.0
C      1  0.4374070000000  0.4354110000000  0.5329730000000 1.0
C      1  0.4942150000000  0.5342890000000  0.4235500000000 1.0
C      1  0.5221650000000  0.5125570000000  0.4491330000000 1.0
C      1  0.4418480000000  0.5293280000000  0.4844910000000 1.0
C      1  0.4232060000000  0.4783100000000  0.5529940000000 1.0
C      1  0.5095150000000  0.4875010000000  0.4611390000000 1.0
C      1  0.5132940000000  0.5105780000000  0.5885550000000 1.0
C      1  0.4739500000000  0.4912030000000  0.4832690000000 1.0
C      1  0.5550170000000  0.4628720000000  0.5360860000000 1.0
C      1  0.4144730000000  0.4950440000000  0.5325930000000 1.0
C      1  0.4430150000000  0.5343610000000  0.5181030000000 1.0
C      1  0.5632500000000  0.4670530000000  0.5034190000000 1.0
C      1  0.4533260000000  0.4590480000000  0.4967070000000 1.0
C      1  0.4828110000000  0.5018550000000  0.4198930000000 1.0
C      1  0.5441510000000  0.4913690000000  0.4235020000000 1.0
C      1  0.5505450000000  0.4979680000000  0.4971860000000 1.0
C      1  0.5203210000000  0.5145790000000  0.4160210000000 1.0
C      1  0.5083800000000  0.4638320000000  0.5307020000000 1.0
C      1  0.4952480000000  0.4300050000000  0.4875560000000 1.0
C      1  0.4787930000000  0.4025020000000  0.5395390000000 1.0
END
