TITL C-2622966-9038-725 0.000464211836015343 125000 -754.251343233988 0 0 139 (C1) n - 1
REM
REM in /nfs/bkarasulu/CARBON/AIRSS/Generating-Clusters/AIREBO/with-SteepDescent/Higher-Symm/SD-CG/HFTN-CG
REM
REM
REM
REM
REM
REM ./C.cell (b20cbc046b6831c77cfcea5457e17084)
REM
REM compiler GCC version 9.2.1 20190827 (Red Hat 9.2.1-1)
REM options -cpp -mtune=generic -march=x86-64 -g -O0 -fpre-include=/usr/include/finclude/math-vector-fortran.h
REM seed 655763685 -1474363052 1148452958 2069798487 1327808970 -1233014092 2023267457 1613906175 -1798425172 771011416 -19952468 1159810972 -1784772325 1145487506 -1812972225 -1232036172 -320883348 1970836084 -1207348571 428828793 1391647707 -478121975 -375855058 -280637381 -1279966924 -603558378 -128263289 -1071463367 -755178917 1028866191 607848404 309210798 -1711322283
REM
CELL 1.54180   50.00000   50.00000   50.00000   90.00000   90.00000   90.00000
LATT -1
SFAC C  
C      1  0.4957980000000  0.4345760000000  0.5451240000000 1.0
C      1  0.5578640000000  0.4502030000000  0.5359150000000 1.0
C      1  0.5720650000000  0.5038060000000  0.5390500000000 1.0
C      1  0.5430420000000  0.5631740000000  0.5382340000000 1.0
C      1  0.4709900000000  0.5666510000000  0.5410720000000 1.0
C      1  0.4323570000000  0.5237580000000  0.5368210000000 1.0
C      1  0.4356640000000  0.4574170000000  0.5385960000000 1.0
C      1  0.4940890000000  0.5751270000000  0.5062640000000 1.0
C      1  0.4439610000000  0.5349660000000  0.5002320000000 1.0
C      1  0.4204200000000  0.4809600000000  0.4971190000000 1.0
C      1  0.4637800000000  0.4281160000000  0.5022620000000 1.0
C      1  0.5423040000000  0.4218850000000  0.5051990000000 1.0
C      1  0.5704730000000  0.4957560000000  0.5001510000000 1.0
C      1  0.5438950000000  0.5676980000000  0.4889750000000 1.0
C      1  0.4782410000000  0.3991960000000  0.5067320000000 1.0
C      1  0.5727290000000  0.4196260000000  0.5120080000000 1.0
C      1  0.5972460000000  0.5089860000000  0.5159060000000 1.0
C      1  0.5493140000000  0.5830520000000  0.5143280000000 1.0
C      1  0.4670060000000  0.5909140000000  0.5194400000000 1.0
C      1  0.4122130000000  0.5365510000000  0.5123170000000 1.0
C      1  0.4206710000000  0.4541960000000  0.5120720000000 1.0
C      1  0.4239250000000  0.4272130000000  0.5011640000000 1.0
C      1  0.5074750000000  0.4022810000000  0.5054320000000 1.0
C      1  0.5864900000000  0.4426070000000  0.5041680000000 1.0
C      1  0.5936440000000  0.5396210000000  0.5096240000000 1.0
C      1  0.5252500000000  0.6006520000000  0.5077330000000 1.0
C      1  0.4424700000000  0.5846430000000  0.5000730000000 1.0
C      1  0.3971450000000  0.5135300000000  0.4980800000000 1.0
C      1  0.5320260000000  0.4396300000000  0.5768270000000 1.0
C      1  0.5608490000000  0.4796580000000  0.5805050000000 1.0
C      1  0.5629000000000  0.5438590000000  0.5803720000000 1.0
C      1  0.5112300000000  0.5516830000000  0.5772910000000 1.0
C      1  0.4520570000000  0.5480900000000  0.5802010000000 1.0
C      1  0.4368210000000  0.4946020000000  0.5688690000000 1.0
C      1  0.4595050000000  0.4322880000000  0.5794030000000 1.0
C      1  0.5496600000000  0.4570590000000  0.5909740000000 1.0
C      1  0.5532760000000  0.5116440000000  0.5842020000000 1.0
C      1  0.5345190000000  0.5389230000000  0.5931590000000 1.0
C      1  0.4781240000000  0.5588830000000  0.5816570000000 1.0
C      1  0.4498330000000  0.5166590000000  0.5914240000000 1.0
C      1  0.4608930000000  0.4845390000000  0.5898710000000 1.0
C      1  0.4744350000000  0.4541020000000  0.5896310000000 1.0
C      1  0.5370980000000  0.5027310000000  0.5581750000000 1.0
C      1  0.5198640000000  0.5304530000000  0.5521100000000 1.0
C      1  0.4872060000000  0.5392150000000  0.5481270000000 1.0
C      1  0.4695620000000  0.5165440000000  0.5636300000000 1.0
C      1  0.4747550000000  0.4829820000000  0.5619990000000 1.0
C      1  0.5021090000000  0.4498020000000  0.5745390000000 1.0
C      1  0.5183300000000  0.4757420000000  0.5668790000000 1.0
C      1  0.5049000000000  0.5390460000000  0.4136160000000 1.0
C      1  0.4755630000000  0.5287030000000  0.4155350000000 1.0
C      1  0.4694510000000  0.5018050000000  0.3976500000000 1.0
C      1  0.4523800000000  0.4834780000000  0.4083130000000 1.0
C      1  0.5108990000000  0.4615220000000  0.4126810000000 1.0
C      1  0.5292490000000  0.4880520000000  0.4049450000000 1.0
C      1  0.5303730000000  0.5220540000000  0.4038460000000 1.0
C      1  0.4858700000000  0.5889780000000  0.4763160000000 1.0
C      1  0.4409460000000  0.5263270000000  0.4674620000000 1.0
C      1  0.4167620000000  0.4750420000000  0.4660820000000 1.0
C      1  0.4651420000000  0.4132120000000  0.4717310000000 1.0
C      1  0.5466940000000  0.4353700000000  0.4747890000000 1.0
C      1  0.5799350000000  0.4884090000000  0.4694780000000 1.0
C      1  0.5605350000000  0.5564970000000  0.4615170000000 1.0
C      1  0.5261770000000  0.4574640000000  0.5259210000000 1.0
C      1  0.5443330000000  0.4867690000000  0.5290260000000 1.0
C      1  0.5349920000000  0.5356370000000  0.5228100000000 1.0
C      1  0.5014830000000  0.5374070000000  0.5173200000000 1.0
C      1  0.4608660000000  0.5057630000000  0.5323280000000 1.0
C      1  0.4631310000000  0.4720160000000  0.5358410000000 1.0
C      1  0.4922300000000  0.4598810000000  0.5251280000000 1.0
C      1  0.4242140000000  0.4837490000000  0.5491900000000 1.0
C      1  0.4654660000000  0.4250350000000  0.5532280000000 1.0
C      1  0.5406050000000  0.4299290000000  0.5515660000000 1.0
C      1  0.5735710000000  0.4747610000000  0.5534170000000 1.0
C      1  0.5665630000000  0.5531160000000  0.5545680000000 1.0
C      1  0.4971330000000  0.5762060000000  0.5594140000000 1.0
C      1  0.4380450000000  0.5495200000000  0.5554640000000 1.0
C      1  0.4662890000000  0.4275450000000  0.4217930000000 1.0
C      1  0.5212130000000  0.4328010000000  0.4204830000000 1.0
C      1  0.5775850000000  0.4587720000000  0.4338140000000 1.0
C      1  0.5548670000000  0.5336480000000  0.4116280000000 1.0
C      1  0.5184050000000  0.5654160000000  0.4303050000000 1.0
C      1  0.4552110000000  0.5511000000000  0.4225310000000 1.0
C      1  0.4164820000000  0.5045420000000  0.4257060000000 1.0
C      1  0.5171440000000  0.4705520000000  0.4819460000000 1.0
C      1  0.5543380000000  0.5039510000000  0.4606290000000 1.0
C      1  0.5314360000000  0.5230090000000  0.4727400000000 1.0
C      1  0.4984830000000  0.5311240000000  0.4753880000000 1.0
C      1  0.4722020000000  0.5130190000000  0.4691070000000 1.0
C      1  0.4680420000000  0.4863910000000  0.4862140000000 1.0
C      1  0.4893160000000  0.4579300000000  0.4679970000000 1.0
C      1  0.5796390000000  0.4697570000000  0.5200720000000 1.0
C      1  0.5818120000000  0.5363800000000  0.5389530000000 1.0
C      1  0.5141980000000  0.5808960000000  0.5331190000000 1.0
C      1  0.4426860000000  0.5598550000000  0.5233970000000 1.0
C      1  0.4123820000000  0.4990110000000  0.5247880000000 1.0
C      1  0.4454700000000  0.4276780000000  0.5286820000000 1.0
C      1  0.5197070000000  0.4172480000000  0.5303010000000 1.0
C      1  0.5166620000000  0.5544860000000  0.4921330000000 1.0
C      1  0.4741510000000  0.5475560000000  0.5023030000000 1.0
C      1  0.4456950000000  0.5010930000000  0.5027670000000 1.0
C      1  0.4764250000000  0.4556100000000  0.4980250000000 1.0
C      1  0.5149850000000  0.4408720000000  0.4983970000000 1.0
C      1  0.5437430000000  0.4771370000000  0.4963990000000 1.0
C      1  0.5503950000000  0.5233580000000  0.4986740000000 1.0
C      1  0.4969360000000  0.4200870000000  0.4784410000000 1.0
C      1  0.5690170000000  0.4596900000000  0.4829650000000 1.0
C      1  0.5740830000000  0.5427080000000  0.4891480000000 1.0
C      1  0.5173670000000  0.5967860000000  0.4820190000000 1.0
C      1  0.4561300000000  0.5776060000000  0.4737690000000 1.0
C      1  0.4108750000000  0.5104370000000  0.4720230000000 1.0
C      1  0.4352810000000  0.4278660000000  0.4744320000000 1.0
C      1  0.5741560000000  0.5457420000000  0.4368400000000 1.0
C      1  0.5078650000000  0.5908710000000  0.4502350000000 1.0
C      1  0.4425150000000  0.5544960000000  0.4540640000000 1.0
C      1  0.4005900000000  0.4943370000000  0.4458750000000 1.0
C      1  0.4482790000000  0.4251830000000  0.4442520000000 1.0
C      1  0.5375810000000  0.4205640000000  0.4469640000000 1.0
C      1  0.5932930000000  0.4755620000000  0.4449480000000 1.0
C      1  0.5187580000000  0.5270070000000  0.4417820000000 1.0
C      1  0.4963590000000  0.5526070000000  0.4501440000000 1.0
C      1  0.4730070000000  0.5027700000000  0.4374070000000 1.0
C      1  0.4615820000000  0.4707330000000  0.4369340000000 1.0
C      1  0.4882340000000  0.4496670000000  0.4353960000000 1.0
C      1  0.5277530000000  0.4762630000000  0.4501350000000 1.0
C      1  0.5462470000000  0.4969460000000  0.4304730000000 1.0
C      1  0.4715570000000  0.5682440000000  0.4453700000000 1.0
C      1  0.4403580000000  0.5118310000000  0.4357630000000 1.0
C      1  0.4365340000000  0.4554830000000  0.4542710000000 1.0
C      1  0.5048280000000  0.4231740000000  0.4488110000000 1.0
C      1  0.5516950000000  0.4544050000000  0.4470640000000 1.0
C      1  0.5749790000000  0.5145630000000  0.4283090000000 1.0
C      1  0.5397180000000  0.5788180000000  0.4523670000000 1.0
C      1  0.5066780000000  0.4981520000000  0.4361820000000 1.0
C      1  0.5045270000000  0.5010270000000  0.5810640000000 1.0
C      1  0.4973990000000  0.4964440000000  0.4035170000000 1.0
C      1  0.4927790000000  0.5072760000000  0.5206580000000 1.0
C      1  0.4997300000000  0.4962920000000  0.5476250000000 1.0
C      1  0.4968660000000  0.4898720000000  0.4975820000000 1.0
END
