TITL C-2622968-4806-588 0.000494915879963964 125000 -514.156671202555 0 0 91 (C1) n - 1
REM
REM in /nfs/bkarasulu/CARBON/AIRSS/Generating-Clusters/AIREBO/with-SteepDescent/Higher-Symm/SD-CG/HFTN-CG
REM
REM
REM
REM
REM
REM ./C.cell (b20cbc046b6831c77cfcea5457e17084)
REM
REM compiler GCC version 9.2.1 20190827 (Red Hat 9.2.1-1)
REM options -cpp -mtune=generic -march=x86-64 -g -O0 -fpre-include=/usr/include/finclude/math-vector-fortran.h
REM seed -861024997 301860986 2052524519 -84313591 -578663687 1089599406 936455565 603419777 55385208 -901853838 873050279 283390944 -288008864 578487224 -1562212481 -619439111 -1225421525 -138702038 -255697636 -878174540 -1124237866 -1921038468 -1317836295 -121160319 325622925 -1150404778 -712348733 1995454776 -2066298114 820499321 -956634830 -672525592 275843947
REM
CELL 1.54180   50.00000   50.00000   50.00000   90.00000   90.00000   90.00000
LATT -1
SFAC C  
C      1  0.5145800000000  0.5864970000000  0.4741610000000 1.0
C      1  0.4421510000000  0.5651520000000  0.4712470000000 1.0
C      1  0.4113320000000  0.5097740000000  0.4769110000000 1.0
C      1  0.4447180000000  0.4281520000000  0.4706310000000 1.0
C      1  0.5150890000000  0.4139190000000  0.4731240000000 1.0
C      1  0.5799570000000  0.4483750000000  0.4722060000000 1.0
C      1  0.5825490000000  0.5379310000000  0.4768610000000 1.0
C      1  0.4953570000000  0.5303970000000  0.4832450000000 1.0
C      1  0.4722600000000  0.5130140000000  0.4977700000000 1.0
C      1  0.4703410000000  0.4834560000000  0.4904970000000 1.0
C      1  0.4962140000000  0.4679250000000  0.4994100000000 1.0
C      1  0.5236840000000  0.4732490000000  0.4861500000000 1.0
C      1  0.5324270000000  0.5018950000000  0.4986580000000 1.0
C      1  0.5210770000000  0.5259260000000  0.4847270000000 1.0
C      1  0.4473350000000  0.4761700000000  0.4663840000000 1.0
C      1  0.4864930000000  0.4529500000000  0.4704580000000 1.0
C      1  0.5325850000000  0.4489020000000  0.4641160000000 1.0
C      1  0.5574400000000  0.4929560000000  0.4779330000000 1.0
C      1  0.5414760000000  0.5460520000000  0.4664010000000 1.0
C      1  0.4890280000000  0.5572380000000  0.4647390000000 1.0
C      1  0.4572810000000  0.5281270000000  0.4712260000000 1.0
C      1  0.4485790000000  0.5475400000000  0.4975020000000 1.0
C      1  0.4310120000000  0.4895000000000  0.4923330000000 1.0
C      1  0.4664410000000  0.4369640000000  0.4923790000000 1.0
C      1  0.5283690000000  0.4347040000000  0.4947210000000 1.0
C      1  0.5691310000000  0.4666250000000  0.4947460000000 1.0
C      1  0.5574730000000  0.5508330000000  0.4958640000000 1.0
C      1  0.4981110000000  0.5682230000000  0.4956150000000 1.0
C      1  0.5222300000000  0.4706510000000  0.4432940000000 1.0
C      1  0.5414910000000  0.4960910000000  0.4513690000000 1.0
C      1  0.5298510000000  0.5260300000000  0.4458210000000 1.0
C      1  0.4991320000000  0.5340530000000  0.4436470000000 1.0
C      1  0.4696520000000  0.5196490000000  0.4455800000000 1.0
C      1  0.4649310000000  0.4882970000000  0.4438250000000 1.0
C      1  0.4903060000000  0.4693850000000  0.4467110000000 1.0
C      1  0.4726700000000  0.5623460000000  0.5411450000000 1.0
C      1  0.4337560000000  0.5177110000000  0.5385870000000 1.0
C      1  0.4495970000000  0.4612670000000  0.5353800000000 1.0
C      1  0.4951140000000  0.4349200000000  0.5375700000000 1.0
C      1  0.5494750000000  0.4635760000000  0.5410600000000 1.0
C      1  0.5610120000000  0.5168540000000  0.5414400000000 1.0
C      1  0.5297390000000  0.5560760000000  0.5388120000000 1.0
C      1  0.4344600000000  0.5196320000000  0.5077310000000 1.0
C      1  0.4482700000000  0.4630290000000  0.5049260000000 1.0
C      1  0.4966990000000  0.4284740000000  0.5054210000000 1.0
C      1  0.5496060000000  0.4475540000000  0.5122730000000 1.0
C      1  0.5659980000000  0.5206000000000  0.5088790000000 1.0
C      1  0.5269840000000  0.5593460000000  0.5083190000000 1.0
C      1  0.4723290000000  0.5619100000000  0.5110900000000 1.0
C      1  0.4726400000000  0.4799300000000  0.4125230000000 1.0
C      1  0.4976490000000  0.4643870000000  0.4126100000000 1.0
C      1  0.5263920000000  0.4708340000000  0.4094890000000 1.0
C      1  0.5357760000000  0.4981640000000  0.4180830000000 1.0
C      1  0.5205340000000  0.5229680000000  0.4119520000000 1.0
C      1  0.4908880000000  0.5281170000000  0.4127680000000 1.0
C      1  0.4684900000000  0.5099850000000  0.4110820000000 1.0
C      1  0.4443280000000  0.5641540000000  0.5530870000000 1.0
C      1  0.4175960000000  0.4941760000000  0.5496330000000 1.0
C      1  0.4620340000000  0.4339890000000  0.5436450000000 1.0
C      1  0.5204740000000  0.4226380000000  0.5507670000000 1.0
C      1  0.5712450000000  0.4843820000000  0.5422020000000 1.0
C      1  0.5596590000000  0.5487580000000  0.5424980000000 1.0
C      1  0.5172340000000  0.5799200000000  0.5535010000000 1.0
C      1  0.4953090000000  0.4680880000000  0.5840340000000 1.0
C      1  0.5198910000000  0.4785350000000  0.5753280000000 1.0
C      1  0.5292230000000  0.5016300000000  0.5882590000000 1.0
C      1  0.5175560000000  0.5254110000000  0.5794580000000 1.0
C      1  0.4883210000000  0.5272550000000  0.5753620000000 1.0
C      1  0.4705510000000  0.5081930000000  0.5856870000000 1.0
C      1  0.4733470000000  0.4826480000000  0.5741500000000 1.0
C      1  0.5231990000000  0.4782870000000  0.5447900000000 1.0
C      1  0.5308790000000  0.5052990000000  0.5307340000000 1.0
C      1  0.5159090000000  0.5299670000000  0.5466600000000 1.0
C      1  0.4829750000000  0.5337130000000  0.5453640000000 1.0
C      1  0.4663490000000  0.5122210000000  0.5305820000000 1.0
C      1  0.4716300000000  0.4820050000000  0.5433330000000 1.0
C      1  0.4974710000000  0.4667380000000  0.5309470000000 1.0
C      1  0.4352480000000  0.4485150000000  0.4584690000000 1.0
C      1  0.4925340000000  0.4219910000000  0.4647410000000 1.0
C      1  0.5616650000000  0.4396370000000  0.4567860000000 1.0
C      1  0.5818460000000  0.5129410000000  0.4730310000000 1.0
C      1  0.5320810000000  0.5751650000000  0.4599230000000 1.0
C      1  0.4621700000000  0.5696600000000  0.4562540000000 1.0
C      1  0.4243880000000  0.5302280000000  0.4688530000000 1.0
C      1  0.4233380000000  0.4697870000000  0.5486600000000 1.0
C      1  0.4658720000000  0.4155030000000  0.5187520000000 1.0
C      1  0.5452110000000  0.4313970000000  0.5419200000000 1.0
C      1  0.5758920000000  0.4926920000000  0.5133190000000 1.0
C      1  0.5754670000000  0.5626820000000  0.5221720000000 1.0
C      1  0.4922410000000  0.5829380000000  0.5532650000000 1.0
C      1  0.4287060000000  0.5445790000000  0.5524340000000 1.0
END
