TITL C-2622960-5345-221 -0.00270438997463581 125000 -951.249545275727 0 0 180 (C1) n - 1
REM
REM in /nfs/bkarasulu/CARBON/AIRSS/Generating-Clusters/AIREBO/with-SteepDescent/Higher-Symm/SD-CG/HFTN-CG
REM
REM
REM
REM
REM
REM ./C.cell (b20cbc046b6831c77cfcea5457e17084)
REM
REM compiler GCC version 9.2.1 20190827 (Red Hat 9.2.1-1)
REM options -cpp -mtune=generic -march=x86-64 -g -O0 -fpre-include=/usr/include/finclude/math-vector-fortran.h
REM seed 1546987013 1402116166 -672563773 364767883 -2045064549 -1211467841 -798421895 1825187486 1820876984 1845942923 -1059128395 -259311284 -1696255965 571000683 1772329072 -30319232 -1068314473 -2029501806 -43373586 -961375119 64832668 -1996504934 1223974399 1159889366 1042317825 521622655 -120826585 236588843 -1425219384 1676355416 -859681648 601703543 1618911658
REM
CELL 1.54180   50.00000   50.00000   50.00000   90.00000   90.00000   90.00000
LATT -1
SFAC C  
C      1  0.4312370000000  0.5777120000000  0.5459430000000 1.0
C      1  0.4304480000000  0.5824690000000  0.4606890000000 1.0
C      1  0.4183760000000  0.5059940000000  0.4215370000000 1.0
C      1  0.4152390000000  0.4528830000000  0.4262510000000 1.0
C      1  0.4263190000000  0.4166140000000  0.4787960000000 1.0
C      1  0.4252040000000  0.4365670000000  0.5704940000000 1.0
C      1  0.4219560000000  0.5176040000000  0.5894700000000 1.0
C      1  0.5412280000000  0.5820010000000  0.4879920000000 1.0
C      1  0.5415870000000  0.5288740000000  0.4294720000000 1.0
C      1  0.5545600000000  0.4589920000000  0.4342820000000 1.0
C      1  0.5606920000000  0.4276670000000  0.4787120000000 1.0
C      1  0.5520860000000  0.4367920000000  0.5605290000000 1.0
C      1  0.5377670000000  0.4810810000000  0.5752440000000 1.0
C      1  0.5500280000000  0.5583510000000  0.5483390000000 1.0
C      1  0.5965470000000  0.4932820000000  0.5804710000000 1.0
C      1  0.5948010000000  0.5280520000000  0.5512930000000 1.0
C      1  0.5836580000000  0.5559420000000  0.5140770000000 1.0
C      1  0.5801380000000  0.5366050000000  0.4584610000000 1.0
C      1  0.5704120000000  0.4884860000000  0.4404020000000 1.0
C      1  0.5820440000000  0.4481530000000  0.4777460000000 1.0
C      1  0.5881040000000  0.4553280000000  0.5253180000000 1.0
C      1  0.3984880000000  0.4420360000000  0.5284470000000 1.0
C      1  0.4102310000000  0.4779340000000  0.5661120000000 1.0
C      1  0.4073810000000  0.5347080000000  0.5652040000000 1.0
C      1  0.4245750000000  0.5716290000000  0.5070240000000 1.0
C      1  0.4003390000000  0.5449670000000  0.4488150000000 1.0
C      1  0.3979360000000  0.4931880000000  0.4394010000000 1.0
C      1  0.4124330000000  0.4441670000000  0.4666750000000 1.0
C      1  0.4330050000000  0.5480960000000  0.5383910000000 1.0
C      1  0.4295640000000  0.5515610000000  0.4748390000000 1.0
C      1  0.4282120000000  0.5172540000000  0.4506470000000 1.0
C      1  0.4317000000000  0.4734870000000  0.4477130000000 1.0
C      1  0.4393280000000  0.4430430000000  0.4958010000000 1.0
C      1  0.4333260000000  0.4549890000000  0.5429180000000 1.0
C      1  0.4393230000000  0.5049760000000  0.5628890000000 1.0
C      1  0.5649650000000  0.5229350000000  0.5958110000000 1.0
C      1  0.5743360000000  0.5993690000000  0.5344870000000 1.0
C      1  0.6030000000000  0.5804610000000  0.4742320000000 1.0
C      1  0.5887320000000  0.5249940000000  0.4085310000000 1.0
C      1  0.6080180000000  0.4485690000000  0.4318750000000 1.0
C      1  0.6230190000000  0.4301980000000  0.5014490000000 1.0
C      1  0.5967550000000  0.4525010000000  0.5750100000000 1.0
C      1  0.4823020000000  0.5571880000000  0.4002200000000 1.0
C      1  0.4858190000000  0.4705540000000  0.3934870000000 1.0
C      1  0.4881930000000  0.4021170000000  0.4547840000000 1.0
C      1  0.4798890000000  0.4155570000000  0.5505480000000 1.0
C      1  0.4716040000000  0.4874700000000  0.5994180000000 1.0
C      1  0.4945370000000  0.5820060000000  0.5813140000000 1.0
C      1  0.4841960000000  0.6011730000000  0.4819290000000 1.0
C      1  0.5299430000000  0.4530740000000  0.4546050000000 1.0
C      1  0.5361680000000  0.4392110000000  0.4915720000000 1.0
C      1  0.5270130000000  0.4468490000000  0.5479320000000 1.0
C      1  0.5482260000000  0.5256220000000  0.5506350000000 1.0
C      1  0.5238590000000  0.5506310000000  0.5314330000000 1.0
C      1  0.5368390000000  0.5495260000000  0.4554310000000 1.0
C      1  0.5235600000000  0.5000210000000  0.4305710000000 1.0
C      1  0.4668740000000  0.4576880000000  0.4261110000000 1.0
C      1  0.4683950000000  0.4251830000000  0.4965330000000 1.0
C      1  0.4618740000000  0.4415190000000  0.5555670000000 1.0
C      1  0.4633910000000  0.5166310000000  0.5838920000000 1.0
C      1  0.4821240000000  0.5743420000000  0.5545140000000 1.0
C      1  0.4774720000000  0.5691870000000  0.4621670000000 1.0
C      1  0.4558470000000  0.5426670000000  0.4043640000000 1.0
C      1  0.5458130000000  0.5721270000000  0.5750100000000 1.0
C      1  0.5314410000000  0.6033340000000  0.4633920000000 1.0
C      1  0.5320910000000  0.5437330000000  0.4040640000000 1.0
C      1  0.5259950000000  0.4376760000000  0.3975150000000 1.0
C      1  0.5361880000000  0.3871570000000  0.4619740000000 1.0
C      1  0.5242100000000  0.4046310000000  0.5859600000000 1.0
C      1  0.5225890000000  0.4855490000000  0.6057070000000 1.0
C      1  0.5220360000000  0.5854760000000  0.5801440000000 1.0
C      1  0.5015730000000  0.5999740000000  0.4543120000000 1.0
C      1  0.5046110000000  0.5401260000000  0.4010010000000 1.0
C      1  0.4962570000000  0.4428440000000  0.4036690000000 1.0
C      1  0.5103270000000  0.3954090000000  0.4705940000000 1.0
C      1  0.4964450000000  0.4175020000000  0.5803330000000 1.0
C      1  0.4991630000000  0.4921050000000  0.6150160000000 1.0
C      1  0.4512560000000  0.4996820000000  0.3745940000000 1.0
C      1  0.4726590000000  0.4209370000000  0.4122170000000 1.0
C      1  0.4530110000000  0.3826960000000  0.5245650000000 1.0
C      1  0.4745850000000  0.4324700000000  0.5999120000000 1.0
C      1  0.4630840000000  0.5588100000000  0.6172860000000 1.0
C      1  0.4663940000000  0.6179980000000  0.5238370000000 1.0
C      1  0.4790910000000  0.5969540000000  0.4335390000000 1.0
C      1  0.4834410000000  0.5423810000000  0.5106170000000 1.0
C      1  0.4988720000000  0.5367040000000  0.4850390000000 1.0
C      1  0.4802110000000  0.5115140000000  0.4719400000000 1.0
C      1  0.4928860000000  0.4894950000000  0.4539590000000 1.0
C      1  0.4937100000000  0.4689380000000  0.4939970000000 1.0
C      1  0.4947320000000  0.4610520000000  0.5247990000000 1.0
C      1  0.4892730000000  0.5140680000000  0.5285370000000 1.0
C      1  0.5714600000000  0.5197330000000  0.4331580000000 1.0
C      1  0.5849820000000  0.4588150000000  0.4483700000000 1.0
C      1  0.5999280000000  0.4447360000000  0.5026340000000 1.0
C      1  0.5768990000000  0.4543570000000  0.5552060000000 1.0
C      1  0.5727610000000  0.5112350000000  0.5692710000000 1.0
C      1  0.5706770000000  0.5723750000000  0.5317910000000 1.0
C      1  0.5859260000000  0.5602630000000  0.4821900000000 1.0
C      1  0.4491470000000  0.4935740000000  0.4263310000000 1.0
C      1  0.4440500000000  0.4423710000000  0.4542570000000 1.0
C      1  0.4258460000000  0.4282490000000  0.5232860000000 1.0
C      1  0.4421740000000  0.4727830000000  0.5705160000000 1.0
C      1  0.4389110000000  0.5483130000000  0.5714930000000 1.0
C      1  0.4510340000000  0.5811590000000  0.5115680000000 1.0
C      1  0.4337260000000  0.5472250000000  0.4424850000000 1.0
C      1  0.4645820000000  0.5521570000000  0.4357080000000 1.0
C      1  0.4812820000000  0.4871890000000  0.4227930000000 1.0
C      1  0.4752870000000  0.4322240000000  0.4638960000000 1.0
C      1  0.4865540000000  0.4298810000000  0.5223430000000 1.0
C      1  0.4765080000000  0.4669980000000  0.5727020000000 1.0
C      1  0.4706670000000  0.5431640000000  0.5622450000000 1.0
C      1  0.4781920000000  0.5708590000000  0.4961250000000 1.0
C      1  0.4826320000000  0.5842540000000  0.4087030000000 1.0
C      1  0.4733130000000  0.4831300000000  0.3731260000000 1.0
C      1  0.4800950000000  0.3992430000000  0.4274720000000 1.0
C      1  0.4672850000000  0.3879820000000  0.5446450000000 1.0
C      1  0.4808050000000  0.4568540000000  0.6111160000000 1.0
C      1  0.4781950000000  0.5770620000000  0.6035120000000 1.0
C      1  0.4754420000000  0.6214440000000  0.5000910000000 1.0
C      1  0.5911680000000  0.5322390000000  0.5251550000000 1.0
C      1  0.5534720000000  0.5504440000000  0.4847740000000 1.0
C      1  0.5662740000000  0.5190640000000  0.4876130000000 1.0
C      1  0.5572120000000  0.4964990000000  0.4678360000000 1.0
C      1  0.5706010000000  0.4758980000000  0.4872800000000 1.0
C      1  0.5687710000000  0.4827860000000  0.5205250000000 1.0
C      1  0.5870910000000  0.5086140000000  0.5081210000000 1.0
C      1  0.4108210000000  0.5012520000000  0.5436510000000 1.0
C      1  0.4053960000000  0.5305830000000  0.5314970000000 1.0
C      1  0.4082920000000  0.5426100000000  0.4998220000000 1.0
C      1  0.4034160000000  0.5214470000000  0.4732350000000 1.0
C      1  0.4086420000000  0.4874470000000  0.4684780000000 1.0
C      1  0.4134390000000  0.4650280000000  0.4938350000000 1.0
C      1  0.4077970000000  0.4726060000000  0.5265740000000 1.0
C      1  0.5076770000000  0.4362320000000  0.4734370000000 1.0
C      1  0.5188530000000  0.4297690000000  0.5243010000000 1.0
C      1  0.5045440000000  0.4860620000000  0.5699490000000 1.0
C      1  0.5030760000000  0.5400150000000  0.5552370000000 1.0
C      1  0.5109360000000  0.5797120000000  0.4985720000000 1.0
C      1  0.4915520000000  0.5341310000000  0.4382790000000 1.0
C      1  0.5159940000000  0.4682490000000  0.4297060000000 1.0
C      1  0.4473050000000  0.4773200000000  0.4770020000000 1.0
C      1  0.4630560000000  0.4667330000000  0.5014530000000 1.0
C      1  0.4546790000000  0.4767330000000  0.5278390000000 1.0
C      1  0.4593600000000  0.5049210000000  0.5370970000000 1.0
C      1  0.4547300000000  0.5333990000000  0.5239530000000 1.0
C      1  0.4463950000000  0.5331490000000  0.4936590000000 1.0
C      1  0.4506800000000  0.5066590000000  0.4640380000000 1.0
C      1  0.5026980000000  0.4458210000000  0.5680460000000 1.0
C      1  0.4956880000000  0.5147870000000  0.5751900000000 1.0
C      1  0.5019980000000  0.5734740000000  0.5303340000000 1.0
C      1  0.5110410000000  0.5692290000000  0.4653310000000 1.0
C      1  0.4971670000000  0.5137870000000  0.4153320000000 1.0
C      1  0.4928960000000  0.4444430000000  0.4374700000000 1.0
C      1  0.5146410000000  0.4136600000000  0.4963190000000 1.0
C      1  0.4453780000000  0.5381500000000  0.6030910000000 1.0
C      1  0.4597880000000  0.5919170000000  0.5415270000000 1.0
C      1  0.4542560000000  0.5885590000000  0.4491540000000 1.0
C      1  0.4438110000000  0.5150050000000  0.4008060000000 1.0
C      1  0.4445000000000  0.4364540000000  0.4207760000000 1.0
C      1  0.4429780000000  0.4047440000000  0.5061470000000 1.0
C      1  0.4504320000000  0.4339500000000  0.5856720000000 1.0
C      1  0.5132170000000  0.5298050000000  0.4589460000000 1.0
C      1  0.5240620000000  0.4980450000000  0.4645250000000 1.0
C      1  0.5249590000000  0.4705380000000  0.4845320000000 1.0
C      1  0.5372700000000  0.4838610000000  0.5133000000000 1.0
C      1  0.5190220000000  0.4789440000000  0.5400130000000 1.0
C      1  0.5197480000000  0.5127700000000  0.5435640000000 1.0
C      1  0.5275720000000  0.5385720000000  0.5033560000000 1.0
C      1  0.5571530000000  0.6111320000000  0.4798910000000 1.0
C      1  0.5487410000000  0.5598770000000  0.3897340000000 1.0
C      1  0.5472680000000  0.4460060000000  0.4074510000000 1.0
C      1  0.5581580000000  0.4024510000000  0.4694520000000 1.0
C      1  0.5476730000000  0.4142100000000  0.5749130000000 1.0
C      1  0.5503950000000  0.4720720000000  0.6055030000000 1.0
C      1  0.5660170000000  0.5709830000000  0.5935920000000 1.0
C      1  0.4925780000000  0.5000140000000  0.4989810000000 1.0
C      1  0.4498150000000  0.5040420000000  0.4967380000000 1.0
C      1  0.6113510000000  0.5000420000000  0.4963480000000 1.0
C      1  0.5614030000000  0.4833050000000  0.5541070000000 1.0
C      1  0.5231150000000  0.5079930000000  0.4983280000000 1.0
END
