TITL C-2622967-6265-397 -0.000103201231933858 125000 -564.34980719221 0 0 98 (C1) n - 1
REM
REM in /nfs/bkarasulu/CARBON/AIRSS/Generating-Clusters/AIREBO/with-SteepDescent/Higher-Symm/SD-CG/HFTN-CG
REM
REM
REM
REM
REM
REM ./C.cell (b20cbc046b6831c77cfcea5457e17084)
REM
REM compiler GCC version 9.2.1 20190827 (Red Hat 9.2.1-1)
REM options -cpp -mtune=generic -march=x86-64 -g -O0 -fpre-include=/usr/include/finclude/math-vector-fortran.h
REM seed -487689381 1817581902 688168486 383834406 1481666641 -987846737 -389345230 1144625944 367618325 -1556101075 1596456232 895763331 -409666584 -482476075 2124005118 274767756 2132966394 -1900728964 -1590501215 -2035997853 -524684956 1636768747 -1945419921 -112102927 -1596610217 -2145149565 1399567355 506031389 137997609 -545529600 1385068867 1202877620 -591003012
REM
CELL 1.54180   50.00000   50.00000   50.00000   90.00000   90.00000   90.00000
LATT -1
SFAC C  
C      1  0.4678400000000  0.4204600000000  0.4985310000000 1.0
C      1  0.4217220000000  0.4731650000000  0.5100010000000 1.0
C      1  0.4331720000000  0.5434820000000  0.4955340000000 1.0
C      1  0.4956660000000  0.5828190000000  0.4930030000000 1.0
C      1  0.5652880000000  0.5584650000000  0.5061840000000 1.0
C      1  0.5780910000000  0.4875090000000  0.4977190000000 1.0
C      1  0.5471520000000  0.4140290000000  0.5092990000000 1.0
C      1  0.4436570000000  0.5296030000000  0.4264620000000 1.0
C      1  0.4705870000000  0.5448190000000  0.4360910000000 1.0
C      1  0.5346850000000  0.5290670000000  0.4411820000000 1.0
C      1  0.5506990000000  0.5000030000000  0.4335150000000 1.0
C      1  0.5393720000000  0.4746340000000  0.4471490000000 1.0
C      1  0.5117800000000  0.4599030000000  0.4338120000000 1.0
C      1  0.4619010000000  0.4700690000000  0.4454960000000 1.0
C      1  0.5579400000000  0.5282200000000  0.4783980000000 1.0
C      1  0.5759230000000  0.4564940000000  0.4839470000000 1.0
C      1  0.5162200000000  0.4355740000000  0.4786630000000 1.0
C      1  0.4543660000000  0.4451620000000  0.4794450000000 1.0
C      1  0.4373370000000  0.4982150000000  0.4726130000000 1.0
C      1  0.4616590000000  0.5511200000000  0.4786100000000 1.0
C      1  0.5193620000000  0.5616660000000  0.4800420000000 1.0
C      1  0.5291250000000  0.5131920000000  0.5780800000000 1.0
C      1  0.5282210000000  0.4857010000000  0.5789810000000 1.0
C      1  0.5059190000000  0.4693060000000  0.5781330000000 1.0
C      1  0.4791240000000  0.4754810000000  0.5776050000000 1.0
C      1  0.4675370000000  0.5005100000000  0.5795200000000 1.0
C      1  0.4800640000000  0.5253410000000  0.5801350000000 1.0
C      1  0.5075770000000  0.5305950000000  0.5789270000000 1.0
C      1  0.4293840000000  0.4681530000000  0.4819020000000 1.0
C      1  0.4251970000000  0.5240850000000  0.4706570000000 1.0
C      1  0.4749650000000  0.5783140000000  0.4702570000000 1.0
C      1  0.5528010000000  0.5607430000000  0.4771860000000 1.0
C      1  0.5769320000000  0.5077800000000  0.4743290000000 1.0
C      1  0.5489250000000  0.4351280000000  0.4831730000000 1.0
C      1  0.4838910000000  0.4303520000000  0.4702930000000 1.0
C      1  0.4691040000000  0.5020760000000  0.4772510000000 1.0
C      1  0.4788470000000  0.5283440000000  0.4636250000000 1.0
C      1  0.5094300000000  0.5344410000000  0.4622570000000 1.0
C      1  0.5285860000000  0.5169390000000  0.4800750000000 1.0
C      1  0.5265510000000  0.4863060000000  0.4755390000000 1.0
C      1  0.5067080000000  0.4629550000000  0.4664300000000 1.0
C      1  0.4776420000000  0.4696620000000  0.4756460000000 1.0
C      1  0.4337580000000  0.4711010000000  0.5566580000000 1.0
C      1  0.4341320000000  0.5332730000000  0.5505250000000 1.0
C      1  0.4855440000000  0.5710190000000  0.5513700000000 1.0
C      1  0.5463000000000  0.5558540000000  0.5532040000000 1.0
C      1  0.5732210000000  0.4961360000000  0.5520560000000 1.0
C      1  0.5431210000000  0.4425310000000  0.5540850000000 1.0
C      1  0.4836590000000  0.4296540000000  0.5492850000000 1.0
C      1  0.4675580000000  0.5257210000000  0.5093530000000 1.0
C      1  0.4972850000000  0.5422670000000  0.5104520000000 1.0
C      1  0.5291340000000  0.5303450000000  0.5081880000000 1.0
C      1  0.5389720000000  0.4879890000000  0.5056490000000 1.0
C      1  0.5200350000000  0.4601740000000  0.5098120000000 1.0
C      1  0.4861010000000  0.4608840000000  0.5074330000000 1.0
C      1  0.4557580000000  0.4940010000000  0.5074730000000 1.0
C      1  0.5455660000000  0.5664850000000  0.5263480000000 1.0
C      1  0.5754490000000  0.5064550000000  0.5233160000000 1.0
C      1  0.5522010000000  0.4381120000000  0.5276190000000 1.0
C      1  0.4892350000000  0.4203400000000  0.5220660000000 1.0
C      1  0.4349440000000  0.4575620000000  0.5291450000000 1.0
C      1  0.4257290000000  0.5290910000000  0.5226510000000 1.0
C      1  0.4809610000000  0.5764580000000  0.5229990000000 1.0
C      1  0.4242030000000  0.5018020000000  0.5161160000000 1.0
C      1  0.4597490000000  0.5585910000000  0.5106910000000 1.0
C      1  0.5188010000000  0.5684450000000  0.5133550000000 1.0
C      1  0.5616860000000  0.5308440000000  0.5180690000000 1.0
C      1  0.5598460000000  0.4623050000000  0.5118020000000 1.0
C      1  0.5168220000000  0.4275740000000  0.5105760000000 1.0
C      1  0.4583110000000  0.4451910000000  0.5192410000000 1.0
C      1  0.4218490000000  0.5323200000000  0.4438820000000 1.0
C      1  0.4745080000000  0.5751300000000  0.4421440000000 1.0
C      1  0.5529230000000  0.5512130000000  0.4460790000000 1.0
C      1  0.5788420000000  0.5012340000000  0.4478060000000 1.0
C      1  0.5586490000000  0.4526290000000  0.4558900000000 1.0
C      1  0.4981450000000  0.4314560000000  0.4433600000000 1.0
C      1  0.4352740000000  0.4643070000000  0.4500660000000 1.0
C      1  0.5191920000000  0.5297060000000  0.5407040000000 1.0
C      1  0.5377120000000  0.5036490000000  0.5358690000000 1.0
C      1  0.5255220000000  0.4753830000000  0.5404640000000 1.0
C      1  0.4954600000000  0.4663480000000  0.5396770000000 1.0
C      1  0.4669630000000  0.4802130000000  0.5364740000000 1.0
C      1  0.4659300000000  0.5116330000000  0.5411890000000 1.0
C      1  0.4885120000000  0.5326090000000  0.5418540000000 1.0
C      1  0.4713680000000  0.4827970000000  0.4225380000000 1.0
C      1  0.4597560000000  0.5065220000000  0.4121410000000 1.0
C      1  0.4794750000000  0.5301320000000  0.4091570000000 1.0
C      1  0.5043400000000  0.5306080000000  0.3993310000000 1.0
C      1  0.5291220000000  0.5146750000000  0.4120980000000 1.0
C      1  0.5122400000000  0.4914480000000  0.3982570000000 1.0
C      1  0.4970260000000  0.4763340000000  0.4146040000000 1.0
C      1  0.4408260000000  0.5017650000000  0.5617510000000 1.0
C      1  0.4637890000000  0.5464860000000  0.5606250000000 1.0
C      1  0.5139740000000  0.5564910000000  0.5610010000000 1.0
C      1  0.5537930000000  0.5232790000000  0.5585380000000 1.0
C      1  0.5521490000000  0.4735150000000  0.5615250000000 1.0
C      1  0.5111290000000  0.4438350000000  0.5598190000000 1.0
C      1  0.4625030000000  0.4541960000000  0.5579260000000 1.0
END
