TITL C-2622956-4641-502 0.001094333999586 125000 -218.847388190087 0 0 44 (C1) n - 1
REM
REM in /nfs/bkarasulu/CARBON/AIRSS/Generating-Clusters/AIREBO/with-SteepDescent/Higher-Symm/SD-CG/HFTN-CG
REM
REM
REM
REM
REM
REM ./C.cell (b20cbc046b6831c77cfcea5457e17084)
REM
REM compiler GCC version 9.2.1 20190827 (Red Hat 9.2.1-1)
REM options -cpp -mtune=generic -march=x86-64 -g -O0 -fpre-include=/usr/include/finclude/math-vector-fortran.h
REM seed 819693930 869882796 2062664278 424026299 230201401 -1513627538 -1958199504 -1935881631 1390541723 -1353280471 -1629890371 1010878230 -1426773482 -1824388242 367135544 -926480571 1025335505 -497160085 -1344406586 -588852005 -136294142 931226539 1819600453 -367609462 -866560480 -773271823 -963666188 1932338620 1267865798 -120186055 -599622772 618228892 -1317822546
REM
CELL 1.54180   50.00000   50.00000   50.00000   90.00000   90.00000   90.00000
LATT -1
SFAC C  
C      1  0.5266520000000  0.4660190000000  0.5379630000000 1.0
C      1  0.5195660000000  0.5233920000000  0.5372100000000 1.0
C      1  0.5205150000000  0.5522230000000  0.5187440000000 1.0
C      1  0.5215300000000  0.5319480000000  0.4649080000000 1.0
C      1  0.5163570000000  0.4997800000000  0.4746620000000 1.0
C      1  0.5248240000000  0.4668520000000  0.4754510000000 1.0
C      1  0.5148300000000  0.4585800000000  0.5068950000000 1.0
C      1  0.4838310000000  0.4657100000000  0.5085470000000 1.0
C      1  0.4973180000000  0.4805040000000  0.5353570000000 1.0
C      1  0.4871700000000  0.5131030000000  0.5363100000000 1.0
C      1  0.4899540000000  0.5386850000000  0.5140590000000 1.0
C      1  0.4939840000000  0.5321480000000  0.4808750000000 1.0
C      1  0.4825610000000  0.5029240000000  0.4699200000000 1.0
C      1  0.4979700000000  0.4606440000000  0.4554380000000 1.0
C      1  0.4385110000000  0.5294580000000  0.5280950000000 1.0
C      1  0.4337590000000  0.5394410000000  0.4969600000000 1.0
C      1  0.4428670000000  0.5218530000000  0.4703420000000 1.0
C      1  0.4246220000000  0.4940760000000  0.4666420000000 1.0
C      1  0.4376600000000  0.4693000000000  0.4807480000000 1.0
C      1  0.4445610000000  0.4704240000000  0.5140470000000 1.0
C      1  0.4340350000000  0.4965470000000  0.5310660000000 1.0
C      1  0.4616640000000  0.4494810000000  0.4938410000000 1.0
C      1  0.4638310000000  0.4810100000000  0.5396050000000 1.0
C      1  0.4578910000000  0.5129840000000  0.5495300000000 1.0
C      1  0.4597670000000  0.5525340000000  0.5153900000000 1.0
C      1  0.4650220000000  0.5436930000000  0.4831850000000 1.0
C      1  0.4566360000000  0.4940270000000  0.4559160000000 1.0
C      1  0.4709640000000  0.4649520000000  0.4661970000000 1.0
C      1  0.5233340000000  0.5481620000000  0.4399600000000 1.0
C      1  0.5023190000000  0.4515090000000  0.4311810000000 1.0
C      1  0.5355910000000  0.4388350000000  0.4654950000000 1.0
C      1  0.5304200000000  0.4332310000000  0.5195500000000 1.0
C      1  0.5303820000000  0.4547860000000  0.5642960000000 1.0
C      1  0.5239930000000  0.5296930000000  0.5654590000000 1.0
C      1  0.5238920000000  0.5817560000000  0.5191090000000 1.0
C      1  0.5654700000000  0.4710180000000  0.5067950000000 1.0
C      1  0.5511650000000  0.4827240000000  0.5279560000000 1.0
C      1  0.5495580000000  0.5101030000000  0.5282670000000 1.0
C      1  0.5455330000000  0.5326740000000  0.5083780000000 1.0
C      1  0.5467170000000  0.5256200000000  0.4816790000000 1.0
C      1  0.5618570000000  0.5038410000000  0.4723350000000 1.0
C      1  0.5560680000000  0.4777150000000  0.4811110000000 1.0
C      1  0.4862000000000  0.4957740000000  0.5002990000000 1.0
C      1  0.5142810000000  0.5079210000000  0.5073930000000 1.0
END
