TITL C-2622955-8511-687 -0.00155568286369062 125000 -630.066419634086 0 0 111 (C1) n - 1
REM
REM in /nfs/bkarasulu/CARBON/AIRSS/Generating-Clusters/AIREBO/with-SteepDescent/Higher-Symm/SD-CG/HFTN-CG
REM
REM
REM
REM
REM
REM ./C.cell (b20cbc046b6831c77cfcea5457e17084)
REM
REM compiler GCC version 9.2.1 20190827 (Red Hat 9.2.1-1)
REM options -cpp -mtune=generic -march=x86-64 -g -O0 -fpre-include=/usr/include/finclude/math-vector-fortran.h
REM seed 779324210 998220287 903300782 -1545826138 -1213186791 1724797260 129365865 131165315 -1268131826 -676671176 -2091822451 1388901769 -2103094008 1699588709 -573049061 408690908 659118036 -1752660714 1942045081 1984785856 -636454593 520157859 1642876001 1254822936 1425255558 1981041579 -2026544783 866960932 312090126 -1387889104 -321914553 405950418 1322026531
REM
CELL 1.54180   50.00000   50.00000   50.00000   90.00000   90.00000   90.00000
LATT -1
SFAC C  
C      1  0.4524880000000  0.4666020000000  0.4461450000000 1.0
C      1  0.4488210000000  0.5379670000000  0.5454410000000 1.0
C      1  0.5516500000000  0.4707690000000  0.5576730000000 1.0
C      1  0.5541760000000  0.5306800000000  0.4467470000000 1.0
C      1  0.4232450000000  0.5353180000000  0.4722480000000 1.0
C      1  0.4648800000000  0.4688380000000  0.5786610000000 1.0
C      1  0.5797000000000  0.5331150000000  0.5379170000000 1.0
C      1  0.5303060000000  0.4650860000000  0.4218820000000 1.0
C      1  0.5104700000000  0.5429920000000  0.4267440000000 1.0
C      1  0.4261500000000  0.4592800000000  0.4839160000000 1.0
C      1  0.4879990000000  0.5455430000000  0.5721790000000 1.0
C      1  0.5714810000000  0.4574060000000  0.5101470000000 1.0
C      1  0.5033800000000  0.4467120000000  0.5287970000000 1.0
C      1  0.5518680000000  0.5721310000000  0.5034470000000 1.0
C      1  0.4937790000000  0.4438610000000  0.4710650000000 1.0
C      1  0.4699580000000  0.5617170000000  0.5076470000000 1.0
C      1  0.5103100000000  0.4342520000000  0.5596810000000 1.0
C      1  0.5713030000000  0.5697100000000  0.4804770000000 1.0
C      1  0.4888290000000  0.4294990000000  0.4417820000000 1.0
C      1  0.4408400000000  0.5734150000000  0.5127200000000 1.0
C      1  0.4751770000000  0.5363810000000  0.4597000000000 1.0
C      1  0.4562790000000  0.4668810000000  0.5311950000000 1.0
C      1  0.5245900000000  0.5373100000000  0.5398050000000 1.0
C      1  0.5408270000000  0.4633720000000  0.4728920000000 1.0
C      1  0.4940010000000  0.5194950000000  0.5813060000000 1.0
C      1  0.5808260000000  0.4823390000000  0.5014830000000 1.0
C      1  0.5026800000000  0.5172600000000  0.4176060000000 1.0
C      1  0.4180290000000  0.4843610000000  0.4940740000000 1.0
C      1  0.5094420000000  0.4507080000000  0.5814950000000 1.0
C      1  0.5895850000000  0.5481550000000  0.4776530000000 1.0
C      1  0.4886910000000  0.4472980000000  0.4212450000000 1.0
C      1  0.4219470000000  0.5538570000000  0.5117650000000 1.0
C      1  0.5024770000000  0.4820600000000  0.4504600000000 1.0
C      1  0.4550830000000  0.5151440000000  0.4976850000000 1.0
C      1  0.4982470000000  0.4845100000000  0.5537330000000 1.0
C      1  0.5504370000000  0.5224180000000  0.4999980000000 1.0
C      1  0.5399310000000  0.3988020000000  0.5166890000000 1.0
C      1  0.5265580000000  0.5876160000000  0.4656130000000 1.0
C      1  0.4699770000000  0.3907070000000  0.4864710000000 1.0
C      1  0.4832980000000  0.6073230000000  0.5448050000000 1.0
C      1  0.5255100000000  0.4826440000000  0.4918210000000 1.0
C      1  0.4965100000000  0.5193660000000  0.4725460000000 1.0
C      1  0.4602150000000  0.4642950000000  0.5038080000000 1.0
C      1  0.5057390000000  0.5179960000000  0.5239950000000 1.0
C      1  0.4683350000000  0.4097230000000  0.5341370000000 1.0
C      1  0.5335810000000  0.5898440000000  0.5424610000000 1.0
C      1  0.5324240000000  0.4066060000000  0.4658600000000 1.0
C      1  0.4675400000000  0.5900330000000  0.4619600000000 1.0
C      1  0.4813980000000  0.5116740000000  0.5442540000000 1.0
C      1  0.5444330000000  0.4921390000000  0.5146170000000 1.0
C      1  0.5197790000000  0.5112090000000  0.4531780000000 1.0
C      1  0.4726800000000  0.4906790000000  0.4920040000000 1.0
C      1  0.4309310000000  0.5242100000000  0.5200020000000 1.0
C      1  0.5232500000000  0.4777930000000  0.5735910000000 1.0
C      1  0.5725840000000  0.5220240000000  0.4740480000000 1.0
C      1  0.4777830000000  0.4763420000000  0.4282060000000 1.0
C      1  0.5291250000000  0.5721730000000  0.5780120000000 1.0
C      1  0.5747670000000  0.4239330000000  0.4716560000000 1.0
C      1  0.4713340000000  0.5757740000000  0.4248200000000 1.0
C      1  0.4220750000000  0.4212110000000  0.4948930000000 1.0
C      1  0.5700760000000  0.4558790000000  0.5388170000000 1.0
C      1  0.5390740000000  0.5449090000000  0.4280820000000 1.0
C      1  0.4291310000000  0.4584340000000  0.4556280000000 1.0
C      1  0.4605440000000  0.5493300000000  0.5666060000000 1.0
C      1  0.5487950000000  0.4108170000000  0.5395240000000 1.0
C      1  0.5273360000000  0.5822110000000  0.4959440000000 1.0
C      1  0.4713370000000  0.3864510000000  0.4598240000000 1.0
C      1  0.4563760000000  0.6095420000000  0.5430700000000 1.0
C      1  0.4711060000000  0.4163120000000  0.5037640000000 1.0
C      1  0.5023290000000  0.5852780000000  0.5353160000000 1.0
C      1  0.5298890000000  0.4183990000000  0.4951430000000 1.0
C      1  0.4964530000000  0.5802970000000  0.4708680000000 1.0
C      1  0.4788740000000  0.4568890000000  0.5500700000000 1.0
C      1  0.5520390000000  0.5465230000000  0.5239250000000 1.0
C      1  0.5199480000000  0.4527150000000  0.4512410000000 1.0
C      1  0.4531640000000  0.5458260000000  0.4827150000000 1.0
C      1  0.4164330000000  0.5042720000000  0.4738820000000 1.0
C      1  0.4685990000000  0.5019490000000  0.5737710000000 1.0
C      1  0.5750410000000  0.5030140000000  0.5246690000000 1.0
C      1  0.5281840000000  0.4983850000000  0.4247160000000 1.0
C      1  0.5320620000000  0.4649810000000  0.5309900000000 1.0
C      1  0.5346730000000  0.5338120000000  0.4737570000000 1.0
C      1  0.4762620000000  0.4711470000000  0.4677130000000 1.0
C      1  0.4696140000000  0.5331360000000  0.5206640000000 1.0
C      1  0.5785040000000  0.4922900000000  0.4754300000000 1.0
C      1  0.4771940000000  0.5063610000000  0.4224630000000 1.0
C      1  0.4212470000000  0.4949160000000  0.5206000000000 1.0
C      1  0.5193370000000  0.5081390000000  0.5781110000000 1.0
C      1  0.5370100000000  0.4349170000000  0.5461780000000 1.0
C      1  0.5453380000000  0.5648460000000  0.4648050000000 1.0
C      1  0.4848370000000  0.4021300000000  0.4421210000000 1.0
C      1  0.4400010000000  0.5987300000000  0.5240770000000 1.0
C      1  0.4478870000000  0.4360650000000  0.4959620000000 1.0
C      1  0.5101270000000  0.5605070000000  0.5561370000000 1.0
C      1  0.5545000000000  0.4399920000000  0.4888360000000 1.0
C      1  0.4892530000000  0.5601070000000  0.4444740000000 1.0
C      1  0.5627830000000  0.5120580000000  0.5554950000000 1.0
C      1  0.5566420000000  0.4808090000000  0.4304550000000 1.0
C      1  0.4326830000000  0.5169640000000  0.4473210000000 1.0
C      1  0.4393520000000  0.4858680000000  0.5685360000000 1.0
C      1  0.4343710000000  0.4805090000000  0.5410310000000 1.0
C      1  0.5377780000000  0.5211710000000  0.5622700000000 1.0
C      1  0.5630950000000  0.4776740000000  0.4576460000000 1.0
C      1  0.4595040000000  0.5201220000000  0.4392470000000 1.0
C      1  0.4478550000000  0.5749760000000  0.4666290000000 1.0
C      1  0.4703210000000  0.4251440000000  0.5538310000000 1.0
C      1  0.5531750000000  0.5741650000000  0.5436920000000 1.0
C      1  0.5293130000000  0.4219160000000  0.4460250000000 1.0
C      1  0.5000150000000  0.4312850000000  0.5004800000000 1.0
C      1  0.4965690000000  0.5765570000000  0.5048980000000 1.0
C      1  0.5020170000000  0.5022980000000  0.4977440000000 1.0
END
