TITL C-2622962-9663-277 0.000471644574291896 125000 -343.525906179029 0 0 68 (C1) n - 1
REM
REM in /nfs/bkarasulu/CARBON/AIRSS/Generating-Clusters/AIREBO/with-SteepDescent/Higher-Symm/SD-CG/HFTN-CG
REM
REM
REM
REM
REM
REM ./C.cell (b20cbc046b6831c77cfcea5457e17084)
REM
REM compiler GCC version 9.2.1 20190827 (Red Hat 9.2.1-1)
REM options -cpp -mtune=generic -march=x86-64 -g -O0 -fpre-include=/usr/include/finclude/math-vector-fortran.h
REM seed 1879870934 95603038 -1284579641 -2043060733 -300982318 -225154962 -608106501 1054228099 1751034992 1730517261 2116407006 -1959796645 1994075786 -941688394 1539819600 -303247783 1607061722 552504332 -1938709211 -348823692 -1241097123 935032346 -1282718428 -616598741 1181077881 -157074226 33461915 1777144766 1520417782 1256623322 744869329 -1227939699 1170476638
REM
CELL 1.54180   50.00000   50.00000   50.00000   90.00000   90.00000   90.00000
LATT -1
SFAC C  
C      1  0.4698900000000  0.4868770000000  0.4571840000000 1.0
C      1  0.5311190000000  0.4722910000000  0.4566670000000 1.0
C      1  0.4982060000000  0.5389290000000  0.4559820000000 1.0
C      1  0.4684390000000  0.5247760000000  0.4213420000000 1.0
C      1  0.4906540000000  0.4533820000000  0.4276760000000 1.0
C      1  0.5309120000000  0.5085820000000  0.4262720000000 1.0
C      1  0.5106120000000  0.4752360000000  0.5228340000000 1.0
C      1  0.5130540000000  0.5208670000000  0.5344630000000 1.0
C      1  0.4775960000000  0.5026420000000  0.5333500000000 1.0
C      1  0.4559320000000  0.5275780000000  0.5699310000000 1.0
C      1  0.5020660000000  0.4633090000000  0.5538260000000 1.0
C      1  0.5432070000000  0.5224460000000  0.5740040000000 1.0
C      1  0.4823650000000  0.4854740000000  0.5068930000000 1.0
C      1  0.5295010000000  0.4966100000000  0.5043300000000 1.0
C      1  0.4911120000000  0.5247200000000  0.5113030000000 1.0
C      1  0.5192350000000  0.4227390000000  0.4749670000000 1.0
C      1  0.5571060000000  0.5314290000000  0.4747090000000 1.0
C      1  0.4358260000000  0.5275600000000  0.4735450000000 1.0
C      1  0.5470190000000  0.4795650000000  0.5524840000000 1.0
C      1  0.4885800000000  0.5500540000000  0.5465620000000 1.0
C      1  0.4634140000000  0.4671590000000  0.5450580000000 1.0
C      1  0.5362730000000  0.4351140000000  0.4958280000000 1.0
C      1  0.5490120000000  0.5587640000000  0.4904240000000 1.0
C      1  0.4188520000000  0.5049590000000  0.4949430000000 1.0
C      1  0.5549030000000  0.4459190000000  0.5132700000000 1.0
C      1  0.5225490000000  0.5632310000000  0.5055130000000 1.0
C      1  0.4269330000000  0.4840740000000  0.5110350000000 1.0
C      1  0.5443470000000  0.5385180000000  0.5519470000000 1.0
C      1  0.4442570000000  0.5221780000000  0.5433180000000 1.0
C      1  0.5091770000000  0.4369240000000  0.5340240000000 1.0
C      1  0.5727670000000  0.4950220000000  0.4497710000000 1.0
C      1  0.4564700000000  0.5667990000000  0.4527680000000 1.0
C      1  0.4556840000000  0.4398500000000  0.4479660000000 1.0
C      1  0.5352800000000  0.4832910000000  0.4270880000000 1.0
C      1  0.4890920000000  0.5403770000000  0.4252700000000 1.0
C      1  0.4723330000000  0.4710030000000  0.4287130000000 1.0
C      1  0.5057270000000  0.4486180000000  0.5022360000000 1.0
C      1  0.5453160000000  0.5200290000000  0.5234260000000 1.0
C      1  0.4512290000000  0.5226060000000  0.5100370000000 1.0
C      1  0.4455950000000  0.4910730000000  0.5337880000000 1.0
C      1  0.5365450000000  0.4568380000000  0.5348980000000 1.0
C      1  0.5195870000000  0.5542240000000  0.5352880000000 1.0
C      1  0.4676040000000  0.5062810000000  0.4850450000000 1.0
C      1  0.5130450000000  0.4763830000000  0.4830240000000 1.0
C      1  0.5116740000000  0.5369250000000  0.4871300000000 1.0
C      1  0.5075890000000  0.4501260000000  0.4534390000000 1.0
C      1  0.5250790000000  0.5194350000000  0.4540230000000 1.0
C      1  0.4586290000000  0.5146710000000  0.4470750000000 1.0
C      1  0.4757700000000  0.4541570000000  0.4647780000000 1.0
C      1  0.5482360000000  0.4991820000000  0.4685520000000 1.0
C      1  0.4659430000000  0.5416760000000  0.4664180000000 1.0
C      1  0.4791600000000  0.4494710000000  0.5234790000000 1.0
C      1  0.5627300000000  0.4941040000000  0.5330620000000 1.0
C      1  0.4645600000000  0.5487180000000  0.5272680000000 1.0
C      1  0.4215740000000  0.5366540000000  0.5011170000000 1.0
C      1  0.4893590000000  0.4274530000000  0.4808630000000 1.0
C      1  0.5638160000000  0.5356880000000  0.5049880000000 1.0
C      1  0.4657030000000  0.4592130000000  0.4956640000000 1.0
C      1  0.5619820000000  0.4930430000000  0.4990770000000 1.0
C      1  0.4754300000000  0.5508190000000  0.4961100000000 1.0
C      1  0.4835720000000  0.5312350000000  0.5681200000000 1.0
C      1  0.4802590000000  0.4759970000000  0.5694640000000 1.0
C      1  0.5310700000000  0.4967040000000  0.5690870000000 1.0
C      1  0.4946390000000  0.5728110000000  0.4939110000000 1.0
C      1  0.4351480000000  0.4612790000000  0.4985730000000 1.0
C      1  0.5733030000000  0.4636500000000  0.5040420000000 1.0
C      1  0.5008010000000  0.5059840000000  0.4781270000000 1.0
C      1  0.4989400000000  0.5027230000000  0.5598220000000 1.0
END
