TITL C-2622968-4806-624 0.00114711777512006 125000 -542.30776276995 0 0 95 (C1) n - 1
REM
REM in /nfs/bkarasulu/CARBON/AIRSS/Generating-Clusters/AIREBO/with-SteepDescent/Higher-Symm/SD-CG/HFTN-CG
REM
REM
REM
REM
REM
REM ./C.cell (b20cbc046b6831c77cfcea5457e17084)
REM
REM compiler GCC version 9.2.1 20190827 (Red Hat 9.2.1-1)
REM options -cpp -mtune=generic -march=x86-64 -g -O0 -fpre-include=/usr/include/finclude/math-vector-fortran.h
REM seed 143932358 -277626606 -705710375 1898748769 -721345720 -2041994122 955284513 -461175151 1671560117 -292904068 947455364 -1722568753 1333939012 398731931 1471589941 -2084327681 1186714743 -2001395922 -137786721 -647578725 1092550840 1258463257 -217066620 -471596840 671621488 -508563149 -1373748388 1163880786 30792747 1867512154 -162688829 -1302087641 621836953
REM
CELL 1.54180   50.00000   50.00000   50.00000   90.00000   90.00000   90.00000
LATT -1
SFAC C  
C      1  0.4769370000000  0.5234170000000  0.4540350000000 1.0
C      1  0.4788340000000  0.5352710000000  0.5462650000000 1.0
C      1  0.4726410000000  0.4301680000000  0.5099290000000 1.0
C      1  0.5297640000000  0.4757300000000  0.4508660000000 1.0
C      1  0.5279750000000  0.4603410000000  0.5460190000000 1.0
C      1  0.5316340000000  0.5640120000000  0.5092870000000 1.0
C      1  0.5281090000000  0.4940060000000  0.4774620000000 1.0
C      1  0.5363310000000  0.5347850000000  0.5049070000000 1.0
C      1  0.5316430000000  0.4814190000000  0.5244160000000 1.0
C      1  0.4766840000000  0.5011840000000  0.4797870000000 1.0
C      1  0.4693670000000  0.4600780000000  0.5104350000000 1.0
C      1  0.4629010000000  0.5162520000000  0.5249910000000 1.0
C      1  0.4847630000000  0.5140050000000  0.4261620000000 1.0
C      1  0.4869080000000  0.5592730000000  0.5305040000000 1.0
C      1  0.4849460000000  0.4176970000000  0.5326260000000 1.0
C      1  0.5339750000000  0.5035090000000  0.4319980000000 1.0
C      1  0.5153390000000  0.4346320000000  0.5425180000000 1.0
C      1  0.5162210000000  0.5718420000000  0.5336540000000 1.0
C      1  0.5051650000000  0.4926120000000  0.5919800000000 1.0
C      1  0.5079930000000  0.4322300000000  0.4197590000000 1.0
C      1  0.5076840000000  0.5823820000000  0.4692170000000 1.0
C      1  0.4992100000000  0.5438240000000  0.5888210000000 1.0
C      1  0.4858380000000  0.5627880000000  0.4171940000000 1.0
C      1  0.4896030000000  0.4224290000000  0.4671870000000 1.0
C      1  0.5410640000000  0.5210230000000  0.5491060000000 1.0
C      1  0.5610340000000  0.4417410000000  0.4912210000000 1.0
C      1  0.5609740000000  0.5107090000000  0.4507050000000 1.0
C      1  0.4396630000000  0.4581860000000  0.5401370000000 1.0
C      1  0.4395300000000  0.5532580000000  0.5040630000000 1.0
C      1  0.4457140000000  0.4799920000000  0.4571090000000 1.0
C      1  0.5353710000000  0.4349260000000  0.4235170000000 1.0
C      1  0.5340680000000  0.5780190000000  0.4853870000000 1.0
C      1  0.5260290000000  0.4735950000000  0.5916950000000 1.0
C      1  0.4691390000000  0.5498970000000  0.4340960000000 1.0
C      1  0.4675230000000  0.4208100000000  0.4840530000000 1.0
C      1  0.4759450000000  0.5442670000000  0.5753430000000 1.0
C      1  0.5561640000000  0.4928860000000  0.5537980000000 1.0
C      1  0.5623190000000  0.4579530000000  0.4677570000000 1.0
C      1  0.5595880000000  0.5365810000000  0.4701120000000 1.0
C      1  0.4346240000000  0.4852950000000  0.5562340000000 1.0
C      1  0.4417440000000  0.5423600000000  0.4738530000000 1.0
C      1  0.4395190000000  0.4583990000000  0.4789250000000 1.0
C      1  0.5190360000000  0.5130040000000  0.5244670000000 1.0
C      1  0.5148350000000  0.4779910000000  0.4986690000000 1.0
C      1  0.5214400000000  0.5225570000000  0.4810760000000 1.0
C      1  0.4916930000000  0.4820440000000  0.5233360000000 1.0
C      1  0.4907870000000  0.5179220000000  0.5061240000000 1.0
C      1  0.4853830000000  0.4734180000000  0.4852050000000 1.0
C      1  0.4733160000000  0.4701840000000  0.4415240000000 1.0
C      1  0.4679910000000  0.5684060000000  0.5060500000000 1.0
C      1  0.4663360000000  0.4614580000000  0.5610540000000 1.0
C      1  0.5179670000000  0.5579610000000  0.4224520000000 1.0
C      1  0.5377820000000  0.4259150000000  0.4953060000000 1.0
C      1  0.5274250000000  0.5388210000000  0.5705130000000 1.0
C      1  0.5090870000000  0.3981500000000  0.5281300000000 1.0
C      1  0.5046190000000  0.5278060000000  0.4141670000000 1.0
C      1  0.5302860000000  0.5675330000000  0.5598600000000 1.0
C      1  0.4968700000000  0.5979190000000  0.5324170000000 1.0
C      1  0.5137360000000  0.4821010000000  0.4151770000000 1.0
C      1  0.4865500000000  0.4345820000000  0.5594000000000 1.0
C      1  0.5146620000000  0.5182690000000  0.5946870000000 1.0
C      1  0.5165000000000  0.4302510000000  0.4785490000000 1.0
C      1  0.5269490000000  0.5715440000000  0.4469640000000 1.0
C      1  0.4833200000000  0.4892910000000  0.5705570000000 1.0
C      1  0.4841910000000  0.5660360000000  0.4793110000000 1.0
C      1  0.4873330000000  0.4411540000000  0.4417620000000 1.0
C      1  0.5642130000000  0.4815660000000  0.5227630000000 1.0
C      1  0.5601520000000  0.4880520000000  0.4736170000000 1.0
C      1  0.5677090000000  0.5281540000000  0.5012570000000 1.0
C      1  0.4396050000000  0.5199310000000  0.5063210000000 1.0
C      1  0.4457230000000  0.5092620000000  0.4744940000000 1.0
C      1  0.4378950000000  0.4683310000000  0.5090950000000 1.0
C      1  0.5520100000000  0.5628850000000  0.4636710000000 1.0
C      1  0.5412430000000  0.4722380000000  0.5681290000000 1.0
C      1  0.5471320000000  0.4505310000000  0.4434660000000 1.0
C      1  0.4431950000000  0.4317850000000  0.4743900000000 1.0
C      1  0.4561700000000  0.5022240000000  0.5546920000000 1.0
C      1  0.4600830000000  0.5590520000000  0.4601430000000 1.0
C      1  0.4866070000000  0.4866380000000  0.4235060000000 1.0
C      1  0.4741980000000  0.5959820000000  0.5212720000000 1.0
C      1  0.4669180000000  0.4381030000000  0.5844890000000 1.0
C      1  0.5368280000000  0.5308030000000  0.4139930000000 1.0
C      1  0.5318250000000  0.4155030000000  0.5205970000000 1.0
C      1  0.5461960000000  0.5851060000000  0.5708040000000 1.0
C      1  0.5646650000000  0.5364500000000  0.5329430000000 1.0
C      1  0.5734410000000  0.4526890000000  0.5146200000000 1.0
C      1  0.5866060000000  0.5104380000000  0.4340370000000 1.0
C      1  0.4211210000000  0.4349950000000  0.5465810000000 1.0
C      1  0.4165160000000  0.5674870000000  0.5172300000000 1.0
C      1  0.4242720000000  0.4811280000000  0.4380380000000 1.0
C      1  0.5047920000000  0.4591170000000  0.4647570000000 1.0
C      1  0.4938520000000  0.5367290000000  0.4777790000000 1.0
C      1  0.4947820000000  0.5052350000000  0.5459820000000 1.0
C      1  0.5730950000000  0.4984640000000  0.4992560000000 1.0
C      1  0.4226340000000  0.4955500000000  0.5084060000000 1.0
END
