TITL C-2622968-4806-76 -0.000631605043023406 125000 -634.281907207533 0 0 124 (C1) n - 1
REM
REM in /nfs/bkarasulu/CARBON/AIRSS/Generating-Clusters/AIREBO/with-SteepDescent/Higher-Symm/SD-CG/HFTN-CG
REM
REM
REM
REM
REM
REM ./C.cell (b20cbc046b6831c77cfcea5457e17084)
REM
REM compiler GCC version 9.2.1 20190827 (Red Hat 9.2.1-1)
REM options -cpp -mtune=generic -march=x86-64 -g -O0 -fpre-include=/usr/include/finclude/math-vector-fortran.h
REM seed -205353959 1935795819 1170964290 160167934 -1983434162 -932719935 -435135344 96998980 1070343840 519410460 -1066996417 2071894646 89727987 1355130061 -1540793656 -953171157 -679122680 220363590 -1013418917 -94355017 1816067527 1199834272 1674835608 688207959 1856783289 1319400521 -1543345066 2116575764 -715827658 -1540823249 -1325949213 1777804592 1589135926
REM
CELL 1.54180   50.00000   50.00000   50.00000   90.00000   90.00000   90.00000
LATT -1
SFAC C  
C      1  0.4931030000000  0.5398310000000  0.5589490000000 1.0
C      1  0.4500000000000  0.5317910000000  0.5128820000000 1.0
C      1  0.4775220000000  0.5420460000000  0.4508300000000 1.0
C      1  0.5354560000000  0.5351070000000  0.4629800000000 1.0
C      1  0.5460420000000  0.5433410000000  0.5208680000000 1.0
C      1  0.4998480000000  0.4646900000000  0.5556970000000 1.0
C      1  0.4535430000000  0.4579420000000  0.5229150000000 1.0
C      1  0.4696100000000  0.4742630000000  0.4536580000000 1.0
C      1  0.5405250000000  0.4635790000000  0.4598950000000 1.0
C      1  0.5443940000000  0.4588370000000  0.5145140000000 1.0
C      1  0.4128450000000  0.4871680000000  0.5005050000000 1.0
C      1  0.4686230000000  0.4855330000000  0.4033920000000 1.0
C      1  0.5786400000000  0.4723970000000  0.4369040000000 1.0
C      1  0.5716080000000  0.4938340000000  0.5423640000000 1.0
C      1  0.4785190000000  0.4824450000000  0.5928160000000 1.0
C      1  0.4011210000000  0.5192920000000  0.5039000000000 1.0
C      1  0.4780130000000  0.5145760000000  0.4065860000000 1.0
C      1  0.5782200000000  0.5067640000000  0.4393050000000 1.0
C      1  0.5816210000000  0.5260230000000  0.5479090000000 1.0
C      1  0.4653710000000  0.5053460000000  0.5828970000000 1.0
C      1  0.5085550000000  0.5548590000000  0.4563310000000 1.0
C      1  0.5484620000000  0.5534690000000  0.4884740000000 1.0
C      1  0.5210980000000  0.5650740000000  0.5287360000000 1.0
C      1  0.4875120000000  0.5662430000000  0.5434820000000 1.0
C      1  0.4652400000000  0.5542500000000  0.4987190000000 1.0
C      1  0.4903630000000  0.4473420000000  0.4543990000000 1.0
C      1  0.5330300000000  0.4435010000000  0.4862960000000 1.0
C      1  0.5242540000000  0.4474450000000  0.5394530000000 1.0
C      1  0.4808510000000  0.4434630000000  0.5371240000000 1.0
C      1  0.4710350000000  0.4373280000000  0.5022730000000 1.0
C      1  0.4441510000000  0.4529800000000  0.4557150000000 1.0
C      1  0.5183380000000  0.4517650000000  0.4375940000000 1.0
C      1  0.5684600000000  0.4348180000000  0.5138790000000 1.0
C      1  0.5299080000000  0.4532530000000  0.5903710000000 1.0
C      1  0.4415170000000  0.4324950000000  0.5420080000000 1.0
C      1  0.4558050000000  0.5577090000000  0.4720470000000 1.0
C      1  0.5417350000000  0.5442620000000  0.4315650000000 1.0
C      1  0.5771800000000  0.5356650000000  0.5095690000000 1.0
C      1  0.5144630000000  0.5468410000000  0.5807780000000 1.0
C      1  0.4330920000000  0.5389260000000  0.5391510000000 1.0
C      1  0.5231720000000  0.5188030000000  0.5152470000000 1.0
C      1  0.4974380000000  0.5172870000000  0.5374280000000 1.0
C      1  0.4691150000000  0.5088270000000  0.5263920000000 1.0
C      1  0.4820120000000  0.5186910000000  0.4751280000000 1.0
C      1  0.5143540000000  0.5157810000000  0.4764080000000 1.0
C      1  0.5240100000000  0.4854430000000  0.5086920000000 1.0
C      1  0.5152710000000  0.4897970000000  0.5414330000000 1.0
C      1  0.4705100000000  0.4835480000000  0.5083290000000 1.0
C      1  0.4647230000000  0.4938530000000  0.4802790000000 1.0
C      1  0.5210940000000  0.4858350000000  0.4748120000000 1.0
C      1  0.4958300000000  0.5696690000000  0.4284940000000 1.0
C      1  0.5739160000000  0.5608080000000  0.4667660000000 1.0
C      1  0.5435780000000  0.5760830000000  0.5487560000000 1.0
C      1  0.4609120000000  0.5757160000000  0.5524900000000 1.0
C      1  0.4037110000000  0.5801440000000  0.4837430000000 1.0
C      1  0.4705660000000  0.4372350000000  0.4285780000000 1.0
C      1  0.5557530000000  0.4272650000000  0.4668210000000 1.0
C      1  0.5483600000000  0.4268680000000  0.5475120000000 1.0
C      1  0.4857210000000  0.4196910000000  0.5609470000000 1.0
C      1  0.4389470000000  0.4292630000000  0.4992660000000 1.0
C      1  0.4795920000000  0.4511950000000  0.5794590000000 1.0
C      1  0.4174990000000  0.4556120000000  0.4978640000000 1.0
C      1  0.4774620000000  0.4590850000000  0.4030860000000 1.0
C      1  0.5767750000000  0.4455500000000  0.4514130000000 1.0
C      1  0.5607610000000  0.4616890000000  0.5446880000000 1.0
C      1  0.4668940000000  0.5343600000000  0.5743770000000 1.0
C      1  0.4046920000000  0.5503910000000  0.4952600000000 1.0
C      1  0.4760210000000  0.5469360000000  0.4168340000000 1.0
C      1  0.5860100000000  0.5374230000000  0.4465360000000 1.0
C      1  0.5691860000000  0.5571840000000  0.5421230000000 1.0
C      1  0.4557140000000  0.4317470000000  0.5658750000000 1.0
C      1  0.4337730000000  0.4343630000000  0.4683010000000 1.0
C      1  0.5008720000000  0.4397310000000  0.4166160000000 1.0
C      1  0.5687340000000  0.4187670000000  0.4945140000000 1.0
C      1  0.5484830000000  0.4482150000000  0.5716890000000 1.0
C      1  0.4472380000000  0.5510200000000  0.5601360000000 1.0
C      1  0.4273390000000  0.5608150000000  0.4732550000000 1.0
C      1  0.5273350000000  0.5651350000000  0.4219770000000 1.0
C      1  0.5877480000000  0.5562160000000  0.4953160000000 1.0
C      1  0.5304590000000  0.5679940000000  0.5767110000000 1.0
C      1  0.4331520000000  0.4909780000000  0.4754450000000 1.0
C      1  0.4996070000000  0.4897310000000  0.4499860000000 1.0
C      1  0.5673720000000  0.4807880000000  0.4677110000000 1.0
C      1  0.5408530000000  0.4942010000000  0.5557800000000 1.0
C      1  0.4691370000000  0.4790530000000  0.5530780000000 1.0
C      1  0.4312460000000  0.5210610000000  0.4904140000000 1.0
C      1  0.4949980000000  0.5176780000000  0.4347900000000 1.0
C      1  0.5621240000000  0.5143780000000  0.4682760000000 1.0
C      1  0.5482600000000  0.5251500000000  0.5495310000000 1.0
C      1  0.4500660000000  0.5056160000000  0.5528700000000 1.0
C      1  0.4164470000000  0.5112450000000  0.5321450000000 1.0
C      1  0.4525040000000  0.5222130000000  0.4391160000000 1.0
C      1  0.5490770000000  0.5134960000000  0.4267020000000 1.0
C      1  0.5816790000000  0.5104480000000  0.5029380000000 1.0
C      1  0.5129170000000  0.5152320000000  0.5833120000000 1.0
C      1  0.4276080000000  0.4793010000000  0.5281590000000 1.0
C      1  0.4549800000000  0.4918860000000  0.4300570000000 1.0
C      1  0.5476070000000  0.4810320000000  0.4315070000000 1.0
C      1  0.5696140000000  0.4814700000000  0.5116000000000 1.0
C      1  0.5112010000000  0.4810260000000  0.5844530000000 1.0
C      1  0.4996290000000  0.3977770000000  0.5668670000000 1.0
C      1  0.4307120000000  0.4060010000000  0.5119910000000 1.0
C      1  0.4482450000000  0.4219680000000  0.4308020000000 1.0
C      1  0.5462390000000  0.4053540000000  0.4519270000000 1.0
C      1  0.5567260000000  0.4024600000000  0.5412290000000 1.0
C      1  0.4518990000000  0.6008470000000  0.5534970000000 1.0
C      1  0.3918790000000  0.6034300000000  0.4829260000000 1.0
C      1  0.4862000000000  0.5957280000000  0.4284010000000 1.0
C      1  0.5740780000000  0.5867270000000  0.4561690000000 1.0
C      1  0.5493240000000  0.6035030000000  0.5460330000000 1.0
C      1  0.4285110000000  0.5253960000000  0.4563690000000 1.0
C      1  0.5193300000000  0.5185860000000  0.4109940000000 1.0
C      1  0.5947710000000  0.5077330000000  0.4754600000000 1.0
C      1  0.5455570000000  0.5224440000000  0.5829400000000 1.0
C      1  0.4188770000000  0.4959980000000  0.5624380000000 1.0
C      1  0.4252280000000  0.4940890000000  0.4445590000000 1.0
C      1  0.5186980000000  0.4884520000000  0.4234590000000 1.0
C      1  0.5930920000000  0.4760200000000  0.4876190000000 1.0
C      1  0.5434720000000  0.4907050000000  0.5890960000000 1.0
C      1  0.4385560000000  0.4685600000000  0.5584430000000 1.0
C      1  0.4983740000000  0.5324380000000  0.5004530000000 1.0
C      1  0.4964870000000  0.4678480000000  0.5059840000000 1.0
C      1  0.4988840000000  0.4427560000000  0.4847230000000 1.0
C      1  0.4922910000000  0.5612100000000  0.5123630000000 1.0
END
