TITL C-2622958-629-764 -0.00335181764720353 125000 -484.18771243271 0 0 87 (C1) n - 1
REM
REM in /nfs/bkarasulu/CARBON/AIRSS/Generating-Clusters/AIREBO/with-SteepDescent/Higher-Symm/SD-CG/HFTN-CG
REM
REM
REM
REM
REM
REM ./C.cell (b20cbc046b6831c77cfcea5457e17084)
REM
REM compiler GCC version 9.2.1 20190827 (Red Hat 9.2.1-1)
REM options -cpp -mtune=generic -march=x86-64 -g -O0 -fpre-include=/usr/include/finclude/math-vector-fortran.h
REM seed -1292930594 1827131401 1549067631 514945825 -534470339 -151603798 -1272729594 -1893223568 1479588262 -888199286 327548587 985148181 -1047942232 -681449873 1863048653 1463892476 767042094 1149351248 1255101770 1382585581 594773846 156792783 1999345306 -195060739 -1733742797 1808001277 -1627716535 1587873632 1150375595 1985202657 -295796845 -2015157000 -812994982
REM
CELL 1.54180   50.00000   50.00000   50.00000   90.00000   90.00000   90.00000
LATT -1
SFAC C  
C      1  0.4225410000000  0.5153480000000  0.4962600000000 1.0
C      1  0.4667630000000  0.5145520000000  0.4276270000000 1.0
C      1  0.5771000000000  0.5161010000000  0.4468000000000 1.0
C      1  0.5574730000000  0.5199140000000  0.5565720000000 1.0
C      1  0.4746810000000  0.5195690000000  0.5828180000000 1.0
C      1  0.4147470000000  0.4823060000000  0.4947300000000 1.0
C      1  0.4708090000000  0.4843990000000  0.4185890000000 1.0
C      1  0.5722900000000  0.4846800000000  0.4552930000000 1.0
C      1  0.5680550000000  0.4881690000000  0.5583720000000 1.0
C      1  0.4727030000000  0.4883470000000  0.5749950000000 1.0
C      1  0.4845080000000  0.4556880000000  0.4209800000000 1.0
C      1  0.5677150000000  0.4591590000000  0.4627220000000 1.0
C      1  0.5534890000000  0.4609070000000  0.5549760000000 1.0
C      1  0.4718090000000  0.4613320000000  0.5681210000000 1.0
C      1  0.4215120000000  0.4546770000000  0.4900540000000 1.0
C      1  0.4801050000000  0.5416670000000  0.4278130000000 1.0
C      1  0.5680490000000  0.5432920000000  0.4554770000000 1.0
C      1  0.5476370000000  0.5462860000000  0.5550580000000 1.0
C      1  0.4698420000000  0.5435460000000  0.5662640000000 1.0
C      1  0.4294440000000  0.5421030000000  0.4970790000000 1.0
C      1  0.5144900000000  0.4560740000000  0.4241680000000 1.0
C      1  0.5598260000000  0.4568290000000  0.4935480000000 1.0
C      1  0.5246330000000  0.4603970000000  0.5656310000000 1.0
C      1  0.4553240000000  0.4562080000000  0.5403300000000 1.0
C      1  0.4443960000000  0.4506240000000  0.4667380000000 1.0
C      1  0.5083490000000  0.5436180000000  0.4426780000000 1.0
C      1  0.5658810000000  0.5455830000000  0.4873400000000 1.0
C      1  0.5199790000000  0.5456760000000  0.5665410000000 1.0
C      1  0.4475550000000  0.5402570000000  0.5491480000000 1.0
C      1  0.4368920000000  0.5546590000000  0.4706410000000 1.0
C      1  0.5387310000000  0.4986370000000  0.4029390000000 1.0
C      1  0.5838290000000  0.5124700000000  0.5005940000000 1.0
C      1  0.5161410000000  0.5244940000000  0.5873180000000 1.0
C      1  0.4300120000000  0.5176570000000  0.5571450000000 1.0
C      1  0.3988260000000  0.4999580000000  0.4397280000000 1.0
C      1  0.5187430000000  0.4987640000000  0.4199930000000 1.0
C      1  0.6014880000000  0.5042690000000  0.5174450000000 1.0
C      1  0.5197390000000  0.5004450000000  0.5796560000000 1.0
C      1  0.4286280000000  0.4886630000000  0.5451340000000 1.0
C      1  0.4167640000000  0.4966780000000  0.4575910000000 1.0
C      1  0.5431480000000  0.5613950000000  0.4710420000000 1.0
C      1  0.5472900000000  0.5585260000000  0.5292620000000 1.0
C      1  0.4939940000000  0.5552560000000  0.5513460000000 1.0
C      1  0.4590700000000  0.5574700000000  0.5035810000000 1.0
C      1  0.4880770000000  0.5633350000000  0.4563630000000 1.0
C      1  0.5401350000000  0.4413380000000  0.4727750000000 1.0
C      1  0.5350040000000  0.4421540000000  0.5334320000000 1.0
C      1  0.4826740000000  0.4399960000000  0.5435930000000 1.0
C      1  0.4508490000000  0.4372780000000  0.4951480000000 1.0
C      1  0.4904370000000  0.4400870000000  0.4506340000000 1.0
C      1  0.4616840000000  0.5485240000000  0.4621070000000 1.0
C      1  0.5286140000000  0.5363490000000  0.4591030000000 1.0
C      1  0.5543760000000  0.5379590000000  0.5109150000000 1.0
C      1  0.5088320000000  0.5308360000000  0.5349700000000 1.0
C      1  0.4585610000000  0.5312680000000  0.5222630000000 1.0
C      1  0.4680880000000  0.4609810000000  0.4567050000000 1.0
C      1  0.5215670000000  0.4580940000000  0.4549830000000 1.0
C      1  0.5464050000000  0.4657660000000  0.5160160000000 1.0
C      1  0.5046210000000  0.4610860000000  0.5414380000000 1.0
C      1  0.4528650000000  0.4626040000000  0.5133290000000 1.0
C      1  0.4694320000000  0.4862160000000  0.4977740000000 1.0
C      1  0.4837420000000  0.4881070000000  0.4665090000000 1.0
C      1  0.5175660000000  0.4867460000000  0.4697700000000 1.0
C      1  0.5299420000000  0.4905750000000  0.5232740000000 1.0
C      1  0.4970550000000  0.4841030000000  0.5175300000000 1.0
C      1  0.4717260000000  0.5198990000000  0.4937110000000 1.0
C      1  0.4682920000000  0.5176600000000  0.4599520000000 1.0
C      1  0.5341190000000  0.5113700000000  0.4770150000000 1.0
C      1  0.5284150000000  0.5197080000000  0.5094850000000 1.0
C      1  0.4839970000000  0.5113700000000  0.5308050000000 1.0
C      1  0.5263680000000  0.5758800000000  0.5173740000000 1.0
C      1  0.4988100000000  0.5745920000000  0.5272140000000 1.0
C      1  0.4806800000000  0.5749950000000  0.5045760000000 1.0
C      1  0.4961170000000  0.5796660000000  0.4800460000000 1.0
C      1  0.5248730000000  0.5794090000000  0.4873990000000 1.0
C      1  0.5186600000000  0.4219960000000  0.5159500000000 1.0
C      1  0.4901770000000  0.4194220000000  0.5228320000000 1.0
C      1  0.4754650000000  0.4201590000000  0.4975420000000 1.0
C      1  0.4948460000000  0.4224240000000  0.4760990000000 1.0
C      1  0.5212790000000  0.4224610000000  0.4872790000000 1.0
C      1  0.5355660000000  0.4964380000000  0.5526600000000 1.0
C      1  0.4974120000000  0.4904210000000  0.4354490000000 1.0
C      1  0.4421020000000  0.4946340000000  0.4793740000000 1.0
C      1  0.5646320000000  0.5069630000000  0.4770870000000 1.0
C      1  0.4595620000000  0.5023040000000  0.5502470000000 1.0
C      1  0.5000380000000  0.5254290000000  0.4930890000000 1.0
C      1  0.5073880000000  0.4682990000000  0.4919580000000 1.0
END
