TITL C-2622965-4321-409 8.24823489821631e-05 125000 -413.432296649829 0 0 76 (C1) n - 1
REM
REM in /nfs/bkarasulu/CARBON/AIRSS/Generating-Clusters/AIREBO/with-SteepDescent/Higher-Symm/SD-CG/HFTN-CG
REM
REM
REM
REM
REM
REM ./C.cell (b20cbc046b6831c77cfcea5457e17084)
REM
REM compiler GCC version 9.2.1 20190827 (Red Hat 9.2.1-1)
REM options -cpp -mtune=generic -march=x86-64 -g -O0 -fpre-include=/usr/include/finclude/math-vector-fortran.h
REM seed 1216564072 -573605945 -1423479384 1217490173 1110981799 1994343593 -658782104 1994120290 1306065590 -210776839 883353118 -1763498526 -1655971592 -1813957264 1154249231 -1607482964 721483715 676743274 -1115829190 -1949254555 455483494 -387923662 -940715872 -1251494927 -1550134265 -86120645 -560458467 -1021318707 -946667323 1261685663 -1444808030 -1220413926 758467479
REM
CELL 1.54180   50.00000   50.00000   50.00000   90.00000   90.00000   90.00000
LATT -1
SFAC C  
C      1  0.5249230000000  0.5331020000000  0.5560770000000 1.0
C      1  0.5246180000000  0.5579300000000  0.5151810000000 1.0
C      1  0.5218960000000  0.5474270000000  0.4510340000000 1.0
C      1  0.5259990000000  0.5021990000000  0.4369400000000 1.0
C      1  0.5309320000000  0.4345930000000  0.4724060000000 1.0
C      1  0.5260800000000  0.4469630000000  0.5251520000000 1.0
C      1  0.5206140000000  0.4799810000000  0.5578020000000 1.0
C      1  0.4842710000000  0.5615690000000  0.5478960000000 1.0
C      1  0.4869490000000  0.5661570000000  0.4687670000000 1.0
C      1  0.4837000000000  0.5267340000000  0.4268190000000 1.0
C      1  0.4843840000000  0.4626080000000  0.4246490000000 1.0
C      1  0.4843580000000  0.4277660000000  0.4799990000000 1.0
C      1  0.4823110000000  0.4459580000000  0.5445420000000 1.0
C      1  0.4790670000000  0.5130270000000  0.5810530000000 1.0
C      1  0.5649830000000  0.5298340000000  0.4807450000000 1.0
C      1  0.5696880000000  0.5094630000000  0.4629930000000 1.0
C      1  0.5691160000000  0.4723230000000  0.4769090000000 1.0
C      1  0.5654720000000  0.4607210000000  0.5016220000000 1.0
C      1  0.5931370000000  0.5032020000000  0.5709800000000 1.0
C      1  0.5721850000000  0.5035160000000  0.5564730000000 1.0
C      1  0.5797280000000  0.5478720000000  0.4987590000000 1.0
C      1  0.4931050000000  0.4610470000000  0.5002510000000 1.0
C      1  0.4956490000000  0.5018490000000  0.5354920000000 1.0
C      1  0.4806880000000  0.5275300000000  0.5274680000000 1.0
C      1  0.4857760000000  0.5348420000000  0.4963820000000 1.0
C      1  0.4725140000000  0.5180160000000  0.4740230000000 1.0
C      1  0.4821120000000  0.4903430000000  0.4607110000000 1.0
C      1  0.4736360000000  0.4661710000000  0.4777540000000 1.0
C      1  0.4131230000000  0.4791620000000  0.5402350000000 1.0
C      1  0.4149970000000  0.5251170000000  0.5140810000000 1.0
C      1  0.4208610000000  0.5424130000000  0.4893480000000 1.0
C      1  0.4266300000000  0.5249520000000  0.4682450000000 1.0
C      1  0.4321060000000  0.5058880000000  0.4455300000000 1.0
C      1  0.4110660000000  0.4550420000000  0.4970060000000 1.0
C      1  0.4010860000000  0.4649820000000  0.5204950000000 1.0
C      1  0.4684510000000  0.5722200000000  0.5266430000000 1.0
C      1  0.4545270000000  0.5591100000000  0.4762220000000 1.0
C      1  0.4516530000000  0.5142120000000  0.4270070000000 1.0
C      1  0.4547790000000  0.4583910000000  0.4410630000000 1.0
C      1  0.4582350000000  0.4312940000000  0.4961730000000 1.0
C      1  0.4630460000000  0.4660860000000  0.5489180000000 1.0
C      1  0.4474900000000  0.5144090000000  0.5680550000000 1.0
C      1  0.4757100000000  0.4885540000000  0.5585210000000 1.0
C      1  0.4698060000000  0.5364390000000  0.5582010000000 1.0
C      1  0.4831690000000  0.5683050000000  0.5018260000000 1.0
C      1  0.4702920000000  0.5412940000000  0.4520670000000 1.0
C      1  0.4766620000000  0.4942010000000  0.4283400000000 1.0
C      1  0.4832130000000  0.4454570000000  0.4539830000000 1.0
C      1  0.4786030000000  0.4377330000000  0.5181390000000 1.0
C      1  0.5296390000000  0.4565970000000  0.4568650000000 1.0
C      1  0.5495150000000  0.4624440000000  0.5240700000000 1.0
C      1  0.5481040000000  0.4860920000000  0.5437170000000 1.0
C      1  0.5497110000000  0.5222460000000  0.5423430000000 1.0
C      1  0.5527960000000  0.5390500000000  0.5175550000000 1.0
C      1  0.5355060000000  0.5275870000000  0.4912020000000 1.0
C      1  0.5418550000000  0.4874650000000  0.4633480000000 1.0
C      1  0.5085400000000  0.4764560000000  0.4441750000000 1.0
C      1  0.5126980000000  0.4335790000000  0.4979870000000 1.0
C      1  0.5097580000000  0.4550540000000  0.5474930000000 1.0
C      1  0.5086580000000  0.5090470000000  0.5656600000000 1.0
C      1  0.5116310000000  0.5543170000000  0.5411050000000 1.0
C      1  0.5134340000000  0.5501480000000  0.4838540000000 1.0
C      1  0.5134820000000  0.5270560000000  0.4352340000000 1.0
C      1  0.4473190000000  0.5525960000000  0.5081240000000 1.0
C      1  0.4448890000000  0.5002360000000  0.4828180000000 1.0
C      1  0.4390600000000  0.4756680000000  0.4600480000000 1.0
C      1  0.4425540000000  0.4609390000000  0.4905210000000 1.0
C      1  0.4481190000000  0.4745930000000  0.5214310000000 1.0
C      1  0.4385090000000  0.4987820000000  0.5433170000000 1.0
C      1  0.4485130000000  0.5204160000000  0.5190640000000 1.0
C      1  0.4193750000000  0.4969940000000  0.5050070000000 1.0
C      1  0.5020670000000  0.4901060000000  0.5063310000000 1.0
C      1  0.5920760000000  0.4883350000000  0.4648520000000 1.0
C      1  0.5258470000000  0.4994630000000  0.4895930000000 1.0
C      1  0.4685160000000  0.4956000000000  0.5068240000000 1.0
C      1  0.6175180000000  0.4855270000000  0.4585860000000 1.0
END
