TITL C-2622955-8511-557 -0.00289115760038188 125000 -821.451546054384 0 0 151 (C1) n - 1
REM
REM in /nfs/bkarasulu/CARBON/AIRSS/Generating-Clusters/AIREBO/with-SteepDescent/Higher-Symm/SD-CG/HFTN-CG
REM
REM
REM
REM
REM
REM ./C.cell (b20cbc046b6831c77cfcea5457e17084)
REM
REM compiler GCC version 9.2.1 20190827 (Red Hat 9.2.1-1)
REM options -cpp -mtune=generic -march=x86-64 -g -O0 -fpre-include=/usr/include/finclude/math-vector-fortran.h
REM seed 2031044346 1462074408 -832724486 -584546182 1314379422 -884578107 550334839 -817618905 1425780454 -70014747 -694523118 1311119740 1451168193 -1958047744 -273997489 866621570 -923659117 680002939 -645823221 1245077888 -1299168516 -1960753771 1510187316 -1344125456 1469990098 -688771796 -1870246406 -1352636311 279338425 -913867128 1702199115 776830568 -223100139
REM
CELL 1.54180   50.00000   50.00000   50.00000   90.00000   90.00000   90.00000
LATT -1
SFAC C  
C      1  0.5221790000000  0.5782810000000  0.4462050000000 1.0
C      1  0.5526070000000  0.4434110000000  0.5241270000000 1.0
C      1  0.5860700000000  0.4746000000000  0.5464250000000 1.0
C      1  0.5151820000000  0.5256450000000  0.5486310000000 1.0
C      1  0.5127780000000  0.4962600000000  0.5754350000000 1.0
C      1  0.4480380000000  0.4105160000000  0.5107620000000 1.0
C      1  0.4441070000000  0.5292530000000  0.4257950000000 1.0
C      1  0.5642350000000  0.5184430000000  0.5213110000000 1.0
C      1  0.5846600000000  0.5227060000000  0.4960570000000 1.0
C      1  0.4835200000000  0.5281490000000  0.4734090000000 1.0
C      1  0.5328950000000  0.5462050000000  0.4838590000000 1.0
C      1  0.5420870000000  0.4662910000000  0.5031570000000 1.0
C      1  0.4909070000000  0.4189920000000  0.4337900000000 1.0
C      1  0.4324640000000  0.5568670000000  0.5265030000000 1.0
C      1  0.4770450000000  0.5676070000000  0.4240540000000 1.0
C      1  0.4540840000000  0.4539940000000  0.4722450000000 1.0
C      1  0.5297720000000  0.5193250000000  0.5885890000000 1.0
C      1  0.4616320000000  0.5567930000000  0.5104570000000 1.0
C      1  0.5242430000000  0.4075020000000  0.4750750000000 1.0
C      1  0.5557910000000  0.5903310000000  0.5304700000000 1.0
C      1  0.4338670000000  0.4769800000000  0.5434130000000 1.0
C      1  0.4989610000000  0.4834790000000  0.5124570000000 1.0
C      1  0.4924480000000  0.5878020000000  0.4456220000000 1.0
C      1  0.4971940000000  0.4457360000000  0.4627500000000 1.0
C      1  0.5874880000000  0.5253300000000  0.5564820000000 1.0
C      1  0.5364670000000  0.5722760000000  0.5664660000000 1.0
C      1  0.4124500000000  0.4475200000000  0.5592150000000 1.0
C      1  0.5056680000000  0.5357600000000  0.4979980000000 1.0
C      1  0.5761210000000  0.4932110000000  0.5897090000000 1.0
C      1  0.5701110000000  0.5702930000000  0.5619160000000 1.0
C      1  0.5166650000000  0.5461160000000  0.5757570000000 1.0
C      1  0.4729460000000  0.4647970000000  0.4484270000000 1.0
C      1  0.4981940000000  0.5110450000000  0.4477980000000 1.0
C      1  0.5257360000000  0.5520350000000  0.5339240000000 1.0
C      1  0.5554640000000  0.4562230000000  0.4536380000000 1.0
C      1  0.4649100000000  0.5500660000000  0.5591430000000 1.0
C      1  0.4070090000000  0.4799890000000  0.4658800000000 1.0
C      1  0.5158270000000  0.4919060000000  0.4305420000000 1.0
C      1  0.5910050000000  0.5069670000000  0.4453650000000 1.0
C      1  0.4766760000000  0.5082960000000  0.5186420000000 1.0
C      1  0.5266460000000  0.5500630000000  0.4277410000000 1.0
C      1  0.5468280000000  0.4575150000000  0.5742110000000 1.0
C      1  0.4085800000000  0.5133370000000  0.5000970000000 1.0
C      1  0.5611090000000  0.5201440000000  0.5772630000000 1.0
C      1  0.5023410000000  0.5015680000000  0.3905300000000 1.0
C      1  0.4814840000000  0.5510800000000  0.4534370000000 1.0
C      1  0.5637900000000  0.4761620000000  0.4789830000000 1.0
C      1  0.5233420000000  0.4082070000000  0.5037030000000 1.0
C      1  0.5746100000000  0.4711340000000  0.5730460000000 1.0
C      1  0.4545330000000  0.5392220000000  0.4873180000000 1.0
C      1  0.4914540000000  0.5519220000000  0.5888700000000 1.0
C      1  0.4934330000000  0.4553240000000  0.5785870000000 1.0
C      1  0.5506530000000  0.4240940000000  0.4615130000000 1.0
C      1  0.5592050000000  0.5275620000000  0.4765890000000 1.0
C      1  0.4102190000000  0.4383100000000  0.4925430000000 1.0
C      1  0.4756240000000  0.5202830000000  0.5470310000000 1.0
C      1  0.4965450000000  0.4122250000000  0.5245330000000 1.0
C      1  0.5191830000000  0.4342610000000  0.4390860000000 1.0
C      1  0.5340560000000  0.4745920000000  0.5497060000000 1.0
C      1  0.4926170000000  0.5595190000000  0.5129400000000 1.0
C      1  0.5100290000000  0.4571850000000  0.5404140000000 1.0
C      1  0.4648800000000  0.4996250000000  0.5702460000000 1.0
C      1  0.4986190000000  0.4968350000000  0.5496830000000 1.0
C      1  0.5195940000000  0.4683790000000  0.5899930000000 1.0
C      1  0.4544550000000  0.5888960000000  0.5172220000000 1.0
C      1  0.4603590000000  0.4988330000000  0.4194980000000 1.0
C      1  0.4850660000000  0.5178320000000  0.4056060000000 1.0
C      1  0.5331810000000  0.4586720000000  0.4051190000000 1.0
C      1  0.5010520000000  0.4059820000000  0.4606640000000 1.0
C      1  0.5576700000000  0.5518970000000  0.5841430000000 1.0
C      1  0.4830960000000  0.4698220000000  0.5496140000000 1.0
C      1  0.5104200000000  0.5980130000000  0.5127220000000 1.0
C      1  0.4181470000000  0.4653890000000  0.4423540000000 1.0
C      1  0.6006180000000  0.5453400000000  0.5123800000000 1.0
C      1  0.4359940000000  0.5108990000000  0.4485920000000 1.0
C      1  0.5824240000000  0.4558740000000  0.5258150000000 1.0
C      1  0.4782280000000  0.4223150000000  0.4742380000000 1.0
C      1  0.4730430000000  0.4984740000000  0.4862920000000 1.0
C      1  0.4244870000000  0.4422450000000  0.4636740000000 1.0
C      1  0.4483640000000  0.5729640000000  0.4638420000000 1.0
C      1  0.5415610000000  0.4355160000000  0.5517990000000 1.0
C      1  0.5868880000000  0.4988610000000  0.4742600000000 1.0
C      1  0.5537630000000  0.4764400000000  0.4164440000000 1.0
C      1  0.4039860000000  0.5308640000000  0.4763190000000 1.0
C      1  0.5123270000000  0.4261000000000  0.5484230000000 1.0
C      1  0.4696330000000  0.4221420000000  0.5429550000000 1.0
C      1  0.4767260000000  0.4690550000000  0.4148950000000 1.0
C      1  0.4916990000000  0.4522740000000  0.5121890000000 1.0
C      1  0.5894020000000  0.5528310000000  0.5426930000000 1.0
C      1  0.4426120000000  0.5090840000000  0.4976000000000 1.0
C      1  0.4961730000000  0.5433140000000  0.4146160000000 1.0
C      1  0.5684610000000  0.5668390000000  0.5222240000000 1.0
C      1  0.5102920000000  0.4975160000000  0.6073760000000 1.0
C      1  0.4822900000000  0.5891080000000  0.4996470000000 1.0
C      1  0.4259080000000  0.5511400000000  0.4751290000000 1.0
C      1  0.4739400000000  0.5869080000000  0.4693300000000 1.0
C      1  0.5794250000000  0.4508850000000  0.4955080000000 1.0
C      1  0.5448270000000  0.4178880000000  0.4291740000000 1.0
C      1  0.4113290000000  0.4678540000000  0.4913720000000 1.0
C      1  0.4501640000000  0.4222140000000  0.4605150000000 1.0
C      1  0.4749620000000  0.4239590000000  0.5035280000000 1.0
C      1  0.5287890000000  0.5987970000000  0.4922380000000 1.0
C      1  0.4340360000000  0.4787060000000  0.5092820000000 1.0
C      1  0.4390800000000  0.5061230000000  0.5541640000000 1.0
C      1  0.5554000000000  0.5709670000000  0.4459340000000 1.0
C      1  0.5258490000000  0.4659350000000  0.4445460000000 1.0
C      1  0.5068330000000  0.4941650000000  0.4829300000000 1.0
C      1  0.4236950000000  0.4255730000000  0.5128590000000 1.0
C      1  0.4652460000000  0.5344940000000  0.5895080000000 1.0
C      1  0.5277860000000  0.5109730000000  0.3868250000000 1.0
C      1  0.5801580000000  0.5306440000000  0.4338220000000 1.0
C      1  0.5238870000000  0.5849620000000  0.5375000000000 1.0
C      1  0.4477770000000  0.5565540000000  0.4340390000000 1.0
C      1  0.4325470000000  0.4797210000000  0.4237890000000 1.0
C      1  0.5396770000000  0.4997500000000  0.4746080000000 1.0
C      1  0.4410980000000  0.4598110000000  0.5718690000000 1.0
C      1  0.4673520000000  0.4732470000000  0.5885460000000 1.0
C      1  0.5478680000000  0.5454050000000  0.5143760000000 1.0
C      1  0.5498330000000  0.5049370000000  0.5490100000000 1.0
C      1  0.5157600000000  0.5126730000000  0.5172000000000 1.0
C      1  0.5881680000000  0.5014760000000  0.5385220000000 1.0
C      1  0.5804700000000  0.4756770000000  0.4412770000000 1.0
C      1  0.4316460000000  0.5570930000000  0.5583320000000 1.0
C      1  0.5539310000000  0.5364860000000  0.4182470000000 1.0
C      1  0.5396330000000  0.4323920000000  0.4047690000000 1.0
C      1  0.4609570000000  0.5815130000000  0.5467880000000 1.0
C      1  0.5044490000000  0.4737100000000  0.4041680000000 1.0
C      1  0.5416170000000  0.5082630000000  0.4155650000000 1.0
C      1  0.4341300000000  0.5308230000000  0.5762770000000 1.0
C      1  0.4665360000000  0.4388810000000  0.5683780000000 1.0
C      1  0.5372680000000  0.4893450000000  0.5215270000000 1.0
C      1  0.4058410000000  0.5069650000000  0.5322550000000 1.0
C      1  0.4709600000000  0.4378580000000  0.4277510000000 1.0
C      1  0.4944890000000  0.5593520000000  0.5451700000000 1.0
C      1  0.5311650000000  0.5772070000000  0.4766380000000 1.0
C      1  0.4348270000000  0.5240050000000  0.5271560000000 1.0
C      1  0.5665730000000  0.4260070000000  0.4891300000000 1.0
C      1  0.5528990000000  0.4951350000000  0.4448410000000 1.0
C      1  0.4597450000000  0.4597770000000  0.5344270000000 1.0
C      1  0.4671850000000  0.4980250000000  0.4528010000000 1.0
C      1  0.4117810000000  0.5073440000000  0.4607830000000 1.0
C      1  0.5179880000000  0.5364270000000  0.4548990000000 1.0
C      1  0.4077070000000  0.5097890000000  0.5667550000000 1.0
C      1  0.4305950000000  0.5747960000000  0.4974590000000 1.0
C      1  0.4381440000000  0.4352120000000  0.5405460000000 1.0
C      1  0.4609790000000  0.4612660000000  0.5006510000000 1.0
C      1  0.4777180000000  0.5042340000000  0.6000880000000 1.0
C      1  0.5670270000000  0.5479190000000  0.4540890000000 1.0
C      1  0.5200920000000  0.4650840000000  0.4780470000000 1.0
C      1  0.4014330000000  0.4791140000000  0.5513030000000 1.0
C      1  0.5495230000000  0.4155960000000  0.5109820000000 1.0
END
