TITL C-2622953-3516-567 0.000625805952494421 125000 -56.7952329959647 0 0 13 (C1) n - 1
REM
REM in /nfs/bkarasulu/CARBON/AIRSS/Generating-Clusters/AIREBO/with-SteepDescent/Higher-Symm/SD-CG/HFTN-CG
REM
REM
REM
REM
REM
REM ./C.cell (b20cbc046b6831c77cfcea5457e17084)
REM
REM compiler GCC version 9.2.1 20190827 (Red Hat 9.2.1-1)
REM options -cpp -mtune=generic -march=x86-64 -g -O0 -fpre-include=/usr/include/finclude/math-vector-fortran.h
REM seed -1943114054 -1282896011 12345892 2040327434 -782985767 -292862243 694605842 -1605292963 1338809307 -2137794847 -43715370 1064262609 239066923 -1642737549 781182292 806070544 -1970227660 1901808964 2122961873 793456054 781020435 976891541 1884154599 -1133854742 2121777270 1041839431 1927697281 -590212692 669167993 -240207043 67799548 -1247091414 -2059917053
REM
CELL 1.54180   50.00000   50.00000   50.00000   90.00000   90.00000   90.00000
LATT -1
SFAC C  
C      1  0.4974780000000  0.4850440000000  0.5250150000000 1.0
C      1  0.5154760000000  0.4797830000000  0.4748030000000 1.0
C      1  0.4900890000000  0.4773140000000  0.4443690000000 1.0
C      1  0.4959710000000  0.4734550000000  0.5629450000000 1.0
C      1  0.5020440000000  0.5655390000000  0.5006520000000 1.0
C      1  0.5001710000000  0.5260370000000  0.4972800000000 1.0
C      1  0.5208070000000  0.4779310000000  0.5455640000000 1.0
C      1  0.4725670000000  0.4799750000000  0.5442730000000 1.0
C      1  0.5207960000000  0.4756130000000  0.4440930000000 1.0
C      1  0.4819730000000  0.4808110000000  0.4739710000000 1.0
C      1  0.4770440000000  0.5479720000000  0.4983620000000 1.0
C      1  0.5252640000000  0.5455690000000  0.4997260000000 1.0
C      1  0.4986990000000  0.4969170000000  0.4983350000000 1.0
END
