TITL C-2622959-7779-693 -0.00335571213324205 125000 -1054.27080002858 0 0 199 (C1) n - 1
REM
REM in /nfs/bkarasulu/CARBON/AIRSS/Generating-Clusters/AIREBO/with-SteepDescent/Higher-Symm/SD-CG/HFTN-CG
REM
REM
REM
REM
REM
REM ./C.cell (b20cbc046b6831c77cfcea5457e17084)
REM
REM compiler GCC version 9.2.1 20190827 (Red Hat 9.2.1-1)
REM options -cpp -mtune=generic -march=x86-64 -g -O0 -fpre-include=/usr/include/finclude/math-vector-fortran.h
REM seed 1951047706 -2010092532 -376322301 -1706014463 -1013083911 1927461327 1709067853 -944387717 -1279185719 -1496064649 -1134850603 -1334528465 -1707554374 -791964982 1069795541 1561900064 -344196759 1912862057 1246958021 -980614768 42836099 843178935 221616461 -307294672 -1576079673 118819399 1809475410 -643660742 1606077108 192390496 -164724716 -1583817377 1416722918
REM
CELL 1.54180   50.00000   50.00000   50.00000   90.00000   90.00000   90.00000
LATT -1
SFAC C  
C      1  0.5355810000000  0.5162940000000  0.5036720000000 1.0
C      1  0.4541520000000  0.4789240000000  0.4818570000000 1.0
C      1  0.5488550000000  0.4795120000000  0.4916370000000 1.0
C      1  0.4677920000000  0.5133790000000  0.4967540000000 1.0
C      1  0.5145090000000  0.5415540000000  0.5053250000000 1.0
C      1  0.4790860000000  0.4643450000000  0.4953150000000 1.0
C      1  0.4729120000000  0.5430440000000  0.5050370000000 1.0
C      1  0.5271200000000  0.4562570000000  0.5010420000000 1.0
C      1  0.5204730000000  0.4816230000000  0.3859200000000 1.0
C      1  0.4809020000000  0.5207760000000  0.3681980000000 1.0
C      1  0.5403730000000  0.5047840000000  0.6307470000000 1.0
C      1  0.4671930000000  0.4940010000000  0.6125130000000 1.0
C      1  0.5068760000000  0.5327970000000  0.3798720000000 1.0
C      1  0.4989260000000  0.4661500000000  0.3770720000000 1.0
C      1  0.5311820000000  0.5280950000000  0.6299040000000 1.0
C      1  0.4918960000000  0.4853540000000  0.6214560000000 1.0
C      1  0.4916200000000  0.4783390000000  0.4691550000000 1.0
C      1  0.5080100000000  0.5220140000000  0.4682370000000 1.0
C      1  0.4934250000000  0.5386200000000  0.5318250000000 1.0
C      1  0.5024300000000  0.4675540000000  0.5135350000000 1.0
C      1  0.4823000000000  0.5074850000000  0.4704950000000 1.0
C      1  0.5332870000000  0.5029480000000  0.4724840000000 1.0
C      1  0.5337930000000  0.5023570000000  0.5316810000000 1.0
C      1  0.4757590000000  0.5084390000000  0.5294390000000 1.0
C      1  0.4293770000000  0.4045670000000  0.5461020000000 1.0
C      1  0.5584960000000  0.5847670000000  0.5419670000000 1.0
C      1  0.4488860000000  0.5828290000000  0.4423160000000 1.0
C      1  0.5664920000000  0.4096790000000  0.4607870000000 1.0
C      1  0.4026870000000  0.4243350000000  0.5493230000000 1.0
C      1  0.5864310000000  0.5655200000000  0.5393200000000 1.0
C      1  0.5861400000000  0.4362020000000  0.4551620000000 1.0
C      1  0.4220840000000  0.5668580000000  0.4558960000000 1.0
C      1  0.4640230000000  0.5259880000000  0.6032610000000 1.0
C      1  0.5430020000000  0.4856430000000  0.6074700000000 1.0
C      1  0.4554350000000  0.4750680000000  0.4095240000000 1.0
C      1  0.5531510000000  0.5233300000000  0.4049190000000 1.0
C      1  0.5138370000000  0.4690650000000  0.6036160000000 1.0
C      1  0.4855260000000  0.5509200000000  0.5944710000000 1.0
C      1  0.4796570000000  0.4560530000000  0.4021470000000 1.0
C      1  0.5301840000000  0.5442250000000  0.3910580000000 1.0
C      1  0.5023680000000  0.4680540000000  0.5716100000000 1.0
C      1  0.5069310000000  0.5319440000000  0.5787560000000 1.0
C      1  0.4917240000000  0.5242050000000  0.4178200000000 1.0
C      1  0.5062760000000  0.4653250000000  0.4195550000000 1.0
C      1  0.4668740000000  0.5073970000000  0.5749340000000 1.0
C      1  0.5303090000000  0.4958900000000  0.5779410000000 1.0
C      1  0.5261710000000  0.5200180000000  0.4253440000000 1.0
C      1  0.4650200000000  0.5042820000000  0.4188370000000 1.0
C      1  0.5338360000000  0.3984120000000  0.4638650000000 1.0
C      1  0.4675230000000  0.5978940000000  0.4582710000000 1.0
C      1  0.5256940000000  0.5968910000000  0.5376210000000 1.0
C      1  0.4615000000000  0.3969420000000  0.5388770000000 1.0
C      1  0.4060180000000  0.5281920000000  0.4590090000000 1.0
C      1  0.5955130000000  0.4697920000000  0.4572040000000 1.0
C      1  0.5950870000000  0.5325220000000  0.5326150000000 1.0
C      1  0.4133210000000  0.4526540000000  0.5359570000000 1.0
C      1  0.5030890000000  0.3893650000000  0.4665200000000 1.0
C      1  0.4898890000000  0.6146210000000  0.4754460000000 1.0
C      1  0.4973160000000  0.6139630000000  0.5343300000000 1.0
C      1  0.4888130000000  0.3830930000000  0.5294510000000 1.0
C      1  0.3944340000000  0.4992630000000  0.4579490000000 1.0
C      1  0.6073690000000  0.4991180000000  0.4560160000000 1.0
C      1  0.6067500000000  0.5009180000000  0.5261020000000 1.0
C      1  0.3925860000000  0.4781050000000  0.5386110000000 1.0
C      1  0.5035500000000  0.4370660000000  0.5967450000000 1.0
C      1  0.4918650000000  0.5838290000000  0.5874450000000 1.0
C      1  0.5227580000000  0.5709950000000  0.4010150000000 1.0
C      1  0.4945450000000  0.4274330000000  0.4135280000000 1.0
C      1  0.4367450000000  0.5095750000000  0.5912910000000 1.0
C      1  0.5732770000000  0.4955780000000  0.5897950000000 1.0
C      1  0.5748570000000  0.5020280000000  0.4093720000000 1.0
C      1  0.4270450000000  0.4932770000000  0.4141700000000 1.0
C      1  0.4549140000000  0.4743350000000  0.5964900000000 1.0
C      1  0.5434420000000  0.5221760000000  0.5912840000000 1.0
C      1  0.4583180000000  0.5255630000000  0.3933510000000 1.0
C      1  0.5468630000000  0.4665060000000  0.3933090000000 1.0
C      1  0.4764210000000  0.4566110000000  0.5903710000000 1.0
C      1  0.5250910000000  0.5454450000000  0.6040880000000 1.0
C      1  0.5279050000000  0.4482030000000  0.4062360000000 1.0
C      1  0.4823340000000  0.5483180000000  0.3962930000000 1.0
C      1  0.5965340000000  0.4716360000000  0.5400430000000 1.0
C      1  0.4032890000000  0.5250030000000  0.5367530000000 1.0
C      1  0.5874760000000  0.5263210000000  0.4515030000000 1.0
C      1  0.4152300000000  0.4730220000000  0.4638690000000 1.0
C      1  0.4652180000000  0.6038230000000  0.5398190000000 1.0
C      1  0.5232780000000  0.4148040000000  0.5327710000000 1.0
C      1  0.5173820000000  0.5946180000000  0.4746860000000 1.0
C      1  0.4757770000000  0.4095250000000  0.4685270000000 1.0
C      1  0.4277750000000  0.5390990000000  0.4370880000000 1.0
C      1  0.5667090000000  0.4606140000000  0.4416210000000 1.0
C      1  0.4411650000000  0.4568700000000  0.5511340000000 1.0
C      1  0.5768470000000  0.5415800000000  0.5596240000000 1.0
C      1  0.5391930000000  0.4222390000000  0.4448590000000 1.0
C      1  0.4720210000000  0.5708290000000  0.4275760000000 1.0
C      1  0.4542650000000  0.4257440000000  0.5555100000000 1.0
C      1  0.5322170000000  0.5707610000000  0.5583790000000 1.0
C      1  0.5545550000000  0.4531710000000  0.4725080000000 1.0
C      1  0.4485980000000  0.5483130000000  0.4624830000000 1.0
C      1  0.5635510000000  0.5323300000000  0.5083100000000 1.0
C      1  0.4414340000000  0.4630800000000  0.5086120000000 1.0
C      1  0.4662900000000  0.5617580000000  0.4813760000000 1.0
C      1  0.5250530000000  0.4362750000000  0.4731680000000 1.0
C      1  0.5429230000000  0.5553310000000  0.5065250000000 1.0
C      1  0.4643450000000  0.4378950000000  0.5092690000000 1.0
C      1  0.5161210000000  0.6221580000000  0.4547750000000 1.0
C      1  0.4909390000000  0.4039080000000  0.4382880000000 1.0
C      1  0.5113200000000  0.3890220000000  0.5449210000000 1.0
C      1  0.4858620000000  0.6100730000000  0.5661120000000 1.0
C      1  0.5969810000000  0.5095420000000  0.4250940000000 1.0
C      1  0.4077030000000  0.4838080000000  0.4323620000000 1.0
C      1  0.3991930000000  0.4998750000000  0.5551800000000 1.0
C      1  0.5934950000000  0.4826730000000  0.5704370000000 1.0
C      1  0.5693700000000  0.5476060000000  0.4650730000000 1.0
C      1  0.4259110000000  0.4487510000000  0.4819450000000 1.0
C      1  0.5655980000000  0.4585910000000  0.5346490000000 1.0
C      1  0.4303900000000  0.5455090000000  0.5356440000000 1.0
C      1  0.5503820000000  0.5678180000000  0.4785790000000 1.0
C      1  0.4444750000000  0.4227520000000  0.4700250000000 1.0
C      1  0.4573680000000  0.5556180000000  0.5292630000000 1.0
C      1  0.5378750000000  0.4453130000000  0.5292720000000 1.0
C      1  0.5671510000000  0.4751280000000  0.4108090000000 1.0
C      1  0.4306690000000  0.5224400000000  0.4105870000000 1.0
C      1  0.5715780000000  0.5246980000000  0.5850340000000 1.0
C      1  0.4343920000000  0.4718250000000  0.5783250000000 1.0
C      1  0.4934870000000  0.5758110000000  0.4060550000000 1.0
C      1  0.5277920000000  0.4219300000000  0.4180540000000 1.0
C      1  0.5216200000000  0.5719060000000  0.5874850000000 1.0
C      1  0.4767160000000  0.4270140000000  0.5784280000000 1.0
C      1  0.4376920000000  0.5373800000000  0.5754240000000 1.0
C      1  0.5605890000000  0.4618320000000  0.5789320000000 1.0
C      1  0.4346720000000  0.4556430000000  0.4247390000000 1.0
C      1  0.5537520000000  0.5485410000000  0.4269970000000 1.0
C      1  0.5465360000000  0.4397630000000  0.5790000000000 1.0
C      1  0.4574520000000  0.5577500000000  0.5799240000000 1.0
C      1  0.4385350000000  0.4263580000000  0.4306670000000 1.0
C      1  0.5329360000000  0.5616560000000  0.4431640000000 1.0
C      1  0.4749950000000  0.5562220000000  0.5543340000000 1.0
C      1  0.5229380000000  0.4437020000000  0.5597780000000 1.0
C      1  0.4617370000000  0.4419970000000  0.4501090000000 1.0
C      1  0.5208810000000  0.5517230000000  0.4733820000000 1.0
C      1  0.5494970000000  0.4817330000000  0.5536870000000 1.0
C      1  0.4506010000000  0.5211890000000  0.5484520000000 1.0
C      1  0.4518760000000  0.4718750000000  0.4491710000000 1.0
C      1  0.5475120000000  0.5254090000000  0.4512630000000 1.0
C      1  0.4934710000000  0.4294840000000  0.4837870000000 1.0
C      1  0.4949520000000  0.5752500000000  0.4927120000000 1.0
C      1  0.4811710000000  0.5793420000000  0.5224300000000 1.0
C      1  0.4958260000000  0.4281700000000  0.5176830000000 1.0
C      1  0.4377440000000  0.5024350000000  0.4986760000000 1.0
C      1  0.5711940000000  0.5017820000000  0.4838280000000 1.0
C      1  0.5740110000000  0.5020300000000  0.5177110000000 1.0
C      1  0.4290730000000  0.5064050000000  0.5281080000000 1.0
C      1  0.4937020000000  0.5798510000000  0.5540370000000 1.0
C      1  0.4931950000000  0.4336840000000  0.5511630000000 1.0
C      1  0.4895810000000  0.4374470000000  0.4437060000000 1.0
C      1  0.4976350000000  0.5718030000000  0.4589790000000 1.0
C      1  0.5748640000000  0.5030970000000  0.5506290000000 1.0
C      1  0.4146540000000  0.4933900000000  0.5769290000000 1.0
C      1  0.4345240000000  0.5001170000000  0.4567510000000 1.0
C      1  0.5675740000000  0.4987650000000  0.4523380000000 1.0
C      1  0.4044030000000  0.5519310000000  0.5162170000000 1.0
C      1  0.5931430000000  0.4493530000000  0.5167030000000 1.0
C      1  0.4020760000000  0.4350030000000  0.4948430000000 1.0
C      1  0.5939780000000  0.5622340000000  0.4761490000000 1.0
C      1  0.5531070000000  0.4090900000000  0.5221990000000 1.0
C      1  0.4358070000000  0.6055390000000  0.5278620000000 1.0
C      1  0.4344810000000  0.3973050000000  0.4821210000000 1.0
C      1  0.5499000000000  0.5995870000000  0.4835290000000 1.0
C      1  0.5839610000000  0.4321360000000  0.4888550000000 1.0
C      1  0.4162790000000  0.5697630000000  0.4894750000000 1.0
C      1  0.5904400000000  0.5622540000000  0.5064200000000 1.0
C      1  0.4081550000000  0.4193740000000  0.5179870000000 1.0
C      1  0.4323930000000  0.5938290000000  0.5021910000000 1.0
C      1  0.5593910000000  0.4116970000000  0.4933520000000 1.0
C      1  0.5688170000000  0.5856060000000  0.5092890000000 1.0
C      1  0.4320540000000  0.3999990000000  0.5123190000000 1.0
C      1  0.4868680000000  0.4640890000000  0.5414400000000 1.0
C      1  0.5207190000000  0.5407060000000  0.5522120000000 1.0
C      1  0.4836060000000  0.5449360000000  0.4435190000000 1.0
C      1  0.5122730000000  0.4602270000000  0.4526410000000 1.0
C      1  0.4599940000000  0.4784120000000  0.5326720000000 1.0
C      1  0.5484920000000  0.5245570000000  0.5517090000000 1.0
C      1  0.5395060000000  0.4801310000000  0.4476380000000 1.0
C      1  0.4611270000000  0.5197860000000  0.4488470000000 1.0
C      1  0.4107750000000  0.5362080000000  0.4888960000000 1.0
C      1  0.5925720000000  0.4656430000000  0.4892620000000 1.0
C      1  0.4101340000000  0.4762080000000  0.5106900000000 1.0
C      1  0.5957140000000  0.5295390000000  0.4987470000000 1.0
C      1  0.5255090000000  0.4088510000000  0.4933030000000 1.0
C      1  0.4597230000000  0.5935850000000  0.4903520000000 1.0
C      1  0.4651000000000  0.4052940000000  0.5067170000000 1.0
C      1  0.5350420000000  0.5869970000000  0.5101230000000 1.0
C      1  0.4058220000000  0.5023630000000  0.4893600000000 1.0
C      1  0.6040800000000  0.4976270000000  0.4904500000000 1.0
C      1  0.4956850000000  0.3926790000000  0.4988240000000 1.0
C      1  0.4811410000000  0.6153510000000  0.5054190000000 1.0
C      1  0.5098230000000  0.4960610000000  0.4117290000000 1.0
C      1  0.4973230000000  0.5013850000000  0.5760950000000 1.0
C      1  0.5054800000000  0.4951560000000  0.5249640000000 1.0
END
