TITL C-2622968-4806-585 -2623.57076421445 125000 -699.905294170297 0 0 126 (C1) n - 1
REM
REM in /nfs/bkarasulu/CARBON/AIRSS/Generating-Clusters/AIREBO/with-SteepDescent/Higher-Symm/SD-CG/HFTN-CG
REM
REM
REM
REM
REM
REM ./C.cell (b20cbc046b6831c77cfcea5457e17084)
REM
REM compiler GCC version 9.2.1 20190827 (Red Hat 9.2.1-1)
REM options -cpp -mtune=generic -march=x86-64 -g -O0 -fpre-include=/usr/include/finclude/math-vector-fortran.h
REM seed 1957964526 1574657989 -356930543 1823933017 838299916 -1954884998 -151146090 1289509171 1989589412 1078645421 -2126401390 -1610855301 -630684181 -2055590925 -970484287 -800044396 -1284609194 -912950305 -1244163015 -835890888 -1329467334 -1241085605 171398293 -331351620 963646606 -278901972 1657340875 136408420 -1370554278 161557156 955055933 408388724 1141881936
REM
CELL 1.54180   50.00000   50.00000   50.00000   90.00000   90.00000   90.00000
LATT -1
SFAC C  
C      1  0.5274650000000  0.4465370000000  0.4588450000000 1.0
C      1  0.4631220000000  0.5540240000000  0.4638350000000 1.0
C      1  0.5233440000000  0.5331540000000  0.5550500000000 1.0
C      1  0.4717630000000  0.4575800000000  0.5471710000000 1.0
C      1  0.4476940000000  0.5310850000000  0.4574100000000 1.0
C      1  0.5413820000000  0.4742500000000  0.4538770000000 1.0
C      1  0.5435040000000  0.5095780000000  0.5494530000000 1.0
C      1  0.4537560000000  0.4817640000000  0.5402950000000 1.0
C      1  0.5474110000000  0.4262840000000  0.5287140000000 1.0
C      1  0.4679950000000  0.5688970000000  0.5313470000000 1.0
C      1  0.5376270000000  0.5590210000000  0.4697840000000 1.0
C      1  0.4599480000000  0.4396430000000  0.4648090000000 1.0
C      1  0.4249650000000  0.5288580000000  0.5289480000000 1.0
C      1  0.5678940000000  0.4480760000000  0.5273770000000 1.0
C      1  0.5590700000000  0.5349080000000  0.4592280000000 1.0
C      1  0.4319720000000  0.4586710000000  0.4595430000000 1.0
C      1  0.5471960000000  0.5196120000000  0.4348210000000 1.0
C      1  0.4592640000000  0.4771480000000  0.4511620000000 1.0
C      1  0.5472860000000  0.4790930000000  0.5416360000000 1.0
C      1  0.4393720000000  0.5321160000000  0.5553870000000 1.0
C      1  0.5215490000000  0.5669660000000  0.4428760000000 1.0
C      1  0.4803230000000  0.4526050000000  0.4406590000000 1.0
C      1  0.4552410000000  0.5619250000000  0.5547870000000 1.0
C      1  0.5248170000000  0.4586690000000  0.5529990000000 1.0
C      1  0.4024820000000  0.5296670000000  0.4721110000000 1.0
C      1  0.5953560000000  0.4674310000000  0.4760450000000 1.0
C      1  0.4031420000000  0.4580720000000  0.5197240000000 1.0
C      1  0.5893240000000  0.5301890000000  0.5254490000000 1.0
C      1  0.5334230000000  0.4070880000000  0.4786230000000 1.0
C      1  0.4662260000000  0.5956430000000  0.4779190000000 1.0
C      1  0.4693540000000  0.4123860000000  0.5272980000000 1.0
C      1  0.5385040000000  0.5950290000000  0.5243140000000 1.0
C      1  0.5513000000000  0.5110380000000  0.5180710000000 1.0
C      1  0.4456290000000  0.4838160000000  0.5111570000000 1.0
C      1  0.5506300000000  0.4856280000000  0.4816540000000 1.0
C      1  0.4484590000000  0.5121960000000  0.4805410000000 1.0
C      1  0.5163530000000  0.5503090000000  0.5265310000000 1.0
C      1  0.4888460000000  0.4472110000000  0.5248880000000 1.0
C      1  0.4835290000000  0.5500220000000  0.4853090000000 1.0
C      1  0.5167890000000  0.4430620000000  0.4885170000000 1.0
C      1  0.5335300000000  0.5640930000000  0.4154970000000 1.0
C      1  0.4676380000000  0.4428120000000  0.4102050000000 1.0
C      1  0.5370080000000  0.4464340000000  0.5823220000000 1.0
C      1  0.4666230000000  0.5673630000000  0.5825250000000 1.0
C      1  0.5457030000000  0.5345220000000  0.4110600000000 1.0
C      1  0.4540450000000  0.4722910000000  0.4179140000000 1.0
C      1  0.4528330000000  0.5374050000000  0.5859880000000 1.0
C      1  0.5600710000000  0.4666280000000  0.5695910000000 1.0
C      1  0.5053080000000  0.5249660000000  0.5811490000000 1.0
C      1  0.5088060000000  0.4732900000000  0.5770190000000 1.0
C      1  0.5079310000000  0.4688050000000  0.4283450000000 1.0
C      1  0.5006690000000  0.5449360000000  0.4276090000000 1.0
C      1  0.5251170000000  0.4992260000000  0.5895750000000 1.0
C      1  0.4586800000000  0.5069380000000  0.5603990000000 1.0
C      1  0.4723690000000  0.5060210000000  0.4388850000000 1.0
C      1  0.5244670000000  0.4969210000000  0.4380450000000 1.0
C      1  0.4374140000000  0.5839830000000  0.4640580000000 1.0
C      1  0.5584730000000  0.4250930000000  0.4720410000000 1.0
C      1  0.4493140000000  0.4246610000000  0.5441580000000 1.0
C      1  0.5561250000000  0.5720110000000  0.5346600000000 1.0
C      1  0.5828760000000  0.4437250000000  0.4662590000000 1.0
C      1  0.4202990000000  0.5582410000000  0.4673500000000 1.0
C      1  0.4259730000000  0.4418870000000  0.5325420000000 1.0
C      1  0.5742760000000  0.5475030000000  0.5444020000000 1.0
C      1  0.3934740000000  0.4758140000000  0.4927720000000 1.0
C      1  0.5968000000000  0.5134160000000  0.4984050000000 1.0
C      1  0.3912760000000  0.5096940000000  0.4954580000000 1.0
C      1  0.6012180000000  0.4836670000000  0.5018350000000 1.0
C      1  0.4843160000000  0.4018880000000  0.5015630000000 1.0
C      1  0.5202330000000  0.6035210000000  0.5003550000000 1.0
C      1  0.5147720000000  0.3978020000000  0.5035030000000 1.0
C      1  0.4863530000000  0.6070330000000  0.5028520000000 1.0
C      1  0.4802590000000  0.4999510000000  0.4810210000000 1.0
C      1  0.5270570000000  0.5053720000000  0.4873050000000 1.0
C      1  0.4710270000000  0.5055150000000  0.5131930000000 1.0
C      1  0.5183510000000  0.5025300000000  0.5192740000000 1.0
C      1  0.4985210000000  0.4715660000000  0.4853850000000 1.0
C      1  0.5018950000000  0.5245510000000  0.4761150000000 1.0
C      1  0.5056750000000  0.4756550000000  0.5168320000000 1.0
C      1  0.4953670000000  0.5236030000000  0.5281660000000 1.0
C      1  0.5282230000000  0.4516670000000  0.5196980000000 1.0
C      1  0.4731400000000  0.5453060000000  0.5134400000000 1.0
C      1  0.5219780000000  0.5439370000000  0.4958030000000 1.0
C      1  0.4766010000000  0.4471300000000  0.4935030000000 1.0
C      1  0.4466080000000  0.5283650000000  0.5086150000000 1.0
C      1  0.5529470000000  0.4723140000000  0.5088000000000 1.0
C      1  0.5516730000000  0.5285160000000  0.4911150000000 1.0
C      1  0.4587790000000  0.4738990000000  0.4850150000000 1.0
C      1  0.5430470000000  0.4211060000000  0.4425200000000 1.0
C      1  0.4619630000000  0.5768230000000  0.4428700000000 1.0
C      1  0.5390180000000  0.5623030000000  0.5574260000000 1.0
C      1  0.4615360000000  0.4350730000000  0.5705140000000 1.0
C      1  0.4217020000000  0.5395160000000  0.4389840000000 1.0
C      1  0.5634710000000  0.4515910000000  0.4426300000000 1.0
C      1  0.5621060000000  0.5304800000000  0.5644540000000 1.0
C      1  0.4337220000000  0.4609680000000  0.5582500000000 1.0
C      1  0.4917730000000  0.5784460000000  0.4756110000000 1.0
C      1  0.5040740000000  0.4172080000000  0.4704580000000 1.0
C      1  0.4998240000000  0.4176000000000  0.5348070000000 1.0
C      1  0.5131970000000  0.5793540000000  0.5314000000000 1.0
C      1  0.5784140000000  0.4918770000000  0.4701870000000 1.0
C      1  0.4199910000000  0.5045590000000  0.4681130000000 1.0
C      1  0.4176110000000  0.4842420000000  0.5233920000000 1.0
C      1  0.5798560000000  0.4996360000000  0.5316290000000 1.0
C      1  0.5442890000000  0.5254250000000  0.5895230000000 1.0
C      1  0.4534180000000  0.4789940000000  0.5793450000000 1.0
C      1  0.5578710000000  0.4431960000000  0.4117010000000 1.0
C      1  0.4509500000000  0.5284540000000  0.4249540000000 1.0
C      1  0.5379130000000  0.5540050000000  0.5859070000000 1.0
C      1  0.4815140000000  0.4615020000000  0.5790710000000 1.0
C      1  0.4714580000000  0.5541600000000  0.4247800000000 1.0
C      1  0.5284050000000  0.4459450000000  0.4245010000000 1.0
C      1  0.5184800000000  0.5845780000000  0.4784700000000 1.0
C      1  0.4756140000000  0.4123840000000  0.4741440000000 1.0
C      1  0.5270480000000  0.4060520000000  0.5297900000000 1.0
C      1  0.4873910000000  0.5889550000000  0.5267540000000 1.0
C      1  0.5853590000000  0.5206060000000  0.4713050000000 1.0
C      1  0.4125400000000  0.4767180000000  0.4699360000000 1.0
C      1  0.4058850000000  0.5096230000000  0.5215520000000 1.0
C      1  0.5886750000000  0.4714150000000  0.5265320000000 1.0
C      1  0.4843280000000  0.5428330000000  0.5937350000000 1.0
C      1  0.5436060000000  0.4747810000000  0.5964150000000 1.0
C      1  0.4844770000000  0.4712250000000  0.4058270000000 1.0
C      1  0.5165240000000  0.5415060000000  0.3983080000000 1.0
C      1  0.4868740000000  0.5169580000000  0.5572810000000 1.0
C      1  0.5006780000000  0.5181800000000  0.4442180000000 1.0
END
