TITL C-2622953-3516-701 -0.00210426881957023 125000 -845.824694296247 0 0 153 (C1) n - 1
REM
REM in /nfs/bkarasulu/CARBON/AIRSS/Generating-Clusters/AIREBO/with-SteepDescent/Higher-Symm/SD-CG/HFTN-CG
REM
REM
REM
REM
REM
REM ./C.cell (b20cbc046b6831c77cfcea5457e17084)
REM
REM compiler GCC version 9.2.1 20190827 (Red Hat 9.2.1-1)
REM options -cpp -mtune=generic -march=x86-64 -g -O0 -fpre-include=/usr/include/finclude/math-vector-fortran.h
REM seed -2134369795 -20481920 1824731662 -63501802 -1981973299 1057661920 1352577335 1166792671 428220912 -1349540479 -1506850941 -1941143281 1919597856 -86498671 1344835397 -152527624 -1874062784 -81998482 -1344720133 1763753987 -1353391573 -1142020203 -370431487 -1484565756 -43013756 1132835562 -1361459258 1878223833 -457935861 1405021639 597401163 174771934 -688779160
REM
CELL 1.54180   50.00000   50.00000   50.00000   90.00000   90.00000   90.00000
LATT -1
SFAC C  
C      1  0.4184720000000  0.4523670000000  0.4427780000000 1.0
C      1  0.4327370000000  0.5674160000000  0.4573310000000 1.0
C      1  0.5483050000000  0.5974390000000  0.4642680000000 1.0
C      1  0.6025920000000  0.4869060000000  0.4582810000000 1.0
C      1  0.5141220000000  0.4047050000000  0.4673950000000 1.0
C      1  0.4758340000000  0.5287020000000  0.5594340000000 1.0
C      1  0.5150710000000  0.5351210000000  0.5565010000000 1.0
C      1  0.5210050000000  0.4919080000000  0.5556550000000 1.0
C      1  0.5096720000000  0.4614650000000  0.5644680000000 1.0
C      1  0.4622080000000  0.4802160000000  0.5662320000000 1.0
C      1  0.5450940000000  0.4589110000000  0.5811910000000 1.0
C      1  0.4734920000000  0.4477160000000  0.5830860000000 1.0
C      1  0.4424380000000  0.5132180000000  0.5748140000000 1.0
C      1  0.4989170000000  0.5583480000000  0.5843490000000 1.0
C      1  0.5555710000000  0.5246440000000  0.5748810000000 1.0
C      1  0.4216150000000  0.5344720000000  0.5596160000000 1.0
C      1  0.5192250000000  0.5694100000000  0.5614530000000 1.0
C      1  0.5815900000000  0.5094980000000  0.5632480000000 1.0
C      1  0.5273140000000  0.4320980000000  0.5697090000000 1.0
C      1  0.4417520000000  0.4537330000000  0.5723170000000 1.0
C      1  0.4971160000000  0.5544540000000  0.4124350000000 1.0
C      1  0.5344730000000  0.5250180000000  0.4141490000000 1.0
C      1  0.5085730000000  0.4784560000000  0.4254800000000 1.0
C      1  0.4769100000000  0.4761650000000  0.4131350000000 1.0
C      1  0.4743830000000  0.5036900000000  0.4282920000000 1.0
C      1  0.4867690000000  0.4095090000000  0.4553190000000 1.0
C      1  0.4089750000000  0.4771010000000  0.4522960000000 1.0
C      1  0.4552360000000  0.5893680000000  0.4617830000000 1.0
C      1  0.5643390000000  0.5672370000000  0.4607800000000 1.0
C      1  0.5790900000000  0.4637890000000  0.4535490000000 1.0
C      1  0.4482850000000  0.4381130000000  0.4932420000000 1.0
C      1  0.4313880000000  0.5138860000000  0.4806130000000 1.0
C      1  0.4975130000000  0.5760270000000  0.4881650000000 1.0
C      1  0.5767400000000  0.5206240000000  0.4813800000000 1.0
C      1  0.5362100000000  0.4414440000000  0.4879620000000 1.0
C      1  0.4938060000000  0.5334300000000  0.3883400000000 1.0
C      1  0.5167010000000  0.5160280000000  0.3898990000000 1.0
C      1  0.5085750000000  0.4890280000000  0.3931380000000 1.0
C      1  0.4788380000000  0.4894240000000  0.3839320000000 1.0
C      1  0.4703460000000  0.5173440000000  0.3845870000000 1.0
C      1  0.5015200000000  0.3995710000000  0.5361740000000 1.0
C      1  0.4057320000000  0.4659640000000  0.5304620000000 1.0
C      1  0.4419880000000  0.5707950000000  0.5302240000000 1.0
C      1  0.5598350000000  0.5805130000000  0.5317000000000 1.0
C      1  0.5971100000000  0.4699580000000  0.5307310000000 1.0
C      1  0.4709120000000  0.3943710000000  0.5228190000000 1.0
C      1  0.3966120000000  0.4904930000000  0.5086970000000 1.0
C      1  0.4613390000000  0.5955190000000  0.5186390000000 1.0
C      1  0.5838720000000  0.5648490000000  0.5134450000000 1.0
C      1  0.5831760000000  0.4472980000000  0.5095420000000 1.0
C      1  0.5706540000000  0.4428060000000  0.4332020000000 1.0
C      1  0.4610760000000  0.4136550000000  0.4448700000000 1.0
C      1  0.4237350000000  0.5028560000000  0.4493330000000 1.0
C      1  0.4829820000000  0.5856680000000  0.4589650000000 1.0
C      1  0.5794700000000  0.5421030000000  0.4543820000000 1.0
C      1  0.4576130000000  0.4580920000000  0.4256730000000 1.0
C      1  0.4461110000000  0.5227090000000  0.3982920000000 1.0
C      1  0.5222500000000  0.5774210000000  0.4113230000000 1.0
C      1  0.5641420000000  0.5273170000000  0.3973660000000 1.0
C      1  0.5170640000000  0.4513140000000  0.4388300000000 1.0
C      1  0.4767120000000  0.4928650000000  0.4604600000000 1.0
C      1  0.4923850000000  0.5229140000000  0.4576440000000 1.0
C      1  0.5207980000000  0.5224180000000  0.4696330000000 1.0
C      1  0.5222070000000  0.4922680000000  0.4536440000000 1.0
C      1  0.5012410000000  0.4726880000000  0.4685830000000 1.0
C      1  0.4139080000000  0.4432190000000  0.4962180000000 1.0
C      1  0.4170000000000  0.5659790000000  0.4864750000000 1.0
C      1  0.5400940000000  0.5995640000000  0.4947170000000 1.0
C      1  0.6019530000000  0.4992050000000  0.4892730000000 1.0
C      1  0.5181600000000  0.3957650000000  0.4969010000000 1.0
C      1  0.4717240000000  0.4950120000000  0.4929990000000 1.0
C      1  0.4844440000000  0.5231970000000  0.5050070000000 1.0
C      1  0.5150980000000  0.5276820000000  0.5010330000000 1.0
C      1  0.5343160000000  0.4788540000000  0.5060890000000 1.0
C      1  0.5065750000000  0.4727630000000  0.4992820000000 1.0
C      1  0.5346030000000  0.4735170000000  0.5357540000000 1.0
C      1  0.4861390000000  0.4606080000000  0.5411370000000 1.0
C      1  0.4599100000000  0.4977490000000  0.5398510000000 1.0
C      1  0.4840620000000  0.5428860000000  0.5308890000000 1.0
C      1  0.5321710000000  0.5229200000000  0.5297550000000 1.0
C      1  0.5332980000000  0.5920890000000  0.5413940000000 1.0
C      1  0.6002220000000  0.4988000000000  0.5402090000000 1.0
C      1  0.5306470000000  0.4054040000000  0.5486800000000 1.0
C      1  0.4189650000000  0.4418310000000  0.5499920000000 1.0
C      1  0.4176110000000  0.5531920000000  0.5337350000000 1.0
C      1  0.4738310000000  0.5108220000000  0.5877310000000 1.0
C      1  0.5039690000000  0.5267420000000  0.5875420000000 1.0
C      1  0.5307020000000  0.5079910000000  0.5813160000000 1.0
C      1  0.5192530000000  0.4778740000000  0.5926730000000 1.0
C      1  0.4853140000000  0.4789150000000  0.5905370000000 1.0
C      1  0.5557380000000  0.4272920000000  0.5073310000000 1.0
C      1  0.4448060000000  0.4115460000000  0.5141810000000 1.0
C      1  0.4069900000000  0.5202970000000  0.4981750000000 1.0
C      1  0.4944080000000  0.5970660000000  0.5108630000000 1.0
C      1  0.5966280000000  0.5373900000000  0.5035020000000 1.0
C      1  0.4408510000000  0.5207210000000  0.5355720000000 1.0
C      1  0.5055550000000  0.5650260000000  0.5319870000000 1.0
C      1  0.5611080000000  0.5149050000000  0.5366520000000 1.0
C      1  0.5369500000000  0.4439860000000  0.5411110000000 1.0
C      1  0.4582760000000  0.4468370000000  0.5446380000000 1.0
C      1  0.4221660000000  0.4295200000000  0.5221980000000 1.0
C      1  0.4076810000000  0.5472350000000  0.5064930000000 1.0
C      1  0.5218780000000  0.6031440000000  0.5169320000000 1.0
C      1  0.6095530000000  0.5140350000000  0.5181800000000 1.0
C      1  0.5381490000000  0.4055490000000  0.5172150000000 1.0
C      1  0.5758230000000  0.5444910000000  0.5365190000000 1.0
C      1  0.5693250000000  0.4430170000000  0.5398330000000 1.0
C      1  0.4663970000000  0.4151530000000  0.5469120000000 1.0
C      1  0.4105450000000  0.5053400000000  0.5345600000000 1.0
C      1  0.4784760000000  0.5806040000000  0.5425060000000 1.0
C      1  0.4436290000000  0.5181810000000  0.4300760000000 1.0
C      1  0.4990250000000  0.5792800000000  0.4356020000000 1.0
C      1  0.5642660000000  0.5247960000000  0.4305580000000 1.0
C      1  0.5447190000000  0.4361170000000  0.4344680000000 1.0
C      1  0.4549660000000  0.4315020000000  0.4216640000000 1.0
C      1  0.5530390000000  0.4679140000000  0.4831470000000 1.0
C      1  0.4808700000000  0.4308410000000  0.4883790000000 1.0
C      1  0.4362420000000  0.4820290000000  0.4807430000000 1.0
C      1  0.4701420000000  0.5594680000000  0.4861800000000 1.0
C      1  0.5505690000000  0.5410840000000  0.4887060000000 1.0
C      1  0.5377300000000  0.5550150000000  0.5273710000000 1.0
C      1  0.5652290000000  0.4817770000000  0.5312360000000 1.0
C      1  0.5049990000000  0.4333660000000  0.5365460000000 1.0
C      1  0.4387380000000  0.4728730000000  0.5348110000000 1.0
C      1  0.4543700000000  0.5434490000000  0.5215280000000 1.0
C      1  0.4891560000000  0.4025410000000  0.4985380000000 1.0
C      1  0.4057930000000  0.4709740000000  0.4851390000000 1.0
C      1  0.4461340000000  0.5811270000000  0.4922140000000 1.0
C      1  0.5609690000000  0.5732340000000  0.4928820000000 1.0
C      1  0.5930150000000  0.4665450000000  0.4844520000000 1.0
C      1  0.5732300000000  0.5032580000000  0.4523480000000 1.0
C      1  0.5325660000000  0.4265040000000  0.4615680000000 1.0
C      1  0.4438070000000  0.4373970000000  0.4595380000000 1.0
C      1  0.4467670000000  0.5442650000000  0.4464000000000 1.0
C      1  0.5300360000000  0.5781290000000  0.4445060000000 1.0
C      1  0.4715920000000  0.5437890000000  0.4595680000000 1.0
C      1  0.5352020000000  0.5497450000000  0.4596960000000 1.0
C      1  0.5505420000000  0.4821700000000  0.4553850000000 1.0
C      1  0.4956500000000  0.4413910000000  0.4606490000000 1.0
C      1  0.4519820000000  0.4701160000000  0.4552020000000 1.0
C      1  0.4872730000000  0.4287310000000  0.5652220000000 1.0
C      1  0.4253560000000  0.4925220000000  0.5591520000000 1.0
C      1  0.4750100000000  0.5622120000000  0.5651300000000 1.0
C      1  0.5525750000000  0.5482050000000  0.5572260000000 1.0
C      1  0.5655660000000  0.4669820000000  0.5618760000000 1.0
C      1  0.4537160000000  0.5303010000000  0.4921630000000 1.0
C      1  0.5235980000000  0.5602010000000  0.4967120000000 1.0
C      1  0.5637270000000  0.4953810000000  0.5000970000000 1.0
C      1  0.5060990000000  0.4418720000000  0.5038500000000 1.0
C      1  0.4521240000000  0.4698620000000  0.5048230000000 1.0
C      1  0.4982800000000  0.5082850000000  0.5440840000000 1.0
C      1  0.4861200000000  0.4870880000000  0.5221050000000 1.0
C      1  0.5021460000000  0.5237310000000  0.4261310000000 1.0
END
