TITL C-2622954-8726-738 -0.00213166084338583 125000 -613.260552212316 0 0 122 (C1) n - 1
REM
REM in /nfs/bkarasulu/CARBON/AIRSS/Generating-Clusters/AIREBO/with-SteepDescent/Higher-Symm/SD-CG/HFTN-CG
REM
REM
REM
REM
REM
REM ./C.cell (b20cbc046b6831c77cfcea5457e17084)
REM
REM compiler GCC version 9.2.1 20190827 (Red Hat 9.2.1-1)
REM options -cpp -mtune=generic -march=x86-64 -g -O0 -fpre-include=/usr/include/finclude/math-vector-fortran.h
REM seed -1642218397 -763083571 290745515 -239637448 -613020118 -1722633490 -557943513 1794160216 -1436722703 410570601 1368929053 100968292 870331448 238918370 1934871975 823040868 295036601 855145821 -1886656098 -1052709689 1239219923 -211147708 2137794832 -682939600 -1522999866 381150192 -771129703 1121591216 -850500711 -683377455 -1705668423 1661299456 -70243569
REM
CELL 1.54180   50.00000   50.00000   50.00000   90.00000   90.00000   90.00000
LATT -1
SFAC C  
C      1  0.5510400000000  0.5269520000000  0.4834090000000 1.0
C      1  0.4470710000000  0.4712550000000  0.4893780000000 1.0
C      1  0.5431410000000  0.5336860000000  0.5119070000000 1.0
C      1  0.4623300000000  0.4660660000000  0.5167150000000 1.0
C      1  0.4850310000000  0.4452790000000  0.4467250000000 1.0
C      1  0.5193760000000  0.5521690000000  0.4457490000000 1.0
C      1  0.4791040000000  0.4573710000000  0.5519390000000 1.0
C      1  0.5242650000000  0.5476130000000  0.5503760000000 1.0
C      1  0.5742770000000  0.5307350000000  0.4613280000000 1.0
C      1  0.4244370000000  0.4694030000000  0.4646940000000 1.0
C      1  0.5682070000000  0.5322190000000  0.5323230000000 1.0
C      1  0.4303480000000  0.4685540000000  0.5264440000000 1.0
C      1  0.4996390000000  0.5590790000000  0.5216650000000 1.0
C      1  0.5096730000000  0.4448330000000  0.5293940000000 1.0
C      1  0.4969400000000  0.5660110000000  0.4824720000000 1.0
C      1  0.5054730000000  0.4307280000000  0.4793590000000 1.0
C      1  0.5541530000000  0.4938900000000  0.4775450000000 1.0
C      1  0.4449970000000  0.5038340000000  0.4815960000000 1.0
C      1  0.5502360000000  0.4832600000000  0.5222270000000 1.0
C      1  0.4424550000000  0.5161740000000  0.5195170000000 1.0
C      1  0.5822590000000  0.4951170000000  0.4498530000000 1.0
C      1  0.4202740000000  0.5052400000000  0.4509120000000 1.0
C      1  0.5746560000000  0.4990970000000  0.5492350000000 1.0
C      1  0.4199990000000  0.5048780000000  0.5495370000000 1.0
C      1  0.5290540000000  0.4133700000000  0.5144250000000 1.0
C      1  0.4752950000000  0.5902540000000  0.5183730000000 1.0
C      1  0.5408030000000  0.4083520000000  0.4892840000000 1.0
C      1  0.4614960000000  0.5906530000000  0.4931450000000 1.0
C      1  0.4691010000000  0.4201460000000  0.4319080000000 1.0
C      1  0.5227430000000  0.5816140000000  0.4290690000000 1.0
C      1  0.4821060000000  0.4203750000000  0.5667390000000 1.0
C      1  0.5062920000000  0.5746300000000  0.5605840000000 1.0
C      1  0.4479190000000  0.4354080000000  0.5136220000000 1.0
C      1  0.5545010000000  0.5655490000000  0.5153400000000 1.0
C      1  0.4445450000000  0.4386850000000  0.4799480000000 1.0
C      1  0.5567780000000  0.5604200000000  0.4815030000000 1.0
C      1  0.5681210000000  0.4691840000000  0.4493620000000 1.0
C      1  0.4280380000000  0.5345340000000  0.4473290000000 1.0
C      1  0.5730050000000  0.4665530000000  0.5580250000000 1.0
C      1  0.4267620000000  0.5380320000000  0.5531120000000 1.0
C      1  0.5334110000000  0.5018530000000  0.4158050000000 1.0
C      1  0.4655840000000  0.4974180000000  0.4184350000000 1.0
C      1  0.5233540000000  0.5071190000000  0.5904090000000 1.0
C      1  0.4718350000000  0.4910000000000  0.5890510000000 1.0
C      1  0.5158340000000  0.5561570000000  0.5881260000000 1.0
C      1  0.4747500000000  0.4432890000000  0.5887420000000 1.0
C      1  0.5247290000000  0.5557640000000  0.4070450000000 1.0
C      1  0.4672330000000  0.4463080000000  0.4111610000000 1.0
C      1  0.5137140000000  0.4432050000000  0.4414840000000 1.0
C      1  0.4876890000000  0.5541150000000  0.4457710000000 1.0
C      1  0.5081490000000  0.4499260000000  0.5607680000000 1.0
C      1  0.4915260000000  0.5388850000000  0.5532720000000 1.0
C      1  0.5099570000000  0.5265050000000  0.4166740000000 1.0
C      1  0.4878820000000  0.4717020000000  0.4169030000000 1.0
C      1  0.5061570000000  0.5292750000000  0.5908650000000 1.0
C      1  0.4889110000000  0.4688790000000  0.5909660000000 1.0
C      1  0.4192690000000  0.4954920000000  0.5164790000000 1.0
C      1  0.5761420000000  0.5042900000000  0.5155780000000 1.0
C      1  0.4121210000000  0.4952390000000  0.4830520000000 1.0
C      1  0.5852410000000  0.5066560000000  0.4827280000000 1.0
C      1  0.5089150000000  0.5889680000000  0.5134660000000 1.0
C      1  0.4966810000000  0.4165850000000  0.5156220000000 1.0
C      1  0.5158820000000  0.5897890000000  0.4831110000000 1.0
C      1  0.4858230000000  0.4081610000000  0.4862810000000 1.0
C      1  0.5448320000000  0.4470940000000  0.4154700000000 1.0
C      1  0.4585380000000  0.5539280000000  0.4180450000000 1.0
C      1  0.5398220000000  0.4476600000000  0.5863920000000 1.0
C      1  0.4586180000000  0.5489450000000  0.5891620000000 1.0
C      1  0.5209710000000  0.5187780000000  0.4479120000000 1.0
C      1  0.4783430000000  0.4765350000000  0.4491840000000 1.0
C      1  0.5222580000000  0.5136720000000  0.5509920000000 1.0
C      1  0.4772310000000  0.4879930000000  0.5496510000000 1.0
C      1  0.4756730000000  0.5223250000000  0.5774920000000 1.0
C      1  0.5205160000000  0.4748960000000  0.5799040000000 1.0
C      1  0.4773530000000  0.5272730000000  0.4276380000000 1.0
C      1  0.5217240000000  0.4707880000000  0.4232850000000 1.0
C      1  0.5552790000000  0.4418860000000  0.5636830000000 1.0
C      1  0.4494650000000  0.5585980000000  0.5635700000000 1.0
C      1  0.5574460000000  0.4428780000000  0.4408330000000 1.0
C      1  0.4450230000000  0.5590520000000  0.4430190000000 1.0
C      1  0.4458260000000  0.4842230000000  0.4427920000000 1.0
C      1  0.5539990000000  0.5120830000000  0.4413860000000 1.0
C      1  0.4484150000000  0.4953650000000  0.5661440000000 1.0
C      1  0.5473220000000  0.5035730000000  0.5691360000000 1.0
C      1  0.4624800000000  0.5499590000000  0.5194520000000 1.0
C      1  0.5548830000000  0.4446450000000  0.5130070000000 1.0
C      1  0.4579210000000  0.5432660000000  0.4872140000000 1.0
C      1  0.5435790000000  0.4547770000000  0.4844440000000 1.0
C      1  0.4661930000000  0.5681220000000  0.4680990000000 1.0
C      1  0.5358190000000  0.4305560000000  0.4640140000000 1.0
C      1  0.4763000000000  0.5680650000000  0.5447070000000 1.0
C      1  0.5405220000000  0.4333050000000  0.5382470000000 1.0
C      1  0.5252250000000  0.4911790000000  0.5084420000000 1.0
C      1  0.4736890000000  0.5170720000000  0.5127020000000 1.0
C      1  0.5183100000000  0.4773630000000  0.4816850000000 1.0
C      1  0.4810980000000  0.5195650000000  0.4796100000000 1.0
C      1  0.5137160000000  0.5303460000000  0.5158910000000 1.0
C      1  0.4918190000000  0.4708850000000  0.5167850000000 1.0
C      1  0.5029440000000  0.5388110000000  0.4881500000000 1.0
C      1  0.5006300000000  0.4546750000000  0.4918980000000 1.0
C      1  0.4323230000000  0.4432750000000  0.5437190000000 1.0
C      1  0.5637790000000  0.5580320000000  0.5483190000000 1.0
C      1  0.4313240000000  0.4422220000000  0.4487270000000 1.0
C      1  0.5698450000000  0.5589000000000  0.4494140000000 1.0
C      1  0.4560310000000  0.5218010000000  0.5495100000000 1.0
C      1  0.5412660000000  0.4773030000000  0.5522500000000 1.0
C      1  0.4579740000000  0.5201860000000  0.4546860000000 1.0
C      1  0.5365090000000  0.4783000000000  0.4529790000000 1.0
C      1  0.4293940000000  0.5471950000000  0.5147010000000 1.0
C      1  0.5786390000000  0.4648510000000  0.5189370000000 1.0
C      1  0.4267520000000  0.5320800000000  0.4866450000000 1.0
C      1  0.5730950000000  0.4693580000000  0.4888330000000 1.0
C      1  0.4681850000000  0.4240710000000  0.4657240000000 1.0
C      1  0.5346670000000  0.5777500000000  0.4621260000000 1.0
C      1  0.4736210000000  0.4285070000000  0.5348240000000 1.0
C      1  0.5312420000000  0.5776780000000  0.5360690000000 1.0
C      1  0.4509630000000  0.4437590000000  0.5639840000000 1.0
C      1  0.5464680000000  0.5587680000000  0.5735930000000 1.0
C      1  0.4389950000000  0.4445860000000  0.4230060000000 1.0
C      1  0.5497020000000  0.5536910000000  0.4300260000000 1.0
C      1  0.4998000000000  0.5018900000000  0.5283200000000 1.0
C      1  0.4989140000000  0.4978770000000  0.4632160000000 1.0
END
