TITL C-2622967-6265-56 0.000394886001123021 125000 -314.847417662926 0 0 56 (C1) n - 1
REM
REM in /nfs/bkarasulu/CARBON/AIRSS/Generating-Clusters/AIREBO/with-SteepDescent/Higher-Symm/SD-CG/HFTN-CG
REM
REM
REM
REM
REM
REM ./C.cell (b20cbc046b6831c77cfcea5457e17084)
REM
REM compiler GCC version 9.2.1 20190827 (Red Hat 9.2.1-1)
REM options -cpp -mtune=generic -march=x86-64 -g -O0 -fpre-include=/usr/include/finclude/math-vector-fortran.h
REM seed -1618681348 293655966 -2071406311 -40386169 2076062491 -1413089951 -1651716864 373906127 -1583903151 -800710781 121860009 488847677 1624030447 1015074703 1271247143 1536932642 -1124000594 -1838045095 -1535733319 618615871 -657623672 1002789074 -1264912999 1351716463 42680164 1644037180 430389314 300511577 321506035 803221208 -1079350505 452708420 -189469875
REM
CELL 1.54180   50.00000   50.00000   50.00000   90.00000   90.00000   90.00000
LATT -1
SFAC C  
C      1  0.5295410000000  0.4514560000000  0.4673950000000 1.0
C      1  0.4399090000000  0.5004690000000  0.4730950000000 1.0
C      1  0.5231940000000  0.5593050000000  0.4696110000000 1.0
C      1  0.4648060000000  0.4271140000000  0.5113340000000 1.0
C      1  0.4592320000000  0.5701630000000  0.5334990000000 1.0
C      1  0.5812640000000  0.5031740000000  0.5172350000000 1.0
C      1  0.5133460000000  0.4618690000000  0.4236780000000 1.0
C      1  0.4306090000000  0.5478960000000  0.4806220000000 1.0
C      1  0.5604320000000  0.5359320000000  0.4486900000000 1.0
C      1  0.5391060000000  0.4261720000000  0.4612110000000 1.0
C      1  0.4415340000000  0.4892290000000  0.4472570000000 1.0
C      1  0.5042890000000  0.5678590000000  0.4503430000000 1.0
C      1  0.4668580000000  0.4809650000000  0.4386110000000 1.0
C      1  0.4810480000000  0.5522150000000  0.4480920000000 1.0
C      1  0.5501860000000  0.4030880000000  0.4538750000000 1.0
C      1  0.5293510000000  0.5579020000000  0.5465190000000 1.0
C      1  0.5385790000000  0.4444970000000  0.5396100000000 1.0
C      1  0.4379910000000  0.4889590000000  0.5461160000000 1.0
C      1  0.4761240000000  0.4949570000000  0.5825070000000 1.0
C      1  0.5174800000000  0.5202780000000  0.5815600000000 1.0
C      1  0.5183120000000  0.4718760000000  0.5800020000000 1.0
C      1  0.5259700000000  0.4534770000000  0.5617910000000 1.0
C      1  0.4546380000000  0.4960810000000  0.5662140000000 1.0
C      1  0.5289010000000  0.5392490000000  0.5660670000000 1.0
C      1  0.5602840000000  0.3794210000000  0.4488900000000 1.0
C      1  0.4746180000000  0.4766890000000  0.4127670000000 1.0
C      1  0.4645890000000  0.5507740000000  0.4263450000000 1.0
C      1  0.5128880000000  0.4737300000000  0.5258200000000 1.0
C      1  0.4721740000000  0.5017080000000  0.5258010000000 1.0
C      1  0.5166330000000  0.5234680000000  0.5299260000000 1.0
C      1  0.5413320000000  0.4953110000000  0.4899960000000 1.0
C      1  0.4736510000000  0.4673100000000  0.4860830000000 1.0
C      1  0.4855760000000  0.5482810000000  0.4983380000000 1.0
C      1  0.5444380000000  0.4520840000000  0.5142640000000 1.0
C      1  0.4380500000000  0.4817430000000  0.5199380000000 1.0
C      1  0.5270650000000  0.5643230000000  0.5202630000000 1.0
C      1  0.4473240000000  0.4830960000000  0.4938670000000 1.0
C      1  0.5138360000000  0.5601200000000  0.4961740000000 1.0
C      1  0.5386630000000  0.4644100000000  0.4899690000000 1.0
C      1  0.5720280000000  0.5037060000000  0.4909710000000 1.0
C      1  0.4686180000000  0.4362390000000  0.4853110000000 1.0
C      1  0.4643420000000  0.5706720000000  0.5061900000000 1.0
C      1  0.4478470000000  0.5272000000000  0.4755430000000 1.0
C      1  0.5374410000000  0.5356840000000  0.4626480000000 1.0
C      1  0.5104870000000  0.4633170000000  0.4510540000000 1.0
C      1  0.4862630000000  0.5293820000000  0.5244770000000 1.0
C      1  0.5319600000000  0.4979500000000  0.5210260000000 1.0
C      1  0.4830470000000  0.4737760000000  0.5172200000000 1.0
C      1  0.4873630000000  0.4801510000000  0.4615980000000 1.0
C      1  0.4777610000000  0.5332250000000  0.4720080000000 1.0
C      1  0.5249110000000  0.5120290000000  0.4715340000000 1.0
C      1  0.4685370000000  0.4475630000000  0.5298750000000 1.0
C      1  0.4724640000000  0.5490890000000  0.5458630000000 1.0
C      1  0.5608710000000  0.4964310000000  0.5349330000000 1.0
C      1  0.4969360000000  0.5084880000000  0.4683380000000 1.0
C      1  0.5041470000000  0.4957240000000  0.5844210000000 1.0
END
