TITL C-2622954-8726-834 0.000150540948460362 125000 -308.75351656016 0 0 59 (C1) n - 1
REM
REM in /nfs/bkarasulu/CARBON/AIRSS/Generating-Clusters/AIREBO/with-SteepDescent/Higher-Symm/SD-CG/HFTN-CG
REM
REM
REM
REM
REM
REM ./C.cell (b20cbc046b6831c77cfcea5457e17084)
REM
REM compiler GCC version 9.2.1 20190827 (Red Hat 9.2.1-1)
REM options -cpp -mtune=generic -march=x86-64 -g -O0 -fpre-include=/usr/include/finclude/math-vector-fortran.h
REM seed -1928003241 1041923550 -278308901 -856304221 -1842850317 -1528720105 1479406914 -1363714167 -91927452 1209551210 -135246699 775196344 -4803737 -69247919 1735566240 1222700293 359372340 -913360044 -235360234 -2100045203 605888159 -1018176643 1727644264 -947152196 551347653 1704339506 -1368407700 -948196364 405307448 -362079414 -1055448439 491767577 -1594515136
REM
CELL 1.54180   50.00000   50.00000   50.00000   90.00000   90.00000   90.00000
LATT -1
SFAC C  
C      1  0.4150590000000  0.4977410000000  0.4852150000000 1.0
C      1  0.4560610000000  0.5470250000000  0.4725730000000 1.0
C      1  0.5095380000000  0.5670780000000  0.4765820000000 1.0
C      1  0.5634830000000  0.5367360000000  0.4819020000000 1.0
C      1  0.5705300000000  0.4698830000000  0.4843400000000 1.0
C      1  0.5188560000000  0.4366700000000  0.4801570000000 1.0
C      1  0.4632700000000  0.4452330000000  0.4784720000000 1.0
C      1  0.5016150000000  0.5599240000000  0.5390060000000 1.0
C      1  0.5467680000000  0.5365330000000  0.5430290000000 1.0
C      1  0.5565840000000  0.4851050000000  0.5441650000000 1.0
C      1  0.5230420000000  0.4449150000000  0.5430370000000 1.0
C      1  0.4718370000000  0.4471590000000  0.5415120000000 1.0
C      1  0.4396170000000  0.4874970000000  0.5415240000000 1.0
C      1  0.4554400000000  0.5378960000000  0.5367360000000 1.0
C      1  0.5326720000000  0.5176360000000  0.4498560000000 1.0
C      1  0.5306200000000  0.4868390000000  0.4574450000000 1.0
C      1  0.5076700000000  0.4617470000000  0.4600900000000 1.0
C      1  0.4746360000000  0.4692250000000  0.4569470000000 1.0
C      1  0.4601420000000  0.4958670000000  0.4627610000000 1.0
C      1  0.4789240000000  0.5242080000000  0.4619280000000 1.0
C      1  0.5104080000000  0.5369920000000  0.4607520000000 1.0
C      1  0.5385270000000  0.5108150000000  0.4991930000000 1.0
C      1  0.5309910000000  0.4829110000000  0.4896460000000 1.0
C      1  0.4947860000000  0.4661920000000  0.4912510000000 1.0
C      1  0.4678550000000  0.4782870000000  0.5004610000000 1.0
C      1  0.4630460000000  0.5079580000000  0.4944140000000 1.0
C      1  0.4863500000000  0.5327710000000  0.4942460000000 1.0
C      1  0.5194720000000  0.5323030000000  0.4931900000000 1.0
C      1  0.4960260000000  0.4272520000000  0.5017150000000 1.0
C      1  0.4415200000000  0.4568210000000  0.5009570000000 1.0
C      1  0.4333750000000  0.5168540000000  0.5042700000000 1.0
C      1  0.4744250000000  0.5646010000000  0.4951550000000 1.0
C      1  0.5353390000000  0.5621590000000  0.4981740000000 1.0
C      1  0.5717610000000  0.5137680000000  0.5045560000000 1.0
C      1  0.5455480000000  0.4572190000000  0.5015920000000 1.0
C      1  0.4302670000000  0.4840640000000  0.5125200000000 1.0
C      1  0.4498520000000  0.5438350000000  0.5061560000000 1.0
C      1  0.5040230000000  0.5676650000000  0.5102260000000 1.0
C      1  0.5567710000000  0.5424160000000  0.5150870000000 1.0
C      1  0.5627980000000  0.4833860000000  0.5147820000000 1.0
C      1  0.5261670000000  0.4371660000000  0.5138760000000 1.0
C      1  0.4690580000000  0.4400540000000  0.5117630000000 1.0
C      1  0.4436390000000  0.5147680000000  0.5476390000000 1.0
C      1  0.4756710000000  0.5539580000000  0.5475590000000 1.0
C      1  0.5257300000000  0.5529630000000  0.5513060000000 1.0
C      1  0.5556960000000  0.5118050000000  0.5535910000000 1.0
C      1  0.5431460000000  0.4619220000000  0.5531360000000 1.0
C      1  0.4969280000000  0.4411590000000  0.5525030000000 1.0
C      1  0.4517190000000  0.4641240000000  0.5518000000000 1.0
C      1  0.5129490000000  0.5687890000000  0.4444710000000 1.0
C      1  0.5566740000000  0.5299940000000  0.4569370000000 1.0
C      1  0.5617690000000  0.4762840000000  0.4588260000000 1.0
C      1  0.5111730000000  0.4481070000000  0.4333110000000 1.0
C      1  0.4566300000000  0.4438160000000  0.4469700000000 1.0
C      1  0.4282270000000  0.4945340000000  0.4604430000000 1.0
C      1  0.4367690000000  0.5581230000000  0.4526090000000 1.0
C      1  0.5044080000000  0.4925920000000  0.5085130000000 1.0
C      1  0.5017000000000  0.4979270000000  0.5349760000000 1.0
C      1  0.4976690000000  0.4995230000000  0.4759110000000 1.0
END
