TITL C-2622953-3516-190 0.00251007285706498 125000 -799.768362788942 0 0 152 (C1) n - 1
REM
REM in /nfs/bkarasulu/CARBON/AIRSS/Generating-Clusters/AIREBO/with-SteepDescent/Higher-Symm/SD-CG/HFTN-CG
REM
REM
REM
REM
REM
REM ./C.cell (b20cbc046b6831c77cfcea5457e17084)
REM
REM compiler GCC version 9.2.1 20190827 (Red Hat 9.2.1-1)
REM options -cpp -mtune=generic -march=x86-64 -g -O0 -fpre-include=/usr/include/finclude/math-vector-fortran.h
REM seed 1713846887 1409579599 -1611479485 1259319136 592235349 -1876798580 802620126 1072708132 1782411790 334351330 -1435601810 -376570365 -1946434856 2043519768 425413499 -35841573 1551967611 1177880313 1818704956 1531365163 1218586793 662607614 -1257789065 354341367 1235601690 -1106020598 1935589329 -1873803811 -788492547 -1571294802 538212599 9985769 716776660
REM
CELL 1.54180   50.00000   50.00000   50.00000   90.00000   90.00000   90.00000
LATT -1
SFAC C  
C      1  0.5462040000000  0.5455430000000  0.4905350000000 1.0
C      1  0.4920020000000  0.5523100000000  0.5521880000000 1.0
C      1  0.4673040000000  0.5452330000000  0.4606130000000 1.0
C      1  0.5959210000000  0.5277770000000  0.5482470000000 1.0
C      1  0.3959460000000  0.5241230000000  0.5459580000000 1.0
C      1  0.5050600000000  0.5139260000000  0.3902440000000 1.0
C      1  0.4962210000000  0.4288240000000  0.4052550000000 1.0
C      1  0.5803950000000  0.4292370000000  0.5358810000000 1.0
C      1  0.4240390000000  0.4305080000000  0.5514880000000 1.0
C      1  0.5016510000000  0.4749670000000  0.5856330000000 1.0
C      1  0.4270830000000  0.4761780000000  0.4508720000000 1.0
C      1  0.5818280000000  0.4680820000000  0.4468930000000 1.0
C      1  0.5904770000000  0.5572780000000  0.5158670000000 1.0
C      1  0.4377300000000  0.5474970000000  0.5711050000000 1.0
C      1  0.4671420000000  0.5486030000000  0.4140630000000 1.0
C      1  0.5337300000000  0.5140980000000  0.4942650000000 1.0
C      1  0.4916950000000  0.5241250000000  0.5306870000000 1.0
C      1  0.4755400000000  0.5217970000000  0.4814470000000 1.0
C      1  0.5250280000000  0.4956020000000  0.5616910000000 1.0
C      1  0.4380180000000  0.4782620000000  0.4964780000000 1.0
C      1  0.5335530000000  0.4800390000000  0.4450130000000 1.0
C      1  0.4913870000000  0.5406290000000  0.4359320000000 1.0
C      1  0.5625380000000  0.5421600000000  0.5179800000000 1.0
C      1  0.4423670000000  0.5358770000000  0.5397660000000 1.0
C      1  0.5058890000000  0.5216350000000  0.4818580000000 1.0
C      1  0.5214690000000  0.5326250000000  0.5190630000000 1.0
C      1  0.4684600000000  0.5342710000000  0.5096460000000 1.0
C      1  0.6133560000000  0.5451360000000  0.5167790000000 1.0
C      1  0.4228360000000  0.5325950000000  0.5855410000000 1.0
C      1  0.4586370000000  0.5320370000000  0.3969640000000 1.0
C      1  0.5191020000000  0.4489820000000  0.5153130000000 1.0
C      1  0.4802260000000  0.4452180000000  0.5074040000000 1.0
C      1  0.5067860000000  0.4448870000000  0.4776880000000 1.0
C      1  0.5394390000000  0.4854630000000  0.4839240000000 1.0
C      1  0.4924170000000  0.4929760000000  0.5392970000000 1.0
C      1  0.4691360000000  0.4891710000000  0.4743290000000 1.0
C      1  0.5688120000000  0.4969470000000  0.4840730000000 1.0
C      1  0.4728090000000  0.5008640000000  0.5659620000000 1.0
C      1  0.4489260000000  0.4988640000000  0.4518840000000 1.0
C      1  0.5330390000000  0.4058350000000  0.4961180000000 1.0
C      1  0.4907320000000  0.4064590000000  0.5303070000000 1.0
C      1  0.4834430000000  0.4033120000000  0.4798220000000 1.0
C      1  0.5019940000000  0.6081660000000  0.4583500000000 1.0
C      1  0.5306650000000  0.5983620000000  0.5278760000000 1.0
C      1  0.4679240000000  0.6153420000000  0.5073230000000 1.0
C      1  0.5091950000000  0.4836180000000  0.4684760000000 1.0
C      1  0.5244390000000  0.4906370000000  0.5280400000000 1.0
C      1  0.4696410000000  0.4834990000000  0.5078590000000 1.0
C      1  0.5277420000000  0.4116520000000  0.4622820000000 1.0
C      1  0.5220430000000  0.4119800000000  0.5426590000000 1.0
C      1  0.4549580000000  0.4124530000000  0.4981570000000 1.0
C      1  0.5453760000000  0.5571590000000  0.5394940000000 1.0
C      1  0.4365260000000  0.5636390000000  0.5236020000000 1.0
C      1  0.5108710000000  0.5615360000000  0.4519770000000 1.0
C      1  0.5321400000000  0.5615950000000  0.5881250000000 1.0
C      1  0.4238220000000  0.5762650000000  0.4762700000000 1.0
C      1  0.5598400000000  0.5639190000000  0.4374580000000 1.0
C      1  0.4062840000000  0.5129640000000  0.4842960000000 1.0
C      1  0.5554830000000  0.5140530000000  0.4283040000000 1.0
C      1  0.5410840000000  0.5073780000000  0.5965240000000 1.0
C      1  0.4504870000000  0.4143740000000  0.4382660000000 1.0
C      1  0.5846630000000  0.4238960000000  0.4840810000000 1.0
C      1  0.4729360000000  0.4261930000000  0.5774470000000 1.0
C      1  0.4748090000000  0.4558110000000  0.4777880000000 1.0
C      1  0.5351620000000  0.4546710000000  0.4872630000000 1.0
C      1  0.4947830000000  0.4607640000000  0.5331520000000 1.0
C      1  0.5618090000000  0.4462340000000  0.4449170000000 1.0
C      1  0.5149080000000  0.4439910000000  0.5808370000000 1.0
C      1  0.4290250000000  0.4496640000000  0.4702750000000 1.0
C      1  0.4388620000000  0.5418360000000  0.4986370000000 1.0
C      1  0.5278000000000  0.5381410000000  0.4630520000000 1.0
C      1  0.5220470000000  0.5394600000000  0.5514220000000 1.0
C      1  0.4736860000000  0.4745710000000  0.5828900000000 1.0
C      1  0.4330530000000  0.4579520000000  0.4258140000000 1.0
C      1  0.5858390000000  0.4738460000000  0.4739980000000 1.0
C      1  0.4782090000000  0.5837760000000  0.4994060000000 1.0
C      1  0.5141160000000  0.5873300000000  0.4822620000000 1.0
C      1  0.5042750000000  0.5827360000000  0.5294500000000 1.0
C      1  0.5030510000000  0.5477670000000  0.5847310000000 1.0
C      1  0.4345720000000  0.5543440000000  0.4590590000000 1.0
C      1  0.5679830000000  0.5514160000000  0.4639430000000 1.0
C      1  0.5331990000000  0.6052900000000  0.5015260000000 1.0
C      1  0.4769260000000  0.5993150000000  0.5359260000000 1.0
C      1  0.4783660000000  0.6082890000000  0.4758450000000 1.0
C      1  0.5394920000000  0.5858440000000  0.4256450000000 1.0
C      1  0.5520990000000  0.5823620000000  0.5738310000000 1.0
C      1  0.4220790000000  0.5943510000000  0.5025360000000 1.0
C      1  0.5841310000000  0.5255210000000  0.4433030000000 1.0
C      1  0.5222990000000  0.5258350000000  0.6022490000000 1.0
C      1  0.4071570000000  0.5333270000000  0.4565270000000 1.0
C      1  0.4112230000000  0.5078440000000  0.5686060000000 1.0
C      1  0.4755920000000  0.5056100000000  0.3937160000000 1.0
C      1  0.6033310000000  0.5077110000000  0.5314320000000 1.0
C      1  0.5582190000000  0.4043110000000  0.4754510000000 1.0
C      1  0.4948240000000  0.4077170000000  0.5625840000000 1.0
C      1  0.4531820000000  0.4010430000000  0.4675150000000 1.0
C      1  0.5023450000000  0.5177770000000  0.5687180000000 1.0
C      1  0.4360370000000  0.5224710000000  0.4708270000000 1.0
C      1  0.5562630000000  0.5195620000000  0.4618600000000 1.0
C      1  0.5555290000000  0.4376460000000  0.4744280000000 1.0
C      1  0.4931800000000  0.4438770000000  0.5568370000000 1.0
C      1  0.4556430000000  0.4355730000000  0.4643460000000 1.0
C      1  0.5210730000000  0.5640370000000  0.5060440000000 1.0
C      1  0.4783320000000  0.5618860000000  0.5224930000000 1.0
C      1  0.4870150000000  0.5695030000000  0.4720240000000 1.0
C      1  0.5659690000000  0.5288400000000  0.5579440000000 1.0
C      1  0.4062450000000  0.5481660000000  0.5242260000000 1.0
C      1  0.5158310000000  0.5366040000000  0.4125990000000 1.0
C      1  0.5031820000000  0.3965990000000  0.4598780000000 1.0
C      1  0.5385510000000  0.3981670000000  0.5235260000000 1.0
C      1  0.4644890000000  0.3983880000000  0.5218610000000 1.0
C      1  0.5331280000000  0.4391530000000  0.5525390000000 1.0
C      1  0.4412370000000  0.4388250000000  0.5014310000000 1.0
C      1  0.5287170000000  0.4381030000000  0.4449440000000 1.0
C      1  0.4643880000000  0.5024870000000  0.4256740000000 1.0
C      1  0.5784110000000  0.4981370000000  0.5119870000000 1.0
C      1  0.4443490000000  0.5094590000000  0.5610800000000 1.0
C      1  0.4827780000000  0.4482460000000  0.4210310000000 1.0
C      1  0.5755290000000  0.4547750000000  0.5231350000000 1.0
C      1  0.4397090000000  0.4544700000000  0.5522810000000 1.0
C      1  0.5474830000000  0.5153310000000  0.5325410000000 1.0
C      1  0.4544790000000  0.5089090000000  0.5228890000000 1.0
C      1  0.5001200000000  0.5117940000000  0.4517160000000 1.0
C      1  0.4119580000000  0.4558610000000  0.4984730000000 1.0
C      1  0.5362190000000  0.4587730000000  0.4190000000000 1.0
C      1  0.5480520000000  0.4488400000000  0.5815910000000 1.0
C      1  0.5347000000000  0.4772470000000  0.5886340000000 1.0
C      1  0.4098600000000  0.4834290000000  0.4786730000000 1.0
C      1  0.5604540000000  0.4815380000000  0.4261750000000 1.0
C      1  0.4215860000000  0.4782590000000  0.5554340000000 1.0
C      1  0.4788450000000  0.4744270000000  0.4068710000000 1.0
C      1  0.5966950000000  0.4756920000000  0.5350350000000 1.0
C      1  0.4978460000000  0.4956110000000  0.4250170000000 1.0
C      1  0.5689950000000  0.4916620000000  0.5440900000000 1.0
C      1  0.4252550000000  0.5009410000000  0.5321260000000 1.0
C      1  0.4040430000000  0.5687720000000  0.5009510000000 1.0
C      1  0.5387950000000  0.5563360000000  0.4130890000000 1.0
C      1  0.5618880000000  0.5519380000000  0.5791800000000 1.0
C      1  0.4046860000000  0.5173030000000  0.5137150000000 1.0
C      1  0.5279010000000  0.5048460000000  0.4139250000000 1.0
C      1  0.5617800000000  0.5029400000000  0.5753440000000 1.0
C      1  0.4536490000000  0.4403990000000  0.4247430000000 1.0
C      1  0.5869130000000  0.4531410000000  0.4934550000000 1.0
C      1  0.4590500000000  0.4526750000000  0.5755800000000 1.0
C      1  0.5175930000000  0.5894090000000  0.4424690000000 1.0
C      1  0.5476780000000  0.5850330000000  0.5454050000000 1.0
C      1  0.4465340000000  0.5932280000000  0.5217970000000 1.0
C      1  0.4557400000000  0.4578940000000  0.5254550000000 1.0
C      1  0.5010600000000  0.4576780000000  0.4479660000000 1.0
C      1  0.5441000000000  0.4628090000000  0.5307110000000 1.0
C      1  0.5028830000000  0.4204890000000  0.5018100000000 1.0
C      1  0.5032360000000  0.4848250000000  0.5019980000000 1.0
END
