TITL C-2622960-5345-287 7.75797699860602e-05 125000 -858.112541851376 0 0 159 (C1) n - 1
REM
REM in /nfs/bkarasulu/CARBON/AIRSS/Generating-Clusters/AIREBO/with-SteepDescent/Higher-Symm/SD-CG/HFTN-CG
REM
REM
REM
REM
REM
REM ./C.cell (b20cbc046b6831c77cfcea5457e17084)
REM
REM compiler GCC version 9.2.1 20190827 (Red Hat 9.2.1-1)
REM options -cpp -mtune=generic -march=x86-64 -g -O0 -fpre-include=/usr/include/finclude/math-vector-fortran.h
REM seed 1713508608 452044991 -297371306 1435508285 210949561 -559220354 892447463 -1204124155 1209669520 864254671 137766861 386092453 1109725130 1319547431 -935122280 -189191101 1442855162 -1334386042 -1563303959 1315891781 -1618185108 -869444450 281711539 -238440389 672383650 546139798 -737315649 178035481 -2147001392 -1276984894 1710896483 -217351237 1743289177
REM
CELL 1.54180   50.00000   50.00000   50.00000   90.00000   90.00000   90.00000
LATT -1
SFAC C  
C      1  0.5505390000000  0.4896070000000  0.5820950000000 1.0
C      1  0.5414700000000  0.5665870000000  0.5775410000000 1.0
C      1  0.5488000000000  0.6048860000000  0.4871490000000 1.0
C      1  0.5440500000000  0.5514040000000  0.4291740000000 1.0
C      1  0.5420490000000  0.4828870000000  0.4090070000000 1.0
C      1  0.5487130000000  0.4227340000000  0.4668450000000 1.0
C      1  0.5486330000000  0.4147780000000  0.5439750000000 1.0
C      1  0.4489170000000  0.4899540000000  0.4666240000000 1.0
C      1  0.4479700000000  0.4630900000000  0.4878100000000 1.0
C      1  0.4514660000000  0.4638390000000  0.5209560000000 1.0
C      1  0.4437280000000  0.4912700000000  0.5350350000000 1.0
C      1  0.4556680000000  0.5209350000000  0.5333540000000 1.0
C      1  0.4505210000000  0.5369820000000  0.4991230000000 1.0
C      1  0.4503640000000  0.5236090000000  0.4713230000000 1.0
C      1  0.5040270000000  0.4193160000000  0.5505640000000 1.0
C      1  0.4996180000000  0.4870300000000  0.5910750000000 1.0
C      1  0.4931110000000  0.5752710000000  0.5757750000000 1.0
C      1  0.5034790000000  0.6011270000000  0.4808360000000 1.0
C      1  0.4934430000000  0.5584380000000  0.4076650000000 1.0
C      1  0.4921790000000  0.4672700000000  0.4162460000000 1.0
C      1  0.5033760000000  0.3948680000000  0.4707780000000 1.0
C      1  0.5032660000000  0.5385480000000  0.5451110000000 1.0
C      1  0.5087650000000  0.5556020000000  0.4901210000000 1.0
C      1  0.4933110000000  0.5508160000000  0.4468580000000 1.0
C      1  0.5047470000000  0.5008490000000  0.4331620000000 1.0
C      1  0.5009630000000  0.4482060000000  0.4677480000000 1.0
C      1  0.5028320000000  0.4418590000000  0.5144370000000 1.0
C      1  0.5116040000000  0.4719990000000  0.5565340000000 1.0
C      1  0.5269550000000  0.4648430000000  0.4812620000000 1.0
C      1  0.5326800000000  0.4582220000000  0.5144440000000 1.0
C      1  0.5197120000000  0.4844000000000  0.5302670000000 1.0
C      1  0.5299960000000  0.5322940000000  0.5302220000000 1.0
C      1  0.5316040000000  0.5367590000000  0.4907580000000 1.0
C      1  0.5341120000000  0.5125370000000  0.4680820000000 1.0
C      1  0.5146930000000  0.4883600000000  0.4625960000000 1.0
C      1  0.4335740000000  0.4217210000000  0.5167100000000 1.0
C      1  0.4491690000000  0.4587030000000  0.5715420000000 1.0
C      1  0.4587310000000  0.5254310000000  0.5746660000000 1.0
C      1  0.4426070000000  0.5718530000000  0.5273550000000 1.0
C      1  0.4427750000000  0.5750860000000  0.4601640000000 1.0
C      1  0.4416620000000  0.5106290000000  0.4120370000000 1.0
C      1  0.4555350000000  0.4347210000000  0.4404680000000 1.0
C      1  0.4259330000000  0.5174620000000  0.4368990000000 1.0
C      1  0.4159390000000  0.4595310000000  0.4466510000000 1.0
C      1  0.4203230000000  0.4354520000000  0.4953620000000 1.0
C      1  0.4098640000000  0.4551420000000  0.5434010000000 1.0
C      1  0.4181130000000  0.5078960000000  0.5651850000000 1.0
C      1  0.4164810000000  0.5468350000000  0.5463030000000 1.0
C      1  0.4108050000000  0.5541390000000  0.4857870000000 1.0
C      1  0.4777040000000  0.4521180000000  0.5545250000000 1.0
C      1  0.4922760000000  0.5302810000000  0.5719690000000 1.0
C      1  0.4702510000000  0.5825300000000  0.5440280000000 1.0
C      1  0.4716100000000  0.5624920000000  0.4692200000000 1.0
C      1  0.4739330000000  0.5092370000000  0.4226740000000 1.0
C      1  0.4793580000000  0.4248670000000  0.4599940000000 1.0
C      1  0.4641130000000  0.4074860000000  0.5110610000000 1.0
C      1  0.5114010000000  0.6098650000000  0.5246100000000 1.0
C      1  0.4954490000000  0.5909960000000  0.4305620000000 1.0
C      1  0.4966990000000  0.5079830000000  0.3820690000000 1.0
C      1  0.5108760000000  0.4133330000000  0.4254980000000 1.0
C      1  0.5125760000000  0.3851510000000  0.5216100000000 1.0
C      1  0.5048290000000  0.4487720000000  0.6004920000000 1.0
C      1  0.5071300000000  0.5482830000000  0.6109090000000 1.0
C      1  0.5584740000000  0.4771240000000  0.5260540000000 1.0
C      1  0.5630310000000  0.5223460000000  0.5495350000000 1.0
C      1  0.5606960000000  0.5281990000000  0.5161210000000 1.0
C      1  0.5612250000000  0.5494310000000  0.4891280000000 1.0
C      1  0.5605400000000  0.5087560000000  0.4511360000000 1.0
C      1  0.5650230000000  0.4866620000000  0.4750040000000 1.0
C      1  0.5709660000000  0.4544440000000  0.5036600000000 1.0
C      1  0.5536160000000  0.4326890000000  0.5225990000000 1.0
C      1  0.5580630000000  0.4947600000000  0.5551490000000 1.0
C      1  0.5568360000000  0.5441280000000  0.5671640000000 1.0
C      1  0.5629370000000  0.5807850000000  0.4939860000000 1.0
C      1  0.5576120000000  0.5423210000000  0.4560400000000 1.0
C      1  0.5545320000000  0.5049320000000  0.4207040000000 1.0
C      1  0.5553430000000  0.4540370000000  0.4739690000000 1.0
C      1  0.4837050000000  0.5785160000000  0.4919560000000 1.0
C      1  0.4683040000000  0.5426810000000  0.4252930000000 1.0
C      1  0.4631250000000  0.4773800000000  0.4176720000000 1.0
C      1  0.4718380000000  0.4023030000000  0.4811990000000 1.0
C      1  0.4783820000000  0.4283320000000  0.5338280000000 1.0
C      1  0.4810790000000  0.4831810000000  0.5667310000000 1.0
C      1  0.4601320000000  0.5725300000000  0.5740520000000 1.0
C      1  0.4849420000000  0.3827920000000  0.5213540000000 1.0
C      1  0.4782430000000  0.4494550000000  0.5879860000000 1.0
C      1  0.4764550000000  0.5386430000000  0.6008840000000 1.0
C      1  0.4827730000000  0.6085200000000  0.5260320000000 1.0
C      1  0.4716140000000  0.5841780000000  0.4435680000000 1.0
C      1  0.4676630000000  0.5121880000000  0.3893810000000 1.0
C      1  0.4825960000000  0.4169160000000  0.4289730000000 1.0
C      1  0.4606290000000  0.5927440000000  0.5069100000000 1.0
C      1  0.4492150000000  0.5479290000000  0.3985180000000 1.0
C      1  0.4483610000000  0.4732590000000  0.3912180000000 1.0
C      1  0.4456370000000  0.4042970000000  0.4648010000000 1.0
C      1  0.4560310000000  0.4131720000000  0.5545030000000 1.0
C      1  0.4413100000000  0.4917930000000  0.6017560000000 1.0
C      1  0.4405950000000  0.5837090000000  0.5936680000000 1.0
C      1  0.6596400000000  0.4952270000000  0.5352880000000 1.0
C      1  0.6558160000000  0.5070540000000  0.5103410000000 1.0
C      1  0.6346050000000  0.4978020000000  0.4947810000000 1.0
C      1  0.6266240000000  0.4714160000000  0.4836270000000 1.0
C      1  0.6000000000000  0.4601700000000  0.5015860000000 1.0
C      1  0.6202970000000  0.4723800000000  0.5260400000000 1.0
C      1  0.6397240000000  0.4774990000000  0.5431900000000 1.0
C      1  0.4909490000000  0.4921320000000  0.5223670000000 1.0
C      1  0.4848900000000  0.5215380000000  0.5259520000000 1.0
C      1  0.4819620000000  0.5394190000000  0.5002100000000 1.0
C      1  0.5055510000000  0.5271810000000  0.4624250000000 1.0
C      1  0.4824710000000  0.4953210000000  0.4679070000000 1.0
C      1  0.4791120000000  0.4669600000000  0.4791320000000 1.0
C      1  0.4805260000000  0.4662200000000  0.5106180000000 1.0
C      1  0.5257960000000  0.4124330000000  0.4521640000000 1.0
C      1  0.5228030000000  0.4012370000000  0.5417300000000 1.0
C      1  0.5267480000000  0.4709020000000  0.5868270000000 1.0
C      1  0.5151830000000  0.5675930000000  0.5916620000000 1.0
C      1  0.5228020000000  0.6098940000000  0.4988900000000 1.0
C      1  0.5204270000000  0.5689510000000  0.4236710000000 1.0
C      1  0.5119030000000  0.4883640000000  0.4030160000000 1.0
C      1  0.5480890000000  0.4554870000000  0.4099390000000 1.0
C      1  0.5517510000000  0.4060540000000  0.4890470000000 1.0
C      1  0.5541080000000  0.4210230000000  0.5719750000000 1.0
C      1  0.5514920000000  0.5099030000000  0.6031530000000 1.0
C      1  0.5430570000000  0.5891250000000  0.5600510000000 1.0
C      1  0.5466100000000  0.6109680000000  0.4589020000000 1.0
C      1  0.5449640000000  0.5294870000000  0.4097240000000 1.0
C      1  0.5005670000000  0.5691620000000  0.5456100000000 1.0
C      1  0.5109810000000  0.5743480000000  0.4631250000000 1.0
C      1  0.5072830000000  0.5313020000000  0.4227710000000 1.0
C      1  0.5060180000000  0.4517920000000  0.4350240000000 1.0
C      1  0.5060560000000  0.4229770000000  0.4897190000000 1.0
C      1  0.5151240000000  0.4408940000000  0.5630990000000 1.0
C      1  0.5056740000000  0.5128910000000  0.5932300000000 1.0
C      1  0.4410380000000  0.4415680000000  0.5432930000000 1.0
C      1  0.4487210000000  0.4934680000000  0.5686090000000 1.0
C      1  0.4499790000000  0.5489760000000  0.5517220000000 1.0
C      1  0.4404890000000  0.5688070000000  0.4935240000000 1.0
C      1  0.4439290000000  0.5435000000000  0.4476210000000 1.0
C      1  0.4474700000000  0.4673120000000  0.4412330000000 1.0
C      1  0.4383720000000  0.4358950000000  0.4698010000000 1.0
C      1  0.5191650000000  0.5263440000000  0.3928310000000 1.0
C      1  0.5297220000000  0.4381950000000  0.4218440000000 1.0
C      1  0.5236180000000  0.3943930000000  0.4960390000000 1.0
C      1  0.5312550000000  0.4316200000000  0.5874390000000 1.0
C      1  0.5270840000000  0.5235620000000  0.6100800000000 1.0
C      1  0.5220140000000  0.5909540000000  0.5420140000000 1.0
C      1  0.5236650000000  0.6004880000000  0.4464170000000 1.0
C      1  0.4224180000000  0.5303840000000  0.5171410000000 1.0
C      1  0.4064450000000  0.5340300000000  0.4715550000000 1.0
C      1  0.4171840000000  0.5022330000000  0.4660310000000 1.0
C      1  0.4047790000000  0.4722440000000  0.4688830000000 1.0
C      1  0.4071330000000  0.4604600000000  0.4948440000000 1.0
C      1  0.4145380000000  0.4803380000000  0.5213930000000 1.0
C      1  0.4079690000000  0.5086440000000  0.5390560000000 1.0
C      1  0.6028260000000  0.4937450000000  0.5061820000000 1.0
C      1  0.5243230000000  0.5088000000000  0.5086880000000 1.0
C      1  0.4116380000000  0.5058740000000  0.4993810000000 1.0
C      1  0.5722730000000  0.4985340000000  0.5041580000000 1.0
C      1  0.4991880000000  0.5133970000000  0.4896640000000 1.0
END
