TITL C-2622957-9142-646 7.88369820867952e-05 125000 -630.643962364102 0 0 109 (C1) n - 1
REM
REM in /nfs/bkarasulu/CARBON/AIRSS/Generating-Clusters/AIREBO/with-SteepDescent/Higher-Symm/SD-CG/HFTN-CG
REM
REM
REM
REM
REM
REM ./C.cell (b20cbc046b6831c77cfcea5457e17084)
REM
REM compiler GCC version 9.2.1 20190827 (Red Hat 9.2.1-1)
REM options -cpp -mtune=generic -march=x86-64 -g -O0 -fpre-include=/usr/include/finclude/math-vector-fortran.h
REM seed -1372282659 1810373446 -1617965959 -1397504275 -1394620766 -511017296 1159705165 1796290282 2025333019 1502899294 1395670362 -1166910972 744979434 -1256708220 -553564500 1485740680 30160830 1887859016 1286508933 1924896138 243732299 -1037091987 414660760 201302082 1996509000 -1639461420 1484992754 1792952392 -816344678 303135534 -1605529648 117730241 1215789835
REM
CELL 1.54180   50.00000   50.00000   50.00000   90.00000   90.00000   90.00000
LATT -1
SFAC C  
C      1  0.4759260000000  0.4596850000000  0.5469510000000 1.0
C      1  0.4829370000000  0.4875130000000  0.5510270000000 1.0
C      1  0.4629950000000  0.5059370000000  0.5486620000000 1.0
C      1  0.4694050000000  0.5339960000000  0.5499090000000 1.0
C      1  0.4993070000000  0.5441580000000  0.5474970000000 1.0
C      1  0.5463350000000  0.5288570000000  0.5344260000000 1.0
C      1  0.5394750000000  0.5051180000000  0.5530260000000 1.0
C      1  0.5330870000000  0.4744950000000  0.5398030000000 1.0
C      1  0.4979750000000  0.4409040000000  0.5334190000000 1.0
C      1  0.4498810000000  0.4983930000000  0.4295260000000 1.0
C      1  0.4653220000000  0.5300080000000  0.4216860000000 1.0
C      1  0.4802230000000  0.5500760000000  0.4339880000000 1.0
C      1  0.5435040000000  0.5476170000000  0.4315100000000 1.0
C      1  0.5457050000000  0.5152070000000  0.4209080000000 1.0
C      1  0.5449250000000  0.4853910000000  0.4284600000000 1.0
C      1  0.5295710000000  0.4559790000000  0.4260580000000 1.0
C      1  0.4960610000000  0.4587930000000  0.4282480000000 1.0
C      1  0.4640970000000  0.4688130000000  0.4224270000000 1.0
C      1  0.5725570000000  0.5340540000000  0.4298450000000 1.0
C      1  0.5762420000000  0.4777020000000  0.4284620000000 1.0
C      1  0.5455840000000  0.4386030000000  0.4424180000000 1.0
C      1  0.4979710000000  0.4261970000000  0.4344190000000 1.0
C      1  0.4461910000000  0.4476850000000  0.4252860000000 1.0
C      1  0.4184580000000  0.4869540000000  0.4356840000000 1.0
C      1  0.4341120000000  0.5285160000000  0.4285930000000 1.0
C      1  0.4662510000000  0.5738570000000  0.4421070000000 1.0
C      1  0.5422000000000  0.5774600000000  0.4381800000000 1.0
C      1  0.4253320000000  0.5267370000000  0.5758370000000 1.0
C      1  0.4673640000000  0.5626890000000  0.5680350000000 1.0
C      1  0.5145250000000  0.5808860000000  0.5775980000000 1.0
C      1  0.5613190000000  0.5544970000000  0.5780930000000 1.0
C      1  0.5647800000000  0.5052570000000  0.5717230000000 1.0
C      1  0.5574840000000  0.4527630000000  0.5743310000000 1.0
C      1  0.5140440000000  0.4192350000000  0.5778520000000 1.0
C      1  0.4687630000000  0.4371920000000  0.5693180000000 1.0
C      1  0.4273930000000  0.4740530000000  0.5762350000000 1.0
C      1  0.5779420000000  0.5353330000000  0.5351830000000 1.0
C      1  0.5644560000000  0.4783510000000  0.5283300000000 1.0
C      1  0.5270130000000  0.4449900000000  0.5403250000000 1.0
C      1  0.4892480000000  0.4103710000000  0.5344870000000 1.0
C      1  0.4459160000000  0.4544530000000  0.5317040000000 1.0
C      1  0.4335060000000  0.5002190000000  0.5351030000000 1.0
C      1  0.4452820000000  0.5524840000000  0.5346010000000 1.0
C      1  0.4952980000000  0.5736300000000  0.5310130000000 1.0
C      1  0.5301410000000  0.5538110000000  0.5410530000000 1.0
C      1  0.5916820000000  0.4761510000000  0.5133790000000 1.0
C      1  0.5428910000000  0.4285870000000  0.5183360000000 1.0
C      1  0.4871240000000  0.3982380000000  0.5106200000000 1.0
C      1  0.4315190000000  0.4343920000000  0.5129940000000 1.0
C      1  0.4087330000000  0.4972170000000  0.5149810000000 1.0
C      1  0.4259040000000  0.5531130000000  0.5077700000000 1.0
C      1  0.4860960000000  0.5953150000000  0.5101110000000 1.0
C      1  0.5354720000000  0.5753250000000  0.5178460000000 1.0
C      1  0.5895690000000  0.5407110000000  0.5116270000000 1.0
C      1  0.5365060000000  0.5647970000000  0.5691060000000 1.0
C      1  0.5743580000000  0.5321080000000  0.5654360000000 1.0
C      1  0.5663730000000  0.4769220000000  0.5616980000000 1.0
C      1  0.5341110000000  0.4370630000000  0.5684570000000 1.0
C      1  0.4882770000000  0.4168110000000  0.5647380000000 1.0
C      1  0.4415100000000  0.4524060000000  0.5652520000000 1.0
C      1  0.4274170000000  0.5003200000000  0.5659120000000 1.0
C      1  0.4377650000000  0.5504810000000  0.5674190000000 1.0
C      1  0.4897530000000  0.5793160000000  0.5631960000000 1.0
C      1  0.5478140000000  0.5393700000000  0.4841390000000 1.0
C      1  0.5740480000000  0.5080010000000  0.4698210000000 1.0
C      1  0.5580190000000  0.4727780000000  0.4794870000000 1.0
C      1  0.5067520000000  0.4390030000000  0.4890410000000 1.0
C      1  0.4670940000000  0.4276700000000  0.4675450000000 1.0
C      1  0.4400740000000  0.4656670000000  0.4896200000000 1.0
C      1  0.4378150000000  0.5089790000000  0.4831500000000 1.0
C      1  0.4555030000000  0.5481760000000  0.4814210000000 1.0
C      1  0.5041220000000  0.5615970000000  0.4822440000000 1.0
C      1  0.5800780000000  0.5368710000000  0.4820670000000 1.0
C      1  0.5890430000000  0.4803890000000  0.4829310000000 1.0
C      1  0.5358180000000  0.4323290000000  0.4923560000000 1.0
C      1  0.4896500000000  0.4133170000000  0.4838140000000 1.0
C      1  0.4373340000000  0.4352050000000  0.4811960000000 1.0
C      1  0.4160700000000  0.4852980000000  0.4859860000000 1.0
C      1  0.4254810000000  0.5380200000000  0.4779070000000 1.0
C      1  0.4846320000000  0.5854020000000  0.4846750000000 1.0
C      1  0.5338890000000  0.5679240000000  0.4869310000000 1.0
C      1  0.4413260000000  0.4334260000000  0.4474950000000 1.0
C      1  0.4052080000000  0.4842560000000  0.4568140000000 1.0
C      1  0.4178160000000  0.5384930000000  0.4476030000000 1.0
C      1  0.4622910000000  0.5757210000000  0.4704140000000 1.0
C      1  0.5432110000000  0.5851310000000  0.4623580000000 1.0
C      1  0.5893110000000  0.5393060000000  0.4503430000000 1.0
C      1  0.5905130000000  0.4862190000000  0.4503270000000 1.0
C      1  0.5500310000000  0.4434570000000  0.4708940000000 1.0
C      1  0.4995920000000  0.4096400000000  0.4528740000000 1.0
C      1  0.5107600000000  0.5253750000000  0.5134440000000 1.0
C      1  0.5387310000000  0.5192460000000  0.5056620000000 1.0
C      1  0.5431220000000  0.4888780000000  0.5040050000000 1.0
C      1  0.5175210000000  0.4749510000000  0.5026270000000 1.0
C      1  0.4911500000000  0.4616360000000  0.5090510000000 1.0
C      1  0.4640730000000  0.4747110000000  0.5119450000000 1.0
C      1  0.4546830000000  0.5071930000000  0.5096620000000 1.0
C      1  0.4632690000000  0.5385570000000  0.5106580000000 1.0
C      1  0.4932660000000  0.5480090000000  0.5087020000000 1.0
C      1  0.5316190000000  0.4780820000000  0.4589110000000 1.0
C      1  0.5082670000000  0.4617240000000  0.4661050000000 1.0
C      1  0.4787440000000  0.4560400000000  0.4573850000000 1.0
C      1  0.4632730000000  0.4762260000000  0.4720690000000 1.0
C      1  0.4593300000000  0.5029540000000  0.4599850000000 1.0
C      1  0.4741300000000  0.5281600000000  0.4666590000000 1.0
C      1  0.5013680000000  0.5416830000000  0.4579440000000 1.0
C      1  0.5302350000000  0.5330190000000  0.4556170000000 1.0
C      1  0.5446560000000  0.5062810000000  0.4624870000000 1.0
C      1  0.5086940000000  0.4949880000000  0.5519080000000 1.0
END
