TITL C-2622959-7779-35 -0.00236786562612304 125000 -708.647865330366 0 0 135 (C1) n - 1
REM
REM in /nfs/bkarasulu/CARBON/AIRSS/Generating-Clusters/AIREBO/with-SteepDescent/Higher-Symm/SD-CG/HFTN-CG
REM
REM
REM
REM
REM
REM ./C.cell (b20cbc046b6831c77cfcea5457e17084)
REM
REM compiler GCC version 9.2.1 20190827 (Red Hat 9.2.1-1)
REM options -cpp -mtune=generic -march=x86-64 -g -O0 -fpre-include=/usr/include/finclude/math-vector-fortran.h
REM seed 932280931 246338522 575703993 970316879 616330674 1391813048 2107791033 -22870560 1387518761 1436489818 1296460692 229465640 -1446946103 -888338883 -411365216 907248557 913400362 -1569399257 -1463045579 137204720 -737784087 1737180873 1477637596 2097794880 -1582124156 1110096774 -687177134 -754746745 1380145366 -1275102140 890993330 1016090464 1290621780
REM
CELL 1.54180   50.00000   50.00000   50.00000   90.00000   90.00000   90.00000
LATT -1
SFAC C  
C      1  0.5663960000000  0.5475270000000  0.5489720000000 1.0
C      1  0.5724720000000  0.4716780000000  0.5595810000000 1.0
C      1  0.5701160000000  0.4354100000000  0.4888280000000 1.0
C      1  0.5662630000000  0.4889540000000  0.4334470000000 1.0
C      1  0.5740050000000  0.5685110000000  0.4641550000000 1.0
C      1  0.4340980000000  0.5495990000000  0.5474770000000 1.0
C      1  0.4269240000000  0.4774100000000  0.5624830000000 1.0
C      1  0.4255640000000  0.4325110000000  0.4838640000000 1.0
C      1  0.4331090000000  0.4863560000000  0.4300410000000 1.0
C      1  0.4296950000000  0.5668220000000  0.4642470000000 1.0
C      1  0.5294070000000  0.5700470000000  0.5150920000000 1.0
C      1  0.5290330000000  0.5045120000000  0.5748970000000 1.0
C      1  0.5305750000000  0.4304520000000  0.5305480000000 1.0
C      1  0.5285630000000  0.4521670000000  0.4472920000000 1.0
C      1  0.5299580000000  0.5367610000000  0.4346120000000 1.0
C      1  0.4742330000000  0.5696280000000  0.5152000000000 1.0
C      1  0.4744680000000  0.5025600000000  0.5720020000000 1.0
C      1  0.4792840000000  0.4290920000000  0.5361080000000 1.0
C      1  0.4764790000000  0.4501770000000  0.4468250000000 1.0
C      1  0.4773130000000  0.5380240000000  0.4356680000000 1.0
C      1  0.5483820000000  0.4320450000000  0.5594790000000 1.0
C      1  0.5356280000000  0.4198340000000  0.4551130000000 1.0
C      1  0.5348840000000  0.5187110000000  0.4061480000000 1.0
C      1  0.5354120000000  0.5917960000000  0.4896340000000 1.0
C      1  0.5330240000000  0.5364560000000  0.5858690000000 1.0
C      1  0.4555640000000  0.4370470000000  0.5560380000000 1.0
C      1  0.4676330000000  0.4187990000000  0.4546990000000 1.0
C      1  0.4669530000000  0.5198200000000  0.4091520000000 1.0
C      1  0.4677780000000  0.5912270000000  0.4897250000000 1.0
C      1  0.4651520000000  0.5337010000000  0.5820220000000 1.0
C      1  0.3971520000000  0.4754960000000  0.4924720000000 1.0
C      1  0.3869310000000  0.4980340000000  0.4768510000000 1.0
C      1  0.3987250000000  0.5224960000000  0.4875710000000 1.0
C      1  0.4064180000000  0.5162610000000  0.5168250000000 1.0
C      1  0.4015040000000  0.4867370000000  0.5206150000000 1.0
C      1  0.5961330000000  0.4767290000000  0.4940280000000 1.0
C      1  0.5995630000000  0.4968940000000  0.4717490000000 1.0
C      1  0.6056510000000  0.5239370000000  0.4845760000000 1.0
C      1  0.6006010000000  0.5212210000000  0.5148240000000 1.0
C      1  0.5925540000000  0.4924860000000  0.5194380000000 1.0
C      1  0.5295560000000  0.5851910000000  0.4584700000000 1.0
C      1  0.5286910000000  0.5634360000000  0.5688360000000 1.0
C      1  0.5318510000000  0.4490090000000  0.5839990000000 1.0
C      1  0.5276300000000  0.4043330000000  0.4821200000000 1.0
C      1  0.5264830000000  0.4877110000000  0.4031220000000 1.0
C      1  0.4734310000000  0.5830880000000  0.4590670000000 1.0
C      1  0.4731380000000  0.5622350000000  0.5678220000000 1.0
C      1  0.4653840000000  0.4486450000000  0.5790790000000 1.0
C      1  0.4689430000000  0.4077860000000  0.4850860000000 1.0
C      1  0.4700330000000  0.4877290000000  0.4071050000000 1.0
C      1  0.5775450000000  0.4353370000000  0.5204370000000 1.0
C      1  0.5702830000000  0.4583850000000  0.4427790000000 1.0
C      1  0.5620810000000  0.5440790000000  0.4430380000000 1.0
C      1  0.5702510000000  0.5679700000000  0.5232710000000 1.0
C      1  0.5717070000000  0.5013550000000  0.5718050000000 1.0
C      1  0.4297480000000  0.4416950000000  0.5164030000000 1.0
C      1  0.4302040000000  0.4572530000000  0.4360710000000 1.0
C      1  0.4283790000000  0.5422690000000  0.4407600000000 1.0
C      1  0.4319950000000  0.5696660000000  0.5224190000000 1.0
C      1  0.4222450000000  0.5050580000000  0.5723120000000 1.0
C      1  0.4890030000000  0.4330740000000  0.4211170000000 1.0
C      1  0.4896030000000  0.5560920000000  0.4117550000000 1.0
C      1  0.4887970000000  0.5994680000000  0.5226090000000 1.0
C      1  0.4877360000000  0.5038540000000  0.6032930000000 1.0
C      1  0.5010270000000  0.4129210000000  0.5522850000000 1.0
C      1  0.5161670000000  0.4333590000000  0.4218040000000 1.0
C      1  0.5150210000000  0.5564340000000  0.4112440000000 1.0
C      1  0.5144000000000  0.5996420000000  0.5225930000000 1.0
C      1  0.5132060000000  0.5062790000000  0.6049560000000 1.0
C      1  0.5214870000000  0.3981910000000  0.5364310000000 1.0
C      1  0.5607440000000  0.4916000000000  0.5274850000000 1.0
C      1  0.5631810000000  0.4723730000000  0.5014250000000 1.0
C      1  0.5655390000000  0.4912350000000  0.4732310000000 1.0
C      1  0.5718940000000  0.5209240000000  0.4873570000000 1.0
C      1  0.5656710000000  0.5218360000000  0.5188200000000 1.0
C      1  0.4351140000000  0.4900060000000  0.5260670000000 1.0
C      1  0.4304380000000  0.4756890000000  0.4955310000000 1.0
C      1  0.4405440000000  0.4969970000000  0.4763670000000 1.0
C      1  0.4320300000000  0.5230690000000  0.4872690000000 1.0
C      1  0.4387530000000  0.5223430000000  0.5190840000000 1.0
C      1  0.5626020000000  0.5290710000000  0.5711230000000 1.0
C      1  0.5729660000000  0.4451290000000  0.5478690000000 1.0
C      1  0.5637600000000  0.4362880000000  0.4605250000000 1.0
C      1  0.5624470000000  0.5161050000000  0.4241230000000 1.0
C      1  0.5643150000000  0.5764660000000  0.4957730000000 1.0
C      1  0.4353940000000  0.5309110000000  0.5697510000000 1.0
C      1  0.4334830000000  0.4498410000000  0.5436790000000 1.0
C      1  0.4389080000000  0.4370020000000  0.4553930000000 1.0
C      1  0.4366960000000  0.5196040000000  0.4237270000000 1.0
C      1  0.4378700000000  0.5784450000000  0.4951700000000 1.0
C      1  0.4469110000000  0.5449450000000  0.4759870000000 1.0
C      1  0.4616900000000  0.5418840000000  0.5303640000000 1.0
C      1  0.4574540000000  0.4811150000000  0.5501340000000 1.0
C      1  0.4516160000000  0.4512520000000  0.4921800000000 1.0
C      1  0.4517810000000  0.4952470000000  0.4511760000000 1.0
C      1  0.5576630000000  0.5429180000000  0.4751990000000 1.0
C      1  0.5409910000000  0.5414720000000  0.5294510000000 1.0
C      1  0.5421840000000  0.4837530000000  0.5513900000000 1.0
C      1  0.5423780000000  0.4455700000000  0.5024640000000 1.0
C      1  0.5408450000000  0.4833940000000  0.4528400000000 1.0
C      1  0.5310430000000  0.5515150000000  0.4866090000000 1.0
C      1  0.5190830000000  0.5252520000000  0.5498440000000 1.0
C      1  0.5192760000000  0.4603900000000  0.5421240000000 1.0
C      1  0.5176210000000  0.4485260000000  0.4792850000000 1.0
C      1  0.5175330000000  0.5071580000000  0.4458250000000 1.0
C      1  0.4746210000000  0.5504000000000  0.4871440000000 1.0
C      1  0.4848420000000  0.5236720000000  0.5474430000000 1.0
C      1  0.4848420000000  0.4616890000000  0.5446940000000 1.0
C      1  0.4824640000000  0.4458490000000  0.4800620000000 1.0
C      1  0.4831440000000  0.5052570000000  0.4426610000000 1.0
C      1  0.5216210000000  0.4774530000000  0.4927510000000 1.0
C      1  0.5162180000000  0.5031190000000  0.4771890000000 1.0
C      1  0.5187810000000  0.5274480000000  0.4957390000000 1.0
C      1  0.5138380000000  0.5131100000000  0.5222880000000 1.0
C      1  0.5105710000000  0.4818250000000  0.5216550000000 1.0
C      1  0.4895600000000  0.4755260000000  0.4883530000000 1.0
C      1  0.4832010000000  0.5020470000000  0.4746890000000 1.0
C      1  0.4878620000000  0.5253140000000  0.4944700000000 1.0
C      1  0.4812300000000  0.5088330000000  0.5198990000000 1.0
C      1  0.4783150000000  0.4784810000000  0.5166050000000 1.0
C      1  0.4874470000000  0.5569410000000  0.4577070000000 1.0
C      1  0.4880580000000  0.5673770000000  0.5461920000000 1.0
C      1  0.4884700000000  0.4719570000000  0.5769050000000 1.0
C      1  0.4856630000000  0.4230880000000  0.5051250000000 1.0
C      1  0.4866420000000  0.4743710000000  0.4288800000000 1.0
C      1  0.5174590000000  0.5581190000000  0.4575520000000 1.0
C      1  0.5154580000000  0.5674230000000  0.5460030000000 1.0
C      1  0.5181180000000  0.4733860000000  0.5831800000000 1.0
C      1  0.5147260000000  0.4152070000000  0.5046040000000 1.0
C      1  0.5155750000000  0.4706140000000  0.4218430000000 1.0
C      1  0.5016100000000  0.5895170000000  0.4862240000000 1.0
C      1  0.5016080000000  0.4198490000000  0.4564890000000 1.0
C      1  0.5155850000000  0.4294290000000  0.5675690000000 1.0
C      1  0.5009310000000  0.5179240000000  0.4086600000000 1.0
C      1  0.4991330000000  0.5359800000000  0.5825260000000 1.0
END
