TITL C-2622954-8726-129 -0.000396517346195067 125000 -569.068269306417 0 0 100 (C1) n - 1
REM
REM in /nfs/bkarasulu/CARBON/AIRSS/Generating-Clusters/AIREBO/with-SteepDescent/Higher-Symm/SD-CG/HFTN-CG
REM
REM
REM
REM
REM
REM ./C.cell (b20cbc046b6831c77cfcea5457e17084)
REM
REM compiler GCC version 9.2.1 20190827 (Red Hat 9.2.1-1)
REM options -cpp -mtune=generic -march=x86-64 -g -O0 -fpre-include=/usr/include/finclude/math-vector-fortran.h
REM seed -197134500 -1299522855 1625890029 -791646173 855851262 -720217006 -1946659665 -509649835 -927570998 1980974762 -832795389 1166327108 562329176 -770018755 1979347093 267664753 124437055 780814699 -1541998371 -947469277 818711672 1841604211 152287418 -1450232166 -1562194453 -1513379685 -780898552 1492853577 1892159080 -1418253137 -1199649235 87174588 -1104813565
REM
CELL 1.54180   50.00000   50.00000   50.00000   90.00000   90.00000   90.00000
LATT -1
SFAC C  
C      1  0.4884180000000  0.5500480000000  0.5060770000000 1.0
C      1  0.4840900000000  0.4808900000000  0.4589060000000 1.0
C      1  0.4829850000000  0.4701050000000  0.5392810000000 1.0
C      1  0.5184770000000  0.4761350000000  0.5900730000000 1.0
C      1  0.5192910000000  0.5918380000000  0.4736440000000 1.0
C      1  0.5190780000000  0.4337750000000  0.4341280000000 1.0
C      1  0.4734510000000  0.5590050000000  0.5548890000000 1.0
C      1  0.4662190000000  0.5171370000000  0.4266610000000 1.0
C      1  0.4735370000000  0.4194820000000  0.5221700000000 1.0
C      1  0.5158000000000  0.4125740000000  0.4569530000000 1.0
C      1  0.5136100000000  0.5064210000000  0.5961540000000 1.0
C      1  0.5119800000000  0.5798470000000  0.4452970000000 1.0
C      1  0.4522600000000  0.4967750000000  0.5236720000000 1.0
C      1  0.4478980000000  0.5273790000000  0.4870940000000 1.0
C      1  0.4506500000000  0.4738030000000  0.4795620000000 1.0
C      1  0.4534400000000  0.5424100000000  0.5375150000000 1.0
C      1  0.4369520000000  0.5141290000000  0.4437870000000 1.0
C      1  0.4526760000000  0.4419430000000  0.5150610000000 1.0
C      1  0.5536060000000  0.4378540000000  0.5384500000000 1.0
C      1  0.5545420000000  0.5670850000000  0.5332650000000 1.0
C      1  0.5499740000000  0.4974890000000  0.4293240000000 1.0
C      1  0.5603280000000  0.5117950000000  0.4732790000000 1.0
C      1  0.5562340000000  0.4730220000000  0.5066730000000 1.0
C      1  0.5542060000000  0.5206320000000  0.5223930000000 1.0
C      1  0.4568760000000  0.5006020000000  0.5722440000000 1.0
C      1  0.4591050000000  0.5724050000000  0.4620280000000 1.0
C      1  0.4578310000000  0.4286920000000  0.4624020000000 1.0
C      1  0.5055880000000  0.4965840000000  0.4438280000000 1.0
C      1  0.5103350000000  0.4586670000000  0.5351960000000 1.0
C      1  0.5105520000000  0.5560770000000  0.5254500000000 1.0
C      1  0.4681270000000  0.5251320000000  0.5143380000000 1.0
C      1  0.4680670000000  0.5029700000000  0.4792720000000 1.0
C      1  0.4663900000000  0.4721330000000  0.5096740000000 1.0
C      1  0.4978120000000  0.4570000000000  0.4747000000000 1.0
C      1  0.4976710000000  0.4967270000000  0.5493580000000 1.0
C      1  0.4994470000000  0.5437180000000  0.4785890000000 1.0
C      1  0.5007680000000  0.5466470000000  0.5656650000000 1.0
C      1  0.4960080000000  0.5316400000000  0.4274640000000 1.0
C      1  0.5015260000000  0.4140370000000  0.5074190000000 1.0
C      1  0.4204100000000  0.4994360000000  0.5190430000000 1.0
C      1  0.4202280000000  0.5102550000000  0.4926200000000 1.0
C      1  0.4309760000000  0.4977840000000  0.4661970000000 1.0
C      1  0.4685050000000  0.4755550000000  0.5795890000000 1.0
C      1  0.4704520000000  0.5883710000000  0.4823300000000 1.0
C      1  0.4693130000000  0.4387410000000  0.4380770000000 1.0
C      1  0.4663850000000  0.4135390000000  0.4893400000000 1.0
C      1  0.4649380000000  0.5322940000000  0.5743290000000 1.0
C      1  0.4622430000000  0.5493740000000  0.4372120000000 1.0
C      1  0.5225490000000  0.5332700000000  0.5432780000000 1.0
C      1  0.5203560000000  0.5245040000000  0.4501390000000 1.0
C      1  0.5220160000000  0.4375200000000  0.5127620000000 1.0
C      1  0.5276940000000  0.4978090000000  0.5655480000000 1.0
C      1  0.5279280000000  0.5594180000000  0.4681140000000 1.0
C      1  0.5278120000000  0.4440150000000  0.4653590000000 1.0
C      1  0.5480230000000  0.5293120000000  0.4309690000000 1.0
C      1  0.5521240000000  0.4236210000000  0.5094220000000 1.0
C      1  0.5519140000000  0.5434810000000  0.5561130000000 1.0
C      1  0.5222310000000  0.5381130000000  0.4127190000000 1.0
C      1  0.5290900000000  0.3987960000000  0.5080220000000 1.0
C      1  0.5284260000000  0.5540460000000  0.5767480000000 1.0
C      1  0.4710570000000  0.5749000000000  0.5086220000000 1.0
C      1  0.4669450000000  0.4686860000000  0.4368640000000 1.0
C      1  0.4666830000000  0.4523890000000  0.5585690000000 1.0
C      1  0.5252670000000  0.4698070000000  0.5084610000000 1.0
C      1  0.5236190000000  0.5207400000000  0.5123580000000 1.0
C      1  0.5298510000000  0.5182900000000  0.4813290000000 1.0
C      1  0.5720710000000  0.4839480000000  0.5511520000000 1.0
C      1  0.5719530000000  0.5501420000000  0.4882500000000 1.0
C      1  0.5685590000000  0.4653580000000  0.4634460000000 1.0
C      1  0.4377690000000  0.4468180000000  0.4730920000000 1.0
C      1  0.4329360000000  0.5002170000000  0.5510200000000 1.0
C      1  0.4392870000000  0.5513270000000  0.4696990000000 1.0
C      1  0.4712010000000  0.4887370000000  0.4144530000000 1.0
C      1  0.4771130000000  0.4243670000000  0.5527550000000 1.0
C      1  0.4782840000000  0.5845250000000  0.5368850000000 1.0
C      1  0.4935690000000  0.5165020000000  0.5739970000000 1.0
C      1  0.4928660000000  0.5550320000000  0.4497090000000 1.0
C      1  0.4952250000000  0.4247330000000  0.4776850000000 1.0
C      1  0.4984990000000  0.5110550000000  0.4804230000000 1.0
C      1  0.4966410000000  0.4816390000000  0.4973770000000 1.0
C      1  0.4962370000000  0.5068870000000  0.5201580000000 1.0
C      1  0.5294430000000  0.5798310000000  0.5271510000000 1.0
C      1  0.5240780000000  0.4864300000000  0.4224300000000 1.0
C      1  0.5288570000000  0.4375450000000  0.5521140000000 1.0
C      1  0.5538370000000  0.5430780000000  0.4615170000000 1.0
C      1  0.5516880000000  0.4471880000000  0.4849160000000 1.0
C      1  0.5531790000000  0.5095890000000  0.5533060000000 1.0
C      1  0.4960730000000  0.4451680000000  0.4229760000000 1.0
C      1  0.4966830000000  0.4597260000000  0.5837770000000 1.0
C      1  0.4986400000000  0.5981620000000  0.4915700000000 1.0
C      1  0.4293330000000  0.5319070000000  0.5457060000000 1.0
C      1  0.4248610000000  0.5399640000000  0.4475540000000 1.0
C      1  0.4303360000000  0.4380190000000  0.4995130000000 1.0
C      1  0.5035030000000  0.5949370000000  0.5202680000000 1.0
C      1  0.4986010000000  0.4722400000000  0.4129020000000 1.0
C      1  0.5021520000000  0.4363480000000  0.5672580000000 1.0
C      1  0.5655340000000  0.5477930000000  0.5146100000000 1.0
C      1  0.5630940000000  0.4896140000000  0.4529170000000 1.0
C      1  0.5656100000000  0.4633930000000  0.5344090000000 1.0
C      1  0.5648780000000  0.5007870000000  0.5016870000000 1.0
END
