TITL C-2622965-4321-147 -0.00107041491075943 125000 -408.704321057633 0 0 80 (C1) n - 1
REM
REM in /nfs/bkarasulu/CARBON/AIRSS/Generating-Clusters/AIREBO/with-SteepDescent/Higher-Symm/SD-CG/HFTN-CG
REM
REM
REM
REM
REM
REM ./C.cell (b20cbc046b6831c77cfcea5457e17084)
REM
REM compiler GCC version 9.2.1 20190827 (Red Hat 9.2.1-1)
REM options -cpp -mtune=generic -march=x86-64 -g -O0 -fpre-include=/usr/include/finclude/math-vector-fortran.h
REM seed -744281915 177696840 692333283 -1457134639 617173173 -178408003 -782499894 -74903562 682944683 1427272204 -896659288 192887050 -2000163351 -1104122760 179497713 800802153 -1504837185 -1486495677 -1390521121 -1941186133 -1345699415 -1831521728 676306340 -788674198 -1866370609 1421113827 1634621877 416308890 415270871 -367406094 1313384850 793216364 -1008036763
REM
CELL 1.54180   50.00000   50.00000   50.00000   90.00000   90.00000   90.00000
LATT -1
SFAC C  
C      1  0.4751830000000  0.4859470000000  0.5071740000000 1.0
C      1  0.4737460000000  0.5169390000000  0.4930970000000 1.0
C      1  0.4958880000000  0.5348940000000  0.5120850000000 1.0
C      1  0.5211430000000  0.5207790000000  0.4941860000000 1.0
C      1  0.5201560000000  0.4940950000000  0.5152740000000 1.0
C      1  0.5034590000000  0.4797850000000  0.4892990000000 1.0
C      1  0.4467290000000  0.4890150000000  0.5255390000000 1.0
C      1  0.4630220000000  0.5454710000000  0.4778640000000 1.0
C      1  0.5208130000000  0.5529450000000  0.5270580000000 1.0
C      1  0.5467980000000  0.5040550000000  0.4781070000000 1.0
C      1  0.5287210000000  0.4656720000000  0.5318690000000 1.0
C      1  0.4879970000000  0.4515790000000  0.4782570000000 1.0
C      1  0.5681390000000  0.4448710000000  0.4960320000000 1.0
C      1  0.4981820000000  0.4157660000000  0.4926870000000 1.0
C      1  0.4252200000000  0.4596440000000  0.4936430000000 1.0
C      1  0.4250210000000  0.5497310000000  0.5085570000000 1.0
C      1  0.5073310000000  0.5884600000000  0.4936390000000 1.0
C      1  0.5789070000000  0.5369780000000  0.5036040000000 1.0
C      1  0.5322510000000  0.5416410000000  0.4472860000000 1.0
C      1  0.5623820000000  0.4853810000000  0.5440120000000 1.0
C      1  0.5180200000000  0.4347820000000  0.4358940000000 1.0
C      1  0.4630540000000  0.4442710000000  0.5515680000000 1.0
C      1  0.4406630000000  0.5080840000000  0.4495960000000 1.0
C      1  0.4750260000000  0.5612130000000  0.5510710000000 1.0
C      1  0.4710890000000  0.4343950000000  0.4986390000000 1.0
C      1  0.4292550000000  0.4915710000000  0.4964840000000 1.0
C      1  0.4526350000000  0.5615910000000  0.5046560000000 1.0
C      1  0.5284470000000  0.5678580000000  0.4974670000000 1.0
C      1  0.5703360000000  0.5094210000000  0.5020480000000 1.0
C      1  0.5458780000000  0.4328990000000  0.4847350000000 1.0
C      1  0.4137970000000  0.4908960000000  0.5338170000000 1.0
C      1  0.4552670000000  0.5742250000000  0.4614430000000 1.0
C      1  0.5397840000000  0.5803690000000  0.5337270000000 1.0
C      1  0.5765410000000  0.4913050000000  0.4671010000000 1.0
C      1  0.5251230000000  0.4331790000000  0.5261690000000 1.0
C      1  0.4687880000000  0.4215530000000  0.4399930000000 1.0
C      1  0.5470650000000  0.5140890000000  0.4469720000000 1.0
C      1  0.5433240000000  0.4710300000000  0.5613820000000 1.0
C      1  0.4864360000000  0.4437050000000  0.4448260000000 1.0
C      1  0.4554350000000  0.4741410000000  0.5506740000000 1.0
C      1  0.4513620000000  0.5357880000000  0.4473710000000 1.0
C      1  0.5066030000000  0.5598610000000  0.5571690000000 1.0
C      1  0.5355030000000  0.4722240000000  0.4807830000000 1.0
C      1  0.5006300000000  0.4497500000000  0.5398600000000 1.0
C      1  0.4677910000000  0.4723750000000  0.4655320000000 1.0
C      1  0.4510340000000  0.5211420000000  0.5358040000000 1.0
C      1  0.4934190000000  0.5585870000000  0.4701100000000 1.0
C      1  0.5478510000000  0.5338520000000  0.5348540000000 1.0
C      1  0.4768240000000  0.5808630000000  0.4897270000000 1.0
C      1  0.5574100000000  0.5575080000000  0.5119740000000 1.0
C      1  0.5684000000000  0.4759670000000  0.4962400000000 1.0
C      1  0.5245600000000  0.4236130000000  0.5003730000000 1.0
C      1  0.4402300000000  0.4396110000000  0.4936550000000 1.0
C      1  0.4244880000000  0.5201620000000  0.5145770000000 1.0
C      1  0.5360710000000  0.5180310000000  0.5829870000000 1.0
C      1  0.5391040000000  0.4611580000000  0.4293370000000 1.0
C      1  0.4804110000000  0.4570950000000  0.5755370000000 1.0
C      1  0.4543250000000  0.4941220000000  0.4260310000000 1.0
C      1  0.4762110000000  0.5401390000000  0.5740430000000 1.0
C      1  0.5082670000000  0.5383730000000  0.4268490000000 1.0
C      1  0.4755440000000  0.4550980000000  0.5218240000000 1.0
C      1  0.4518140000000  0.4966510000000  0.4765800000000 1.0
C      1  0.4684080000000  0.5453240000000  0.5255000000000 1.0
C      1  0.5215820000000  0.5474030000000  0.4750720000000 1.0
C      1  0.5507150000000  0.5045480000000  0.5259220000000 1.0
C      1  0.5376520000000  0.4485040000000  0.4600260000000 1.0
C      1  0.5103810000000  0.4645540000000  0.5673020000000 1.0
C      1  0.4688190000000  0.4714150000000  0.4359880000000 1.0
C      1  0.4620200000000  0.5158500000000  0.5644200000000 1.0
C      1  0.4827990000000  0.5454290000000  0.4431570000000 1.0
C      1  0.5340530000000  0.5400780000000  0.5624990000000 1.0
C      1  0.5443620000000  0.4903590000000  0.4228440000000 1.0
C      1  0.5084300000000  0.4693330000000  0.4407770000000 1.0
C      1  0.4793950000000  0.4897560000000  0.5650840000000 1.0
C      1  0.4790850000000  0.5120990000000  0.4409340000000 1.0
C      1  0.5035660000000  0.5263820000000  0.5613960000000 1.0
C      1  0.5176870000000  0.5078090000000  0.4323580000000 1.0
C      1  0.5237910000000  0.4943000000000  0.5738140000000 1.0
C      1  0.5007240000000  0.4938430000000  0.4583730000000 1.0
C      1  0.5050040000000  0.4985870000000  0.5457880000000 1.0
END
