TITL C-2622964-2985-170 0.00133790114529974 125000 -1087.53627526838 0 0 196 (C1) n - 1
REM
REM in /nfs/bkarasulu/CARBON/AIRSS/Generating-Clusters/AIREBO/with-SteepDescent/Higher-Symm/SD-CG/HFTN-CG
REM
REM
REM
REM
REM
REM ./C.cell (b20cbc046b6831c77cfcea5457e17084)
REM
REM compiler GCC version 9.2.1 20190827 (Red Hat 9.2.1-1)
REM options -cpp -mtune=generic -march=x86-64 -g -O0 -fpre-include=/usr/include/finclude/math-vector-fortran.h
REM seed 1410017036 1805943779 -1072795802 -1063684749 -1128755094 1538714124 1721567082 -101243392 -2100208645 -815204061 -655617413 1470340338 -580347223 1260309244 -1576188813 -1185734652 -309945201 -1414884167 -667845448 72611422 539940241 714568564 1882508263 1344410900 1055884832 -1183260211 1280706414 -1849856885 -324338695 -1635886429 563061936 650564766 -1813521009
REM
CELL 1.54180   50.00000   50.00000   50.00000   90.00000   90.00000   90.00000
LATT -1
SFAC C  
C      1  0.4294980000000  0.4375740000000  0.4527320000000 1.0
C      1  0.5533040000000  0.4349420000000  0.4352050000000 1.0
C      1  0.5743990000000  0.4362630000000  0.5566140000000 1.0
C      1  0.4479470000000  0.4373690000000  0.5575530000000 1.0
C      1  0.4331950000000  0.5578100000000  0.4473520000000 1.0
C      1  0.5492780000000  0.5640450000000  0.4352020000000 1.0
C      1  0.5629740000000  0.5606980000000  0.5544260000000 1.0
C      1  0.4500800000000  0.5633170000000  0.5600540000000 1.0
C      1  0.5200130000000  0.5150260000000  0.4369860000000 1.0
C      1  0.5598370000000  0.5158250000000  0.5180000000000 1.0
C      1  0.4861480000000  0.5165220000000  0.5517790000000 1.0
C      1  0.4361590000000  0.5151510000000  0.4839180000000 1.0
C      1  0.5197430000000  0.4810060000000  0.4357710000000 1.0
C      1  0.5642600000000  0.4826960000000  0.5218140000000 1.0
C      1  0.4826670000000  0.4842710000000  0.5599360000000 1.0
C      1  0.4327600000000  0.4841100000000  0.4798210000000 1.0
C      1  0.5794970000000  0.5362050000000  0.5374520000000 1.0
C      1  0.4681320000000  0.5371110000000  0.5720570000000 1.0
C      1  0.4162100000000  0.5355390000000  0.4652970000000 1.0
C      1  0.5355790000000  0.5381510000000  0.4174980000000 1.0
C      1  0.5854790000000  0.4633750000000  0.5401460000000 1.0
C      1  0.4647170000000  0.4600190000000  0.5756200000000 1.0
C      1  0.4141200000000  0.4643050000000  0.4610880000000 1.0
C      1  0.5387850000000  0.4600370000000  0.4174350000000 1.0
C      1  0.3844600000000  0.5264480000000  0.4672680000000 1.0
C      1  0.5328910000000  0.5265070000000  0.3859310000000 1.0
C      1  0.6122190000000  0.5277450000000  0.5338590000000 1.0
C      1  0.4663650000000  0.5281800000000  0.6048170000000 1.0
C      1  0.3836860000000  0.4693790000000  0.4665000000000 1.0
C      1  0.5373900000000  0.4709190000000  0.3854890000000 1.0
C      1  0.6168740000000  0.4746810000000  0.5385690000000 1.0
C      1  0.4629730000000  0.4700810000000  0.6077140000000 1.0
C      1  0.4678420000000  0.5549310000000  0.4089030000000 1.0
C      1  0.5905440000000  0.5559420000000  0.4677060000000 1.0
C      1  0.5312560000000  0.5523700000000  0.5912840000000 1.0
C      1  0.4060460000000  0.5563810000000  0.5326330000000 1.0
C      1  0.4681780000000  0.4464810000000  0.4118250000000 1.0
C      1  0.5913480000000  0.4473820000000  0.4693610000000 1.0
C      1  0.5327330000000  0.4434550000000  0.5880480000000 1.0
C      1  0.4050540000000  0.4463460000000  0.5312340000000 1.0
C      1  0.4719970000000  0.4318090000000  0.5008410000000 1.0
C      1  0.4959910000000  0.4309270000000  0.4796780000000 1.0
C      1  0.5221010000000  0.4297110000000  0.4995450000000 1.0
C      1  0.4981310000000  0.4231990000000  0.5186870000000 1.0
C      1  0.4749260000000  0.5714680000000  0.4935750000000 1.0
C      1  0.5009690000000  0.5756710000000  0.4807870000000 1.0
C      1  0.5224910000000  0.5764490000000  0.5014120000000 1.0
C      1  0.5113280000000  0.5762540000000  0.5303960000000 1.0
C      1  0.5266650000000  0.5187210000000  0.5101020000000 1.0
C      1  0.4936050000000  0.5140310000000  0.5184520000000 1.0
C      1  0.4630000000000  0.5190620000000  0.5044470000000 1.0
C      1  0.4998960000000  0.5160530000000  0.4643760000000 1.0
C      1  0.5367730000000  0.4872040000000  0.5023110000000 1.0
C      1  0.4966330000000  0.4841210000000  0.5302910000000 1.0
C      1  0.4609650000000  0.4850500000000  0.4987910000000 1.0
C      1  0.4996180000000  0.4848170000000  0.4629140000000 1.0
C      1  0.4208990000000  0.5258940000000  0.5541480000000 1.0
C      1  0.4427270000000  0.5271290000000  0.4226650000000 1.0
C      1  0.5766590000000  0.5267010000000  0.4442270000000 1.0
C      1  0.5595420000000  0.5250300000000  0.5843030000000 1.0
C      1  0.4190560000000  0.4737820000000  0.5566810000000 1.0
C      1  0.4427220000000  0.4750450000000  0.4233930000000 1.0
C      1  0.5773690000000  0.4756360000000  0.4447470000000 1.0
C      1  0.5589560000000  0.4735060000000  0.5819080000000 1.0
C      1  0.5197460000000  0.5997190000000  0.5493050000000 1.0
C      1  0.4618470000000  0.5951470000000  0.5101200000000 1.0
C      1  0.5043690000000  0.5982600000000  0.4568750000000 1.0
C      1  0.5489960000000  0.5929990000000  0.4887160000000 1.0
C      1  0.5083680000000  0.4069670000000  0.5453130000000 1.0
C      1  0.4622020000000  0.4025490000000  0.5114670000000 1.0
C      1  0.4865740000000  0.4075010000000  0.4595260000000 1.0
C      1  0.5427290000000  0.4077760000000  0.4885570000000 1.0
C      1  0.4437160000000  0.4861530000000  0.5699150000000 1.0
C      1  0.4223340000000  0.4878160000000  0.4414670000000 1.0
C      1  0.5596760000000  0.4864050000000  0.4224360000000 1.0
C      1  0.5790270000000  0.4866190000000  0.5628210000000 1.0
C      1  0.4450070000000  0.5124220000000  0.5685800000000 1.0
C      1  0.4224020000000  0.5144140000000  0.4409940000000 1.0
C      1  0.5591450000000  0.5141520000000  0.4225080000000 1.0
C      1  0.5772880000000  0.5133410000000  0.5622400000000 1.0
C      1  0.4367830000000  0.4818160000000  0.5304470000000 1.0
C      1  0.4670540000000  0.4861620000000  0.4398600000000 1.0
C      1  0.5598440000000  0.4866470000000  0.4696110000000 1.0
C      1  0.5378950000000  0.4860140000000  0.5600380000000 1.0
C      1  0.4389570000000  0.5122410000000  0.5290840000000 1.0
C      1  0.4677270000000  0.5173310000000  0.4406700000000 1.0
C      1  0.5590750000000  0.5178310000000  0.4693130000000 1.0
C      1  0.5374330000000  0.5163630000000  0.5624090000000 1.0
C      1  0.5930180000000  0.4375450000000  0.5193520000000 1.0
C      1  0.4853600000000  0.4344850000000  0.5844900000000 1.0
C      1  0.4137980000000  0.4149860000000  0.4930770000000 1.0
C      1  0.5203120000000  0.4322850000000  0.4106780000000 1.0
C      1  0.5914940000000  0.5635740000000  0.5212010000000 1.0
C      1  0.4828970000000  0.5659220000000  0.5825290000000 1.0
C      1  0.4096810000000  0.5648760000000  0.4812260000000 1.0
C      1  0.5152550000000  0.5638190000000  0.4083010000000 1.0
C      1  0.3895690000000  0.4841230000000  0.5067380000000 1.0
C      1  0.4928480000000  0.4839180000000  0.3923110000000 1.0
C      1  0.6066200000000  0.4862810000000  0.4939220000000 1.0
C      1  0.5033910000000  0.4815770000000  0.6011120000000 1.0
C      1  0.3880850000000  0.5169170000000  0.5059000000000 1.0
C      1  0.4949000000000  0.5161800000000  0.3929440000000 1.0
C      1  0.6056350000000  0.5186040000000  0.4954920000000 1.0
C      1  0.5034930000000  0.5143350000000  0.6008470000000 1.0
C      1  0.5413300000000  0.4495650000000  0.5141850000000 1.0
C      1  0.4838090000000  0.4426560000000  0.5410240000000 1.0
C      1  0.4504760000000  0.4488100000000  0.4859130000000 1.0
C      1  0.5147190000000  0.4481620000000  0.4596270000000 1.0
C      1  0.5459710000000  0.5608260000000  0.5183050000000 1.0
C      1  0.4861720000000  0.5613100000000  0.5429670000000 1.0
C      1  0.4514570000000  0.5518520000000  0.4837500000000 1.0
C      1  0.5129170000000  0.5534140000000  0.4597830000000 1.0
C      1  0.3916740000000  0.5143650000000  0.5550940000000 1.0
C      1  0.4453330000000  0.5135990000000  0.3937990000000 1.0
C      1  0.6059340000000  0.5151290000000  0.4461040000000 1.0
C      1  0.5518910000000  0.5119910000000  0.6117970000000 1.0
C      1  0.3907230000000  0.4866860000000  0.5559070000000 1.0
C      1  0.4440640000000  0.4859700000000  0.3942250000000 1.0
C      1  0.6063990000000  0.4876350000000  0.4456080000000 1.0
C      1  0.5517870000000  0.4840880000000  0.6105470000000 1.0
C      1  0.4186270000000  0.5245120000000  0.5075930000000 1.0
C      1  0.4938500000000  0.5253820000000  0.4235660000000 1.0
C      1  0.5747960000000  0.5275040000000  0.4944040000000 1.0
C      1  0.5093570000000  0.5253020000000  0.5715950000000 1.0
C      1  0.4196940000000  0.4734940000000  0.5059260000000 1.0
C      1  0.4908110000000  0.4777070000000  0.4236890000000 1.0
C      1  0.5764250000000  0.4777380000000  0.4934530000000 1.0
C      1  0.5105630000000  0.4743530000000  0.5700300000000 1.0
C      1  0.5001530000000  0.4125880000000  0.4323480000000 1.0
C      1  0.5693780000000  0.4140300000000  0.5079740000000 1.0
C      1  0.4906900000000  0.4082970000000  0.5694010000000 1.0
C      1  0.4374140000000  0.3940040000000  0.4968730000000 1.0
C      1  0.5007910000000  0.5852400000000  0.4256890000000 1.0
C      1  0.5769850000000  0.5925070000000  0.5037630000000 1.0
C      1  0.4994690000000  0.5947330000000  0.5728490000000 1.0
C      1  0.4342010000000  0.5859170000000  0.4955370000000 1.0
C      1  0.4951020000000  0.3834890000000  0.4770200000000 1.0
C      1  0.5224570000000  0.3850320000000  0.4944750000000 1.0
C      1  0.5090630000000  0.3846960000000  0.5231790000000 1.0
C      1  0.4845310000000  0.3832960000000  0.5057400000000 1.0
C      1  0.5030260000000  0.6155330000000  0.4832470000000 1.0
C      1  0.5292430000000  0.6156790000000  0.4982630000000 1.0
C      1  0.5096870000000  0.6154270000000  0.5224790000000 1.0
C      1  0.4822960000000  0.6172680000000  0.5062290000000 1.0
C      1  0.4394550000000  0.5850210000000  0.4649170000000 1.0
C      1  0.5311420000000  0.5928060000000  0.4359550000000 1.0
C      1  0.5717260000000  0.6045430000000  0.5305500000000 1.0
C      1  0.4658890000000  0.5919320000000  0.5704750000000 1.0
C      1  0.4297970000000  0.4061620000000  0.4658010000000 1.0
C      1  0.5335480000000  0.4077080000000  0.4303040000000 1.0
C      1  0.5604030000000  0.4195370000000  0.5386110000000 1.0
C      1  0.4665310000000  0.3921560000000  0.5652220000000 1.0
C      1  0.4418790000000  0.4434130000000  0.4253970000000 1.0
C      1  0.5790240000000  0.4443460000000  0.4432350000000 1.0
C      1  0.5609430000000  0.4428050000000  0.5795380000000 1.0
C      1  0.4209140000000  0.4427730000000  0.5552970000000 1.0
C      1  0.4389080000000  0.5600590000000  0.4166560000000 1.0
C      1  0.5775860000000  0.5580290000000  0.4411790000000 1.0
C      1  0.5586500000000  0.5557850000000  0.5816410000000 1.0
C      1  0.4218320000000  0.5568570000000  0.5577730000000 1.0
C      1  0.4627610000000  0.5854890000000  0.5381020000000 1.0
C      1  0.4649830000000  0.5645810000000  0.4554510000000 1.0
C      1  0.5373200000000  0.5766670000000  0.4643090000000 1.0
C      1  0.5492900000000  0.5855950000000  0.5413980000000 1.0
C      1  0.4636750000000  0.4151910000000  0.5408160000000 1.0
C      1  0.4583600000000  0.4237820000000  0.4642700000000 1.0
C      1  0.5359800000000  0.4224450000000  0.4609340000000 1.0
C      1  0.5313350000000  0.4295850000000  0.5398760000000 1.0
C      1  0.5099410000000  0.4428770000000  0.5628080000000 1.0
C      1  0.4215390000000  0.4418890000000  0.5028000000000 1.0
C      1  0.4967010000000  0.4463540000000  0.4303550000000 1.0
C      1  0.5699550000000  0.4457610000000  0.4957590000000 1.0
C      1  0.5089330000000  0.5562900000000  0.5678400000000 1.0
C      1  0.4278010000000  0.5549250000000  0.5079970000000 1.0
C      1  0.4879120000000  0.5558990000000  0.4363500000000 1.0
C      1  0.5708690000000  0.5601900000000  0.4951300000000 1.0
C      1  0.3884130000000  0.5335410000000  0.5321680000000 1.0
C      1  0.4689910000000  0.5317570000000  0.3928840000000 1.0
C      1  0.6073620000000  0.5336270000000  0.4691730000000 1.0
C      1  0.5280140000000  0.5301630000000  0.6082610000000 1.0
C      1  0.3878960000000  0.4685100000000  0.5322420000000 1.0
C      1  0.4674300000000  0.4675830000000  0.3928810000000 1.0
C      1  0.6084770000000  0.4697670000000  0.4691760000000 1.0
C      1  0.5284970000000  0.4651840000000  0.6063330000000 1.0
C      1  0.4673010000000  0.4679740000000  0.5269170000000 1.0
C      1  0.4694420000000  0.4721630000000  0.4699560000000 1.0
C      1  0.5292160000000  0.4746370000000  0.4739580000000 1.0
C      1  0.5263590000000  0.4746220000000  0.5316500000000 1.0
C      1  0.4745230000000  0.5489280000000  0.5159240000000 1.0
C      1  0.4723320000000  0.5273340000000  0.4727900000000 1.0
C      1  0.5277990000000  0.5284270000000  0.4774390000000 1.0
C      1  0.5335550000000  0.5374450000000  0.5376400000000 1.0
C      1  0.5209200000000  0.4972390000000  0.3817920000000 1.0
C      1  0.4761540000000  0.4984880000000  0.6118470000000 1.0
C      1  0.3773680000000  0.4980200000000  0.4795650000000 1.0
C      1  0.6188950000000  0.4998840000000  0.5207380000000 1.0
END
