TITL C-2622967-6265-501 0.000364116387183316 125000 -458.378835808171 0 0 86 (C1) n - 1
REM
REM in /nfs/bkarasulu/CARBON/AIRSS/Generating-Clusters/AIREBO/with-SteepDescent/Higher-Symm/SD-CG/HFTN-CG
REM
REM
REM
REM
REM
REM ./C.cell (b20cbc046b6831c77cfcea5457e17084)
REM
REM compiler GCC version 9.2.1 20190827 (Red Hat 9.2.1-1)
REM options -cpp -mtune=generic -march=x86-64 -g -O0 -fpre-include=/usr/include/finclude/math-vector-fortran.h
REM seed 699874306 -2041418453 -1606644959 -1033206251 1432265263 -1400935077 -2093292435 -1748415986 -2011806471 1774386503 -427208460 1591650355 -1982855984 2039280501 -1346421015 1471144588 -1280497483 1689773393 -455548562 301350040 -1225663789 -1198062525 -156069166 1537176846 1614451549 921306866 2040049514 -1960065318 172403555 400316532 -871571716 -1331469894 -317548964
REM
CELL 1.54180   50.00000   50.00000   50.00000   90.00000   90.00000   90.00000
LATT -1
SFAC C  
C      1  0.4838300000000  0.4295010000000  0.5471630000000 1.0
C      1  0.4368110000000  0.4566970000000  0.5359170000000 1.0
C      1  0.4342400000000  0.5259720000000  0.5611550000000 1.0
C      1  0.4680890000000  0.5745020000000  0.5482690000000 1.0
C      1  0.5358710000000  0.5604170000000  0.5439170000000 1.0
C      1  0.5684830000000  0.5085830000000  0.5631080000000 1.0
C      1  0.5606270000000  0.4470420000000  0.5344580000000 1.0
C      1  0.4889030000000  0.4717060000000  0.5305640000000 1.0
C      1  0.4689650000000  0.4897160000000  0.5350440000000 1.0
C      1  0.4701310000000  0.5186830000000  0.5418670000000 1.0
C      1  0.4973230000000  0.5478280000000  0.5409490000000 1.0
C      1  0.5253700000000  0.5182680000000  0.5575300000000 1.0
C      1  0.5353560000000  0.4919030000000  0.5481570000000 1.0
C      1  0.5160940000000  0.4708720000000  0.5369260000000 1.0
C      1  0.5094520000000  0.5716720000000  0.4835520000000 1.0
C      1  0.5658100000000  0.5455100000000  0.4983990000000 1.0
C      1  0.5835140000000  0.4888170000000  0.4836010000000 1.0
C      1  0.5438520000000  0.4296490000000  0.4915410000000 1.0
C      1  0.4696600000000  0.4264580000000  0.4872360000000 1.0
C      1  0.4193400000000  0.4865510000000  0.4939310000000 1.0
C      1  0.4368740000000  0.5468040000000  0.4899870000000 1.0
C      1  0.4336270000000  0.4810640000000  0.4635680000000 1.0
C      1  0.4485970000000  0.5406170000000  0.4586690000000 1.0
C      1  0.4969360000000  0.5625630000000  0.4597340000000 1.0
C      1  0.5472120000000  0.5397670000000  0.4438400000000 1.0
C      1  0.5672140000000  0.4921310000000  0.4536480000000 1.0
C      1  0.5349140000000  0.4411930000000  0.4612290000000 1.0
C      1  0.4784110000000  0.4346910000000  0.4565640000000 1.0
C      1  0.4666870000000  0.5636130000000  0.5211330000000 1.0
C      1  0.5213520000000  0.5800780000000  0.5320150000000 1.0
C      1  0.5628860000000  0.5187680000000  0.5379200000000 1.0
C      1  0.5650600000000  0.4674760000000  0.5129630000000 1.0
C      1  0.5057120000000  0.4250080000000  0.5232880000000 1.0
C      1  0.4504560000000  0.4395180000000  0.5194380000000 1.0
C      1  0.4298130000000  0.5158940000000  0.5349790000000 1.0
C      1  0.4707890000000  0.5545820000000  0.4886110000000 1.0
C      1  0.5373070000000  0.5574070000000  0.4900760000000 1.0
C      1  0.5702020000000  0.5191850000000  0.4827450000000 1.0
C      1  0.5610310000000  0.4639730000000  0.4811130000000 1.0
C      1  0.5102620000000  0.4278340000000  0.4895610000000 1.0
C      1  0.4557740000000  0.4542370000000  0.4826530000000 1.0
C      1  0.4363420000000  0.5140390000000  0.4856260000000 1.0
C      1  0.5009290000000  0.4598990000000  0.4856730000000 1.0
C      1  0.4590300000000  0.4826250000000  0.4951790000000 1.0
C      1  0.4691840000000  0.5144500000000  0.4944300000000 1.0
C      1  0.4949150000000  0.5305430000000  0.4866410000000 1.0
C      1  0.5243380000000  0.5296700000000  0.4990950000000 1.0
C      1  0.5411120000000  0.5030370000000  0.4897910000000 1.0
C      1  0.5302380000000  0.4710520000000  0.4937360000000 1.0
C      1  0.5349110000000  0.4957660000000  0.4571490000000 1.0
C      1  0.5217310000000  0.4691950000000  0.4502070000000 1.0
C      1  0.4881280000000  0.4672390000000  0.4550330000000 1.0
C      1  0.4663650000000  0.4902230000000  0.4628550000000 1.0
C      1  0.4704970000000  0.5176250000000  0.4479960000000 1.0
C      1  0.4989260000000  0.5309260000000  0.4545890000000 1.0
C      1  0.5237640000000  0.5206140000000  0.4407280000000 1.0
C      1  0.4641340000000  0.4861160000000  0.4110060000000 1.0
C      1  0.4697330000000  0.5130170000000  0.4177710000000 1.0
C      1  0.4916430000000  0.5247710000000  0.4041380000000 1.0
C      1  0.5170660000000  0.5147440000000  0.4117230000000 1.0
C      1  0.5224290000000  0.4880630000000  0.4042560000000 1.0
C      1  0.5106960000000  0.4688690000000  0.4211820000000 1.0
C      1  0.4815040000000  0.4668380000000  0.4215190000000 1.0
C      1  0.4874190000000  0.5589420000000  0.5715220000000 1.0
C      1  0.5206440000000  0.5498020000000  0.5693570000000 1.0
C      1  0.5579490000000  0.4804870000000  0.5682560000000 1.0
C      1  0.5657400000000  0.4544520000000  0.5610660000000 1.0
C      1  0.4652410000000  0.4339530000000  0.5666510000000 1.0
C      1  0.4423040000000  0.4498400000000  0.5629040000000 1.0
C      1  0.4597680000000  0.5400680000000  0.5655210000000 1.0
C      1  0.4384080000000  0.4854960000000  0.5220760000000 1.0
C      1  0.4530460000000  0.5327680000000  0.5167660000000 1.0
C      1  0.4989350000000  0.5678200000000  0.5134390000000 1.0
C      1  0.5483700000000  0.5413770000000  0.5249620000000 1.0
C      1  0.5535380000000  0.4944840000000  0.5202610000000 1.0
C      1  0.5310290000000  0.4470430000000  0.5178100000000 1.0
C      1  0.4826200000000  0.4468350000000  0.5111790000000 1.0
C      1  0.5706040000000  0.5252880000000  0.4508390000000 1.0
C      1  0.5603760000000  0.4592670000000  0.4482240000000 1.0
C      1  0.5079530000000  0.4210930000000  0.4562110000000 1.0
C      1  0.4505190000000  0.4540970000000  0.4515450000000 1.0
C      1  0.4311080000000  0.5124740000000  0.4519340000000 1.0
C      1  0.4667990000000  0.5683460000000  0.4577770000000 1.0
C      1  0.5418450000000  0.5622400000000  0.4583270000000 1.0
C      1  0.4944160000000  0.5209690000000  0.5616210000000 1.0
C      1  0.4868030000000  0.5157390000000  0.5879680000000 1.0
END
