TITL C-2622968-4806-308 0.00019600002106891 125000 -1071.85950778695 0 0 199 (C1) n - 1
REM
REM in /nfs/bkarasulu/CARBON/AIRSS/Generating-Clusters/AIREBO/with-SteepDescent/Higher-Symm/SD-CG/HFTN-CG
REM
REM
REM
REM
REM
REM ./C.cell (b20cbc046b6831c77cfcea5457e17084)
REM
REM compiler GCC version 9.2.1 20190827 (Red Hat 9.2.1-1)
REM options -cpp -mtune=generic -march=x86-64 -g -O0 -fpre-include=/usr/include/finclude/math-vector-fortran.h
REM seed 717630436 -1321242896 -1109643572 -575971724 -1136024402 -295139569 -1847960815 -832225103 1398588894 1665136356 -1819607033 906905553 -1398487833 1562451142 -1580248911 -364405106 -24481913 -1878589327 -1344114328 781240984 -1478009062 -2026528570 2029555066 -2037812366 169999762 -276244879 -1696892601 -1782257479 -345945499 1859861995 17064287 396558101 -971860562
REM
CELL 1.54180   50.00000   50.00000   50.00000   90.00000   90.00000   90.00000
LATT -1
SFAC C  
C      1  0.4789740000000  0.5577520000000  0.4310700000000 1.0
C      1  0.4847380000000  0.5174320000000  0.6018390000000 1.0
C      1  0.4708010000000  0.4211340000000  0.4754380000000 1.0
C      1  0.4988850000000  0.5297980000000  0.6228380000000 1.0
C      1  0.4894680000000  0.4056970000000  0.4554890000000 1.0
C      1  0.4939530000000  0.5847080000000  0.4307420000000 1.0
C      1  0.6008790000000  0.4599620000000  0.4612600000000 1.0
C      1  0.5961490000000  0.5578070000000  0.4868820000000 1.0
C      1  0.5987710000000  0.4920060000000  0.5559830000000 1.0
C      1  0.4616180000000  0.5125400000000  0.3895200000000 1.0
C      1  0.4561640000000  0.5826540000000  0.5723120000000 1.0
C      1  0.4560590000000  0.4087230000000  0.5352710000000 1.0
C      1  0.4235490000000  0.4796400000000  0.5926530000000 1.0
C      1  0.4274600000000  0.4409920000000  0.4265410000000 1.0
C      1  0.4482790000000  0.5903760000000  0.4809070000000 1.0
C      1  0.4657260000000  0.4485320000000  0.3964540000000 1.0
C      1  0.4839000000000  0.6372210000000  0.5022320000000 1.0
C      1  0.4669930000000  0.4333310000000  0.5940790000000 1.0
C      1  0.4326620000000  0.5133740000000  0.4805110000000 1.0
C      1  0.4359900000000  0.5005270000000  0.5111040000000 1.0
C      1  0.4281740000000  0.4737740000000  0.4966140000000 1.0
C      1  0.5174550000000  0.3981970000000  0.4631010000000 1.0
C      1  0.5239450000000  0.5820100000000  0.4234570000000 1.0
C      1  0.5275770000000  0.5223860000000  0.6187600000000 1.0
C      1  0.4857950000000  0.5175230000000  0.5472180000000 1.0
C      1  0.4755140000000  0.4604740000000  0.4767420000000 1.0
C      1  0.4865210000000  0.5244720000000  0.4670420000000 1.0
C      1  0.4082550000000  0.5031660000000  0.4647200000000 1.0
C      1  0.4184160000000  0.5214080000000  0.5268100000000 1.0
C      1  0.4022180000000  0.4651310000000  0.5107400000000 1.0
C      1  0.4544570000000  0.4801450000000  0.5306420000000 1.0
C      1  0.4399830000000  0.4738940000000  0.4647280000000 1.0
C      1  0.4428630000000  0.5378790000000  0.4998350000000 1.0
C      1  0.4097440000000  0.5336840000000  0.4549710000000 1.0
C      1  0.4150430000000  0.5213930000000  0.5569370000000 1.0
C      1  0.4100930000000  0.4387740000000  0.4907050000000 1.0
C      1  0.5310220000000  0.5483480000000  0.5648610000000 1.0
C      1  0.5343760000000  0.4306430000000  0.5079460000000 1.0
C      1  0.5345890000000  0.5278570000000  0.4304810000000 1.0
C      1  0.5428880000000  0.5177530000000  0.3928620000000 1.0
C      1  0.5308570000000  0.5863680000000  0.5786430000000 1.0
C      1  0.5396730000000  0.3842960000000  0.5244220000000 1.0
C      1  0.5539660000000  0.4941950000000  0.5920060000000 1.0
C      1  0.5776670000000  0.4157010000000  0.4358590000000 1.0
C      1  0.5591170000000  0.5791820000000  0.4490120000000 1.0
C      1  0.5491250000000  0.4154610000000  0.4273230000000 1.0
C      1  0.5505910000000  0.6034910000000  0.4630500000000 1.0
C      1  0.5457670000000  0.4700800000000  0.6085120000000 1.0
C      1  0.5549630000000  0.5664920000000  0.5903070000000 1.0
C      1  0.5559260000000  0.3981320000000  0.5035840000000 1.0
C      1  0.5615220000000  0.5393320000000  0.4037700000000 1.0
C      1  0.5005530000000  0.4374800000000  0.4773820000000 1.0
C      1  0.5016350000000  0.5476170000000  0.4518700000000 1.0
C      1  0.5014540000000  0.5184490000000  0.5742020000000 1.0
C      1  0.5233600000000  0.4084980000000  0.4335420000000 1.0
C      1  0.5255260000000  0.6008440000000  0.4485260000000 1.0
C      1  0.5227100000000  0.4906190000000  0.6161000000000 1.0
C      1  0.6011770000000  0.5193970000000  0.5422430000000 1.0
C      1  0.6069550000000  0.4613550000000  0.4903610000000 1.0
C      1  0.6031620000000  0.5316110000000  0.4663670000000 1.0
C      1  0.4809300000000  0.5924040000000  0.5625420000000 1.0
C      1  0.4622240000000  0.4154070000000  0.5652790000000 1.0
C      1  0.4649080000000  0.4801590000000  0.3940760000000 1.0
C      1  0.5560840000000  0.4559970000000  0.5014220000000 1.0
C      1  0.5566420000000  0.5162970000000  0.4527250000000 1.0
C      1  0.5527230000000  0.5311930000000  0.5500570000000 1.0
C      1  0.5857620000000  0.4357830000000  0.4531170000000 1.0
C      1  0.5855950000000  0.5679580000000  0.4588430000000 1.0
C      1  0.5807340000000  0.4947470000000  0.5796470000000 1.0
C      1  0.4179850000000  0.5696940000000  0.4391520000000 1.0
C      1  0.4154380000000  0.5269980000000  0.5958680000000 1.0
C      1  0.4186980000000  0.4058400000000  0.4705170000000 1.0
C      1  0.5075770000000  0.5000440000000  0.4633570000000 1.0
C      1  0.5061160000000  0.5298820000000  0.5229160000000 1.0
C      1  0.5177270000000  0.4645940000000  0.5207340000000 1.0
C      1  0.5003140000000  0.6267490000000  0.4789940000000 1.0
C      1  0.4917800000000  0.4481610000000  0.6060580000000 1.0
C      1  0.4959850000000  0.4384680000000  0.3968020000000 1.0
C      1  0.5155120000000  0.5234930000000  0.3916580000000 1.0
C      1  0.5029610000000  0.5856690000000  0.5796300000000 1.0
C      1  0.5136060000000  0.3946190000000  0.5305100000000 1.0
C      1  0.4800500000000  0.5372200000000  0.4039630000000 1.0
C      1  0.4919260000000  0.5479330000000  0.5722780000000 1.0
C      1  0.4739740000000  0.4214440000000  0.5093050000000 1.0
C      1  0.5672430000000  0.4777340000000  0.4253640000000 1.0
C      1  0.5590770000000  0.5804980000000  0.5210510000000 1.0
C      1  0.5744410000000  0.4456660000000  0.5589640000000 1.0
C      1  0.5742890000000  0.5296720000000  0.4268970000000 1.0
C      1  0.5704860000000  0.5531070000000  0.5689560000000 1.0
C      1  0.5737430000000  0.4269190000000  0.5069870000000 1.0
C      1  0.5666110000000  0.4805700000000  0.4703930000000 1.0
C      1  0.5649100000000  0.5356490000000  0.4985460000000 1.0
C      1  0.5673540000000  0.4847520000000  0.5291000000000 1.0
C      1  0.4926830000000  0.4233600000000  0.4270830000000 1.0
C      1  0.4940850000000  0.5979200000000  0.4620740000000 1.0
C      1  0.4955020000000  0.4790720000000  0.6053760000000 1.0
C      1  0.5986230000000  0.4466820000000  0.5129840000000 1.0
C      1  0.5955240000000  0.5171240000000  0.4436410000000 1.0
C      1  0.5895630000000  0.5452990000000  0.5442930000000 1.0
C      1  0.5391200000000  0.4995960000000  0.4766290000000 1.0
C      1  0.5461490000000  0.5170970000000  0.5199920000000 1.0
C      1  0.5409220000000  0.4858040000000  0.5077050000000 1.0
C      1  0.5142790000000  0.4668150000000  0.3918080000000 1.0
C      1  0.4927790000000  0.6115320000000  0.5147850000000 1.0
C      1  0.5073640000000  0.4130980000000  0.5810320000000 1.0
C      1  0.4322920000000  0.5840480000000  0.5576680000000 1.0
C      1  0.4278790000000  0.4192510000000  0.5453750000000 1.0
C      1  0.4310470000000  0.5005500000000  0.3983680000000 1.0
C      1  0.4535750000000  0.5275190000000  0.4591330000000 1.0
C      1  0.4543860000000  0.5190300000000  0.5524160000000 1.0
C      1  0.4489400000000  0.4485960000000  0.4943420000000 1.0
C      1  0.4624960000000  0.4873740000000  0.5619830000000 1.0
C      1  0.4456760000000  0.4396530000000  0.4618250000000 1.0
C      1  0.4650360000000  0.5593970000000  0.4620800000000 1.0
C      1  0.5128200000000  0.5540720000000  0.4999550000000 1.0
C      1  0.5151810000000  0.4743400000000  0.5526040000000 1.0
C      1  0.5086280000000  0.4679310000000  0.4527970000000 1.0
C      1  0.5300210000000  0.4540420000000  0.5754620000000 1.0
C      1  0.5316880000000  0.4470530000000  0.4442730000000 1.0
C      1  0.5284310000000  0.5744510000000  0.4788380000000 1.0
C      1  0.4395240000000  0.5352160000000  0.5761950000000 1.0
C      1  0.4364210000000  0.4170370000000  0.4965870000000 1.0
C      1  0.4340300000000  0.5401210000000  0.4343240000000 1.0
C      1  0.5125320000000  0.4191880000000  0.5422020000000 1.0
C      1  0.4995210000000  0.5124230000000  0.4166920000000 1.0
C      1  0.5070480000000  0.5614640000000  0.5480700000000 1.0
C      1  0.4139530000000  0.4798320000000  0.4436680000000 1.0
C      1  0.4172910000000  0.5521490000000  0.5153750000000 1.0
C      1  0.4229300000000  0.4694100000000  0.5376090000000 1.0
C      1  0.5256300000000  0.5496640000000  0.5984620000000 1.0
C      1  0.5233610000000  0.4022460000000  0.4927090000000 1.0
C      1  0.5316260000000  0.5550420000000  0.4102130000000 1.0
C      1  0.4554400000000  0.4428840000000  0.4231710000000 1.0
C      1  0.4672770000000  0.5834670000000  0.5034190000000 1.0
C      1  0.4495940000000  0.4856240000000  0.5903520000000 1.0
C      1  0.4455030000000  0.5363140000000  0.4077250000000 1.0
C      1  0.4628270000000  0.5557350000000  0.5848600000000 1.0
C      1  0.4580400000000  0.3919850000000  0.5054790000000 1.0
C      1  0.5334050000000  0.5316740000000  0.4863640000000 1.0
C      1  0.5225600000000  0.5050080000000  0.5397360000000 1.0
C      1  0.5127130000000  0.4678710000000  0.4865800000000 1.0
C      1  0.4941620000000  0.4445370000000  0.5348960000000 1.0
C      1  0.4834880000000  0.4958750000000  0.4394180000000 1.0
C      1  0.4831850000000  0.5547090000000  0.5267380000000 1.0
C      1  0.5598470000000  0.5005970000000  0.5534630000000 1.0
C      1  0.5629650000000  0.4496940000000  0.4688100000000 1.0
C      1  0.5650760000000  0.5438790000000  0.4659880000000 1.0
C      1  0.4697290000000  0.5177750000000  0.4943210000000 1.0
C      1  0.4797170000000  0.5001570000000  0.5197660000000 1.0
C      1  0.4634410000000  0.4882230000000  0.4847780000000 1.0
C      1  0.5263140000000  0.4437490000000  0.4112410000000 1.0
C      1  0.5166830000000  0.6017950000000  0.4948480000000 1.0
C      1  0.5153710000000  0.4365720000000  0.5964590000000 1.0
C      1  0.4888050000000  0.5709830000000  0.4827160000000 1.0
C      1  0.4891280000000  0.4705700000000  0.5730680000000 1.0
C      1  0.4808830000000  0.4498300000000  0.4448750000000 1.0
C      1  0.4031220000000  0.4995150000000  0.5800730000000 1.0
C      1  0.4127670000000  0.4364260000000  0.4568730000000 1.0
C      1  0.4321120000000  0.5653970000000  0.4684430000000 1.0
C      1  0.4714260000000  0.4033180000000  0.4151520000000 1.0
C      1  0.4614440000000  0.6058970000000  0.4619800000000 1.0
C      1  0.4683850000000  0.4942470000000  0.6084790000000 1.0
C      1  0.5580220000000  0.4479690000000  0.4227630000000 1.0
C      1  0.5488720000000  0.5959120000000  0.4955260000000 1.0
C      1  0.5610800000000  0.4563270000000  0.5814420000000 1.0
C      1  0.4010750000000  0.4917060000000  0.5470440000000 1.0
C      1  0.3994370000000  0.4646420000000  0.4704140000000 1.0
C      1  0.4078320000000  0.5484960000000  0.4838620000000 1.0
C      1  0.5061110000000  0.5523440000000  0.3879020000000 1.0
C      1  0.4942580000000  0.5627870000000  0.6009030000000 1.0
C      1  0.4934160000000  0.3936900000000  0.5064760000000 1.0
C      1  0.4669190000000  0.4522060000000  0.5219590000000 1.0
C      1  0.4559110000000  0.4980050000000  0.4468050000000 1.0
C      1  0.4584470000000  0.5381690000000  0.5268210000000 1.0
C      1  0.5312860000000  0.5052960000000  0.5715290000000 1.0
C      1  0.5338530000000  0.4363410000000  0.4750860000000 1.0
C      1  0.5352000000000  0.5535210000000  0.4529130000000 1.0
C      1  0.4818640000000  0.5881800000000  0.5326870000000 1.0
C      1  0.4879090000000  0.4375660000000  0.5675870000000 1.0
C      1  0.4898800000000  0.4743470000000  0.4142590000000 1.0
C      1  0.5890270000000  0.4871760000000  0.4466110000000 1.0
C      1  0.5794300000000  0.5583320000000  0.5165440000000 1.0
C      1  0.5908210000000  0.4640070000000  0.5382190000000 1.0
C      1  0.5915660000000  0.5021650000000  0.5181490000000 1.0
C      1  0.5906870000000  0.4869920000000  0.4889160000000 1.0
C      1  0.5912560000000  0.5185960000000  0.4912410000000 1.0
C      1  0.5463300000000  0.4981280000000  0.4187650000000 1.0
C      1  0.5437790000000  0.5768260000000  0.5511840000000 1.0
C      1  0.5562750000000  0.4328650000000  0.5338800000000 1.0
C      1  0.4214170000000  0.4422870000000  0.5519150000000 1.0
C      1  0.4186020000000  0.4871400000000  0.4148490000000 1.0
C      1  0.4196810000000  0.5750330000000  0.5354160000000 1.0
C      1  0.5351680000000  0.4289800000000  0.5557670000000 1.0
C      1  0.5193290000000  0.4863650000000  0.4262760000000 1.0
C      1  0.5263910000000  0.5707370000000  0.5237550000000 1.0
C      1  0.3864210000000  0.4924930000000  0.4849360000000 1.0
C      1  0.3980700000000  0.5203940000000  0.5005040000000 1.0
C      1  0.3855860000000  0.4937390000000  0.5185570000000 1.0
C      1  0.5092470000000  0.4973700000000  0.5031320000000 1.0
END
