TITL C-2622968-4806-61 -0.00166569339289082 125000 -537.162166626092 0 0 106 (C1) n - 1
REM
REM in /nfs/bkarasulu/CARBON/AIRSS/Generating-Clusters/AIREBO/with-SteepDescent/Higher-Symm/SD-CG/HFTN-CG
REM
REM
REM
REM
REM
REM ./C.cell (b20cbc046b6831c77cfcea5457e17084)
REM
REM compiler GCC version 9.2.1 20190827 (Red Hat 9.2.1-1)
REM options -cpp -mtune=generic -march=x86-64 -g -O0 -fpre-include=/usr/include/finclude/math-vector-fortran.h
REM seed 406658728 635800053 -101545488 -337519538 -1286759948 -931922346 -1145961607 1840276404 -1764048429 -863670267 1369082795 -754876671 1924740866 -893182260 -1062566057 -86285181 212704795 -2105431512 -676059164 70094407 -332093297 -1889962559 1163920738 68989291 1598006085 1187968001 -1529206851 554379669 725680913 1925683539 583344625 -847677652 1527541932
REM
CELL 1.54180   50.00000   50.00000   50.00000   90.00000   90.00000   90.00000
LATT -1
SFAC C  
C      1  0.4546960000000  0.5433130000000  0.5548020000000 1.0
C      1  0.4294490000000  0.5509240000000  0.4830180000000 1.0
C      1  0.4581010000000  0.5447710000000  0.4352090000000 1.0
C      1  0.5086140000000  0.5468860000000  0.4003570000000 1.0
C      1  0.5754190000000  0.5502970000000  0.4859910000000 1.0
C      1  0.5640170000000  0.5500900000000  0.5421760000000 1.0
C      1  0.5095190000000  0.5435980000000  0.5784790000000 1.0
C      1  0.4283060000000  0.4621000000000  0.5465780000000 1.0
C      1  0.4207920000000  0.4629600000000  0.4771990000000 1.0
C      1  0.4782180000000  0.4668450000000  0.4226780000000 1.0
C      1  0.5503780000000  0.4762080000000  0.4287040000000 1.0
C      1  0.5769790000000  0.4760260000000  0.4938430000000 1.0
C      1  0.5430670000000  0.4715360000000  0.5635850000000 1.0
C      1  0.4956400000000  0.4572850000000  0.5863870000000 1.0
C      1  0.5245480000000  0.4595980000000  0.5004860000000 1.0
C      1  0.5387900000000  0.4695260000000  0.5239320000000 1.0
C      1  0.4910920000000  0.4648910000000  0.5474250000000 1.0
C      1  0.4725730000000  0.4633200000000  0.5219950000000 1.0
C      1  0.4569260000000  0.4576680000000  0.4928290000000 1.0
C      1  0.4716190000000  0.4734010000000  0.4697070000000 1.0
C      1  0.5218360000000  0.4665080000000  0.4682870000000 1.0
C      1  0.5460740000000  0.4444120000000  0.5432530000000 1.0
C      1  0.4977420000000  0.4375190000000  0.5632280000000 1.0
C      1  0.4464220000000  0.4456240000000  0.5346210000000 1.0
C      1  0.4375540000000  0.4363260000000  0.4840190000000 1.0
C      1  0.4765890000000  0.4495860000000  0.4466890000000 1.0
C      1  0.5376150000000  0.4535570000000  0.4410920000000 1.0
C      1  0.5586900000000  0.4568050000000  0.4802390000000 1.0
C      1  0.5821130000000  0.5224140000000  0.5038430000000 1.0
C      1  0.5333860000000  0.5206570000000  0.5561160000000 1.0
C      1  0.4852970000000  0.5201840000000  0.5748770000000 1.0
C      1  0.4348070000000  0.5258670000000  0.5333030000000 1.0
C      1  0.4377440000000  0.5241700000000  0.4636810000000 1.0
C      1  0.4807900000000  0.5198480000000  0.4338980000000 1.0
C      1  0.5418000000000  0.5219830000000  0.4480530000000 1.0
C      1  0.4997410000000  0.4843050000000  0.4564470000000 1.0
C      1  0.5474900000000  0.4870420000000  0.4693830000000 1.0
C      1  0.5610690000000  0.4884860000000  0.5173240000000 1.0
C      1  0.5167550000000  0.4792070000000  0.5437480000000 1.0
C      1  0.4741280000000  0.4833760000000  0.5653890000000 1.0
C      1  0.4473160000000  0.4860610000000  0.5208850000000 1.0
C      1  0.4455560000000  0.4858900000000  0.4559750000000 1.0
C      1  0.5082360000000  0.5396420000000  0.5264570000000 1.0
C      1  0.4787280000000  0.5469340000000  0.5324150000000 1.0
C      1  0.4628190000000  0.5475660000000  0.5050080000000 1.0
C      1  0.4680940000000  0.5476040000000  0.4737970000000 1.0
C      1  0.5066830000000  0.5478990000000  0.4633610000000 1.0
C      1  0.5363810000000  0.5459680000000  0.4791090000000 1.0
C      1  0.5362210000000  0.5464380000000  0.5116110000000 1.0
C      1  0.4616440000000  0.4935250000000  0.4279050000000 1.0
C      1  0.5327380000000  0.5034480000000  0.4249250000000 1.0
C      1  0.5894210000000  0.4991700000000  0.4816060000000 1.0
C      1  0.5582810000000  0.4989660000000  0.5558280000000 1.0
C      1  0.4978990000000  0.4913140000000  0.5877050000000 1.0
C      1  0.4349480000000  0.4943220000000  0.5514600000000 1.0
C      1  0.4241480000000  0.4968540000000  0.4781780000000 1.0
C      1  0.5186130000000  0.5812540000000  0.5431300000000 1.0
C      1  0.4872010000000  0.5784550000000  0.5415650000000 1.0
C      1  0.4657390000000  0.5799770000000  0.5148610000000 1.0
C      1  0.4791990000000  0.5766430000000  0.4616460000000 1.0
C      1  0.5071380000000  0.5736650000000  0.4436500000000 1.0
C      1  0.5384560000000  0.5701860000000  0.4553310000000 1.0
C      1  0.5402750000000  0.5753390000000  0.5233160000000 1.0
C      1  0.5229820000000  0.5126480000000  0.5851550000000 1.0
C      1  0.4518360000000  0.5158110000000  0.5706970000000 1.0
C      1  0.4242230000000  0.5222330000000  0.5009080000000 1.0
C      1  0.4410230000000  0.5182090000000  0.4328690000000 1.0
C      1  0.5053360000000  0.5197210000000  0.4131900000000 1.0
C      1  0.5708600000000  0.5228960000000  0.4658130000000 1.0
C      1  0.5721680000000  0.5223900000000  0.5353950000000 1.0
C      1  0.5702220000000  0.4952620000000  0.4459880000000 1.0
C      1  0.5865450000000  0.4919230000000  0.5395830000000 1.0
C      1  0.5373500000000  0.4866340000000  0.5920690000000 1.0
C      1  0.4501680000000  0.4872900000000  0.5872300000000 1.0
C      1  0.4162980000000  0.4946030000000  0.5166250000000 1.0
C      1  0.4301970000000  0.4694920000000  0.4330520000000 1.0
C      1  0.5027780000000  0.4877740000000  0.4248950000000 1.0
C      1  0.5123220000000  0.5085970000000  0.5338670000000 1.0
C      1  0.4799120000000  0.5084940000000  0.5431940000000 1.0
C      1  0.4615750000000  0.5151690000000  0.5152720000000 1.0
C      1  0.4662290000000  0.5164100000000  0.4805670000000 1.0
C      1  0.4960520000000  0.5160310000000  0.4640420000000 1.0
C      1  0.5272070000000  0.5131320000000  0.4774670000000 1.0
C      1  0.5488360000000  0.5168600000000  0.5034520000000 1.0
C      1  0.4467780000000  0.5653510000000  0.4574770000000 1.0
C      1  0.5068640000000  0.5684320000000  0.4131970000000 1.0
C      1  0.5664300000000  0.5707630000000  0.4633380000000 1.0
C      1  0.5702400000000  0.5666260000000  0.5154600000000 1.0
C      1  0.5331740000000  0.5536100000000  0.5561040000000 1.0
C      1  0.4810130000000  0.5596800000000  0.5692580000000 1.0
C      1  0.4371190000000  0.5772810000000  0.4991970000000 1.0
C      1  0.5186160000000  0.4331550000000  0.4621170000000 1.0
C      1  0.5381520000000  0.4314090000000  0.4898930000000 1.0
C      1  0.5277720000000  0.4263990000000  0.5222170000000 1.0
C      1  0.4957690000000  0.4245060000000  0.5336330000000 1.0
C      1  0.4642930000000  0.4243770000000  0.5208690000000 1.0
C      1  0.4671440000000  0.4196850000000  0.4871360000000 1.0
C      1  0.4878800000000  0.4276420000000  0.4613860000000 1.0
C      1  0.4966490000000  0.4118030000000  0.5021040000000 1.0
C      1  0.4903420000000  0.4793430000000  0.4978260000000 1.0
C      1  0.5053390000000  0.6013020000000  0.4883600000000 1.0
C      1  0.5044890000000  0.5062140000000  0.5018090000000 1.0
C      1  0.4944010000000  0.4456480000000  0.4999750000000 1.0
C      1  0.5006300000000  0.5405090000000  0.4952540000000 1.0
C      1  0.5055400000000  0.3837500000000  0.4967990000000 1.0
C      1  0.4911450000000  0.5731810000000  0.4932940000000 1.0
END
