TITL C-2622968-4806-425 0.00159577072678276 125000 -865.497805672376 0 0 161 (C1) n - 1
REM
REM in /nfs/bkarasulu/CARBON/AIRSS/Generating-Clusters/AIREBO/with-SteepDescent/Higher-Symm/SD-CG/HFTN-CG
REM
REM
REM
REM
REM
REM ./C.cell (b20cbc046b6831c77cfcea5457e17084)
REM
REM compiler GCC version 9.2.1 20190827 (Red Hat 9.2.1-1)
REM options -cpp -mtune=generic -march=x86-64 -g -O0 -fpre-include=/usr/include/finclude/math-vector-fortran.h
REM seed 380944823 -1232613439 286948307 191424850 2056645592 -960820082 -785627872 1136848242 -232570324 493379923 1003266859 391510652 -1183288771 -1352255167 408604639 499975701 -947051184 -752099839 2037367837 -1105488275 1532783016 550388823 -374311882 -1917053917 38143064 1424310871 -1325961139 1331296898 304477101 484144181 1147819979 2059763110 809545981
REM
CELL 1.54180   50.00000   50.00000   50.00000   90.00000   90.00000   90.00000
LATT -1
SFAC C  
C      1  0.4115170000000  0.4719510000000  0.5225000000000 1.0
C      1  0.5146410000000  0.4580480000000  0.5822180000000 1.0
C      1  0.5904660000000  0.4636680000000  0.4826500000000 1.0
C      1  0.4801200000000  0.4576470000000  0.4194380000000 1.0
C      1  0.4211980000000  0.5109280000000  0.5204400000000 1.0
C      1  0.5134400000000  0.4957750000000  0.5948350000000 1.0
C      1  0.6032680000000  0.5066560000000  0.4869710000000 1.0
C      1  0.4839040000000  0.4973890000000  0.4197110000000 1.0
C      1  0.4444650000000  0.4519870000000  0.5825840000000 1.0
C      1  0.5748180000000  0.4429120000000  0.5472240000000 1.0
C      1  0.5565770000000  0.4545940000000  0.4187060000000 1.0
C      1  0.4244170000000  0.4482790000000  0.4516510000000 1.0
C      1  0.4976570000000  0.4322640000000  0.5363480000000 1.0
C      1  0.5393740000000  0.4326780000000  0.5001190000000 1.0
C      1  0.5125230000000  0.4293080000000  0.4401510000000 1.0
C      1  0.4633010000000  0.4396400000000  0.4890960000000 1.0
C      1  0.5536290000000  0.4845470000000  0.5488420000000 1.0
C      1  0.5628060000000  0.4854300000000  0.4433530000000 1.0
C      1  0.4437430000000  0.4839760000000  0.4488340000000 1.0
C      1  0.4485540000000  0.4993090000000  0.5608800000000 1.0
C      1  0.4688740000000  0.4619810000000  0.4514320000000 1.0
C      1  0.4408770000000  0.4737980000000  0.5396220000000 1.0
C      1  0.5304000000000  0.4640020000000  0.5524130000000 1.0
C      1  0.5595750000000  0.4650330000000  0.4684960000000 1.0
C      1  0.5259950000000  0.5199860000000  0.5534100000000 1.0
C      1  0.5394440000000  0.5150370000000  0.4741230000000 1.0
C      1  0.4615010000000  0.5213580000000  0.4756020000000 1.0
C      1  0.4764660000000  0.5227070000000  0.5374730000000 1.0
C      1  0.5384080000000  0.4315540000000  0.5571110000000 1.0
C      1  0.5632050000000  0.4324910000000  0.4591680000000 1.0
C      1  0.4588550000000  0.4313530000000  0.4405570000000 1.0
C      1  0.4427570000000  0.4401100000000  0.5444610000000 1.0
C      1  0.5807410000000  0.5640630000000  0.5152040000000 1.0
C      1  0.5190520000000  0.5554970000000  0.4007300000000 1.0
C      1  0.4059950000000  0.5545030000000  0.4851220000000 1.0
C      1  0.4808560000000  0.5565750000000  0.5908970000000 1.0
C      1  0.5968150000000  0.5404370000000  0.5048000000000 1.0
C      1  0.5070620000000  0.5311300000000  0.3992960000000 1.0
C      1  0.3952120000000  0.5318790000000  0.4990690000000 1.0
C      1  0.4913490000000  0.5310500000000  0.5899200000000 1.0
C      1  0.4204330000000  0.4524820000000  0.5664390000000 1.0
C      1  0.5613310000000  0.4503770000000  0.5737530000000 1.0
C      1  0.5775470000000  0.4490180000000  0.4365990000000 1.0
C      1  0.4371120000000  0.4500490000000  0.4261530000000 1.0
C      1  0.6011750000000  0.5367420000000  0.4712650000000 1.0
C      1  0.4752360000000  0.5225110000000  0.3987680000000 1.0
C      1  0.3979250000000  0.5328080000000  0.5321130000000 1.0
C      1  0.5229880000000  0.5271570000000  0.5978050000000 1.0
C      1  0.5771750000000  0.5555570000000  0.4603120000000 1.0
C      1  0.4759700000000  0.5472100000000  0.4186050000000 1.0
C      1  0.4206560000000  0.5547260000000  0.5388260000000 1.0
C      1  0.5220940000000  0.5485720000000  0.5714020000000 1.0
C      1  0.5193250000000  0.4081250000000  0.4921050000000 1.0
C      1  0.5009390000000  0.4102740000000  0.4662050000000 1.0
C      1  0.4794440000000  0.4099170000000  0.4926260000000 1.0
C      1  0.4999160000000  0.4067040000000  0.5165600000000 1.0
C      1  0.5139010000000  0.4792210000000  0.4545230000000 1.0
C      1  0.4427170000000  0.4865470000000  0.4814630000000 1.0
C      1  0.4886990000000  0.4794520000000  0.5504500000000 1.0
C      1  0.5635890000000  0.4860750000000  0.5173410000000 1.0
C      1  0.4852960000000  0.4240540000000  0.4204650000000 1.0
C      1  0.4320630000000  0.4256060000000  0.5198500000000 1.0
C      1  0.5147810000000  0.4144750000000  0.5628990000000 1.0
C      1  0.5687040000000  0.4123300000000  0.4817150000000 1.0
C      1  0.5845340000000  0.4994420000000  0.5484670000000 1.0
C      1  0.5576220000000  0.4967670000000  0.4157820000000 1.0
C      1  0.4172160000000  0.5052830000000  0.4506730000000 1.0
C      1  0.4529000000000  0.5002030000000  0.5946350000000 1.0
C      1  0.4840090000000  0.5775950000000  0.4158340000000 1.0
C      1  0.4244800000000  0.5797440000000  0.5222290000000 1.0
C      1  0.5150020000000  0.5772310000000  0.5886480000000 1.0
C      1  0.5710470000000  0.5853790000000  0.4676760000000 1.0
C      1  0.4676820000000  0.4783000000000  0.6010440000000 1.0
C      1  0.6010320000000  0.4834010000000  0.5309420000000 1.0
C      1  0.5316650000000  0.4808180000000  0.4063410000000 1.0
C      1  0.4039790000000  0.4856480000000  0.4732160000000 1.0
C      1  0.4385690000000  0.5460650000000  0.4802260000000 1.0
C      1  0.4658590000000  0.5638710000000  0.5637070000000 1.0
C      1  0.5613860000000  0.5560510000000  0.5386750000000 1.0
C      1  0.5334820000000  0.5629730000000  0.4295780000000 1.0
C      1  0.5539720000000  0.5536620000000  0.5696370000000 1.0
C      1  0.5588930000000  0.5461150000000  0.4357470000000 1.0
C      1  0.4486300000000  0.5423750000000  0.4331140000000 1.0
C      1  0.4376930000000  0.5512430000000  0.5663020000000 1.0
C      1  0.5301660000000  0.6081870000000  0.4701990000000 1.0
C      1  0.4685630000000  0.5957080000000  0.4552620000000 1.0
C      1  0.4723050000000  0.6165600000000  0.5313170000000 1.0
C      1  0.5305290000000  0.5975360000000  0.5390370000000 1.0
C      1  0.4244850000000  0.5329680000000  0.4521710000000 1.0
C      1  0.4368560000000  0.5253670000000  0.5887450000000 1.0
C      1  0.5765880000000  0.5314920000000  0.5566210000000 1.0
C      1  0.5660830000000  0.5229580000000  0.4131120000000 1.0
C      1  0.4508930000000  0.5150620000000  0.5236800000000 1.0
C      1  0.5057630000000  0.5010100000000  0.5652920000000 1.0
C      1  0.5513100000000  0.5273900000000  0.4986750000000 1.0
C      1  0.5058050000000  0.5057940000000  0.4424290000000 1.0
C      1  0.5120020000000  0.5309530000000  0.4644630000000 1.0
C      1  0.4899250000000  0.5288640000000  0.4880370000000 1.0
C      1  0.4947280000000  0.5395170000000  0.5200830000000 1.0
C      1  0.5299630000000  0.5212840000000  0.5235610000000 1.0
C      1  0.5332590000000  0.4824570000000  0.4811890000000 1.0
C      1  0.4719700000000  0.4934900000000  0.4909260000000 1.0
C      1  0.4684720000000  0.4859520000000  0.5239020000000 1.0
C      1  0.5298210000000  0.4887760000000  0.5144290000000 1.0
C      1  0.5724910000000  0.4404550000000  0.4971570000000 1.0
C      1  0.4852840000000  0.4131120000000  0.3916410000000 1.0
C      1  0.4171780000000  0.4459650000000  0.5034830000000 1.0
C      1  0.4930390000000  0.4333890000000  0.5759330000000 1.0
C      1  0.4023400000000  0.5022160000000  0.5466190000000 1.0
C      1  0.5459560000000  0.5008050000000  0.5967820000000 1.0
C      1  0.5932520000000  0.5065830000000  0.4570010000000 1.0
C      1  0.4519900000000  0.5025530000000  0.4144000000000 1.0
C      1  0.5535550000000  0.4263350000000  0.5290450000000 1.0
C      1  0.5417170000000  0.4229140000000  0.4380640000000 1.0
C      1  0.4505710000000  0.4196420000000  0.4675680000000 1.0
C      1  0.4689280000000  0.4293620000000  0.5522910000000 1.0
C      1  0.4884880000000  0.3973990000000  0.4413360000000 1.0
C      1  0.4487100000000  0.4072530000000  0.5069650000000 1.0
C      1  0.5074010000000  0.3941020000000  0.5426660000000 1.0
C      1  0.5486720000000  0.3952850000000  0.4895140000000 1.0
C      1  0.5206830000000  0.5108470000000  0.4135420000000 1.0
C      1  0.4183990000000  0.5086130000000  0.4902920000000 1.0
C      1  0.4775310000000  0.5142670000000  0.5665230000000 1.0
C      1  0.5773800000000  0.5114980000000  0.5069790000000 1.0
C      1  0.5076250000000  0.4634600000000  0.5271540000000 1.0
C      1  0.5176160000000  0.4558910000000  0.4955290000000 1.0
C      1  0.4912120000000  0.4674270000000  0.4769350000000 1.0
C      1  0.4797080000000  0.4582960000000  0.5076170000000 1.0
C      1  0.5938830000000  0.4733500000000  0.4500220000000 1.0
C      1  0.4511480000000  0.4708680000000  0.4118540000000 1.0
C      1  0.4029800000000  0.4713870000000  0.5544700000000 1.0
C      1  0.5448810000000  0.4682860000000  0.5893800000000 1.0
C      1  0.4250270000000  0.5205790000000  0.5588530000000 1.0
C      1  0.5524530000000  0.5113600000000  0.5677450000000 1.0
C      1  0.5612510000000  0.5171540000000  0.4523680000000 1.0
C      1  0.4583900000000  0.5130300000000  0.4461120000000 1.0
C      1  0.4897450000000  0.5903960000000  0.4390240000000 1.0
C      1  0.4491640000000  0.5765920000000  0.5050070000000 1.0
C      1  0.5085950000000  0.5857710000000  0.5572350000000 1.0
C      1  0.5430830000000  0.5816110000000  0.4873020000000 1.0
C      1  0.5170560000000  0.5837940000000  0.4504720000000 1.0
C      1  0.4559560000000  0.5743560000000  0.4729160000000 1.0
C      1  0.4777380000000  0.5901460000000  0.5490620000000 1.0
C      1  0.5445420000000  0.5798890000000  0.5212370000000 1.0
C      1  0.5034330000000  0.5487880000000  0.4368050000000 1.0
C      1  0.4416540000000  0.5447180000000  0.5141880000000 1.0
C      1  0.4960860000000  0.5548960000000  0.5504210000000 1.0
C      1  0.5621460000000  0.5542600000000  0.4907830000000 1.0
C      1  0.5811200000000  0.4585070000000  0.5211840000000 1.0
C      1  0.5256490000000  0.4593800000000  0.4320590000000 1.0
C      1  0.4360410000000  0.4547870000000  0.4799340000000 1.0
C      1  0.4758020000000  0.4617380000000  0.5736900000000 1.0
C      1  0.3937100000000  0.4684340000000  0.4934630000000 1.0
C      1  0.4964580000000  0.4732510000000  0.6058850000000 1.0
C      1  0.6079990000000  0.4803900000000  0.5014730000000 1.0
C      1  0.5008600000000  0.4748740000000  0.4049010000000 1.0
C      1  0.5173950000000  0.5626240000000  0.4756530000000 1.0
C      1  0.4795130000000  0.5581160000000  0.4872530000000 1.0
C      1  0.4753980000000  0.5877140000000  0.5162860000000 1.0
C      1  0.5250810000000  0.5534940000000  0.5138100000000 1.0
C      1  0.5010310000000  0.5748840000000  0.5028330000000 1.0
END
