TITL C-2622964-2985-213 -2.00483425548502e-05 125000 -440.69145142517 0 0 79 (C1) n - 1
REM
REM in /nfs/bkarasulu/CARBON/AIRSS/Generating-Clusters/AIREBO/with-SteepDescent/Higher-Symm/SD-CG/HFTN-CG
REM
REM
REM
REM
REM
REM ./C.cell (b20cbc046b6831c77cfcea5457e17084)
REM
REM compiler GCC version 9.2.1 20190827 (Red Hat 9.2.1-1)
REM options -cpp -mtune=generic -march=x86-64 -g -O0 -fpre-include=/usr/include/finclude/math-vector-fortran.h
REM seed 72132086 1689064872 569886814 385615202 -1052253411 1811799355 -354895851 -1893153576 2116336445 975785580 1140324828 417383322 577144356 1589922888 1011250058 181936861 2090372630 114327948 -23606947 -828553540 -2013041887 -1667880115 1991633340 1589305020 1367426411 -798690939 267233710 -612424570 51468180 472426378 455641396 2006467154 -2064119464
REM
CELL 1.54180   50.00000   50.00000   50.00000   90.00000   90.00000   90.00000
LATT -1
SFAC C  
C      1  0.5995390000000  0.5041280000000  0.4461190000000 1.0
C      1  0.3929610000000  0.5047670000000  0.4630330000000 1.0
C      1  0.4532810000000  0.4518450000000  0.5316950000000 1.0
C      1  0.5551050000000  0.4575980000000  0.5343970000000 1.0
C      1  0.5277860000000  0.4447590000000  0.4700880000000 1.0
C      1  0.4594040000000  0.4527890000000  0.4632010000000 1.0
C      1  0.5979320000000  0.5226370000000  0.5382140000000 1.0
C      1  0.4077440000000  0.5203950000000  0.5312540000000 1.0
C      1  0.5271320000000  0.4404070000000  0.4994880000000 1.0
C      1  0.4798460000000  0.4578390000000  0.4868610000000 1.0
C      1  0.5443420000000  0.5273350000000  0.4549540000000 1.0
C      1  0.4629090000000  0.5242950000000  0.4563910000000 1.0
C      1  0.5354230000000  0.5434000000000  0.5122870000000 1.0
C      1  0.4705970000000  0.5431740000000  0.5074530000000 1.0
C      1  0.4816520000000  0.5187970000000  0.5990340000000 1.0
C      1  0.5140090000000  0.5209910000000  0.5994990000000 1.0
C      1  0.5520030000000  0.4520680000000  0.5610180000000 1.0
C      1  0.4533090000000  0.4464200000000  0.5585990000000 1.0
C      1  0.5263140000000  0.5022160000000  0.5798380000000 1.0
C      1  0.4728450000000  0.4990360000000  0.5786780000000 1.0
C      1  0.4758840000000  0.4492890000000  0.5807070000000 1.0
C      1  0.5279790000000  0.4515940000000  0.5818160000000 1.0
C      1  0.4500950000000  0.4971750000000  0.5543830000000 1.0
C      1  0.5513100000000  0.5019580000000  0.5576170000000 1.0
C      1  0.5232680000000  0.5442010000000  0.4552930000000 1.0
C      1  0.4710110000000  0.5487470000000  0.4450000000000 1.0
C      1  0.4785890000000  0.5022300000000  0.4498920000000 1.0
C      1  0.5441620000000  0.4934010000000  0.4522320000000 1.0
C      1  0.6234720000000  0.5027300000000  0.4355280000000 1.0
C      1  0.3682200000000  0.4975590000000  0.4582530000000 1.0
C      1  0.4710500000000  0.4392900000000  0.5139760000000 1.0
C      1  0.5491140000000  0.4387540000000  0.5148020000000 1.0
C      1  0.4515790000000  0.4731830000000  0.5784460000000 1.0
C      1  0.5495100000000  0.4780530000000  0.5815300000000 1.0
C      1  0.5337350000000  0.4927010000000  0.5025160000000 1.0
C      1  0.4712620000000  0.4868120000000  0.5020470000000 1.0
C      1  0.4171560000000  0.5136420000000  0.4697490000000 1.0
C      1  0.5756740000000  0.5034300000000  0.4584070000000 1.0
C      1  0.4671910000000  0.4744450000000  0.4459750000000 1.0
C      1  0.5442200000000  0.4636600000000  0.4469120000000 1.0
C      1  0.5420070000000  0.5702080000000  0.5124940000000 1.0
C      1  0.4646890000000  0.5695320000000  0.5016100000000 1.0
C      1  0.5599310000000  0.5176540000000  0.4815610000000 1.0
C      1  0.4430710000000  0.5202320000000  0.4769320000000 1.0
C      1  0.4753460000000  0.4119030000000  0.4370390000000 1.0
C      1  0.5222510000000  0.4123560000000  0.4287320000000 1.0
C      1  0.5496110000000  0.4870860000000  0.5272100000000 1.0
C      1  0.4516590000000  0.4814860000000  0.5251950000000 1.0
C      1  0.5700760000000  0.5133990000000  0.5330230000000 1.0
C      1  0.4360850000000  0.5110260000000  0.5274900000000 1.0
C      1  0.4504740000000  0.5244980000000  0.5035110000000 1.0
C      1  0.5561240000000  0.5253860000000  0.5073610000000 1.0
C      1  0.4585370000000  0.4271910000000  0.4518810000000 1.0
C      1  0.5358440000000  0.4322790000000  0.4413690000000 1.0
C      1  0.4983880000000  0.5762580000000  0.5433840000000 1.0
C      1  0.5104210000000  0.5480270000000  0.4807750000000 1.0
C      1  0.4955830000000  0.5938200000000  0.4941610000000 1.0
C      1  0.5021920000000  0.4535290000000  0.5121460000000 1.0
C      1  0.4948750000000  0.4699610000000  0.4329610000000 1.0
C      1  0.5024130000000  0.5443640000000  0.4206230000000 1.0
C      1  0.4983350000000  0.3975380000000  0.4300710000000 1.0
C      1  0.5038400000000  0.5431680000000  0.5433350000000 1.0
C      1  0.5026080000000  0.5346400000000  0.5104940000000 1.0
C      1  0.5042040000000  0.4640800000000  0.4648550000000 1.0
C      1  0.4968260000000  0.5605360000000  0.5703740000000 1.0
C      1  0.4977210000000  0.3710800000000  0.4249470000000 1.0
C      1  0.5048310000000  0.5177960000000  0.4193790000000 1.0
C      1  0.5121640000000  0.4912660000000  0.4759780000000 1.0
C      1  0.4988470000000  0.5656440000000  0.4469000000000 1.0
C      1  0.5124170000000  0.5045850000000  0.4473610000000 1.0
C      1  0.5024580000000  0.4880510000000  0.4124760000000 1.0
C      1  0.5016030000000  0.4585900000000  0.5784430000000 1.0
C      1  0.4959150000000  0.5467870000000  0.5933330000000 1.0
C      1  0.4980730000000  0.5130430000000  0.5438330000000 1.0
C      1  0.5037920000000  0.4807720000000  0.5324440000000 1.0
C      1  0.4985890000000  0.5885240000000  0.4677770000000 1.0
C      1  0.4998560000000  0.5922470000000  0.5211040000000 1.0
C      1  0.5008850000000  0.4871700000000  0.5657170000000 1.0
C      1  0.5011020000000  0.5017390000000  0.5058110000000 1.0
END
