TITL C-2622964-2985-715 0.000504098725706996 125000 -725.192207544778 0 0 134 (C1) n - 1
REM
REM in /nfs/bkarasulu/CARBON/AIRSS/Generating-Clusters/AIREBO/with-SteepDescent/Higher-Symm/SD-CG/HFTN-CG
REM
REM
REM
REM
REM
REM ./C.cell (b20cbc046b6831c77cfcea5457e17084)
REM
REM compiler GCC version 9.2.1 20190827 (Red Hat 9.2.1-1)
REM options -cpp -mtune=generic -march=x86-64 -g -O0 -fpre-include=/usr/include/finclude/math-vector-fortran.h
REM seed -1993524110 -617173906 -1444508984 1189778068 265298797 1362974833 -1785779463 -1426585016 573149224 1185152090 369709855 -426417078 -1499698962 1861904654 -1628361558 1078406434 574081845 1711335535 447225286 81092305 1426217469 129274702 1611554652 2110833818 1347749594 -1894081462 -1226210316 1845300810 1812428162 -1746105200 -432568719 1320923452 326950457
REM
CELL 1.54180   50.00000   50.00000   50.00000   90.00000   90.00000   90.00000
LATT -1
SFAC C  
C      1  0.4344330000000  0.5096680000000  0.4438090000000 1.0
C      1  0.4087030000000  0.5008550000000  0.5209330000000 1.0
C      1  0.4597270000000  0.5050460000000  0.5790400000000 1.0
C      1  0.5453060000000  0.5060250000000  0.5835490000000 1.0
C      1  0.5844890000000  0.5032280000000  0.5225130000000 1.0
C      1  0.5674670000000  0.5000160000000  0.4445810000000 1.0
C      1  0.4955070000000  0.5049930000000  0.4132670000000 1.0
C      1  0.4941590000000  0.4737850000000  0.4110790000000 1.0
C      1  0.4297700000000  0.4767020000000  0.4461740000000 1.0
C      1  0.4094770000000  0.4703070000000  0.5310340000000 1.0
C      1  0.4547560000000  0.4725000000000  0.5802060000000 1.0
C      1  0.5443570000000  0.4757840000000  0.5722480000000 1.0
C      1  0.5887210000000  0.4699020000000  0.5165830000000 1.0
C      1  0.5668620000000  0.4697870000000  0.4362230000000 1.0
C      1  0.4095860000000  0.4978470000000  0.4902190000000 1.0
C      1  0.4340280000000  0.5152450000000  0.5610300000000 1.0
C      1  0.5146230000000  0.4996470000000  0.5842620000000 1.0
C      1  0.5711550000000  0.5030070000000  0.5509400000000 1.0
C      1  0.5810010000000  0.5016560000000  0.4721350000000 1.0
C      1  0.5271190000000  0.5137320000000  0.4170670000000 1.0
C      1  0.4568470000000  0.4950150000000  0.4231620000000 1.0
C      1  0.5520200000000  0.5482450000000  0.4533300000000 1.0
C      1  0.4996320000000  0.5578200000000  0.4307740000000 1.0
C      1  0.4506730000000  0.5553690000000  0.4601870000000 1.0
C      1  0.4263460000000  0.5492390000000  0.5213740000000 1.0
C      1  0.4732370000000  0.5551780000000  0.5566010000000 1.0
C      1  0.5351650000000  0.5421440000000  0.5688490000000 1.0
C      1  0.5590250000000  0.5499530000000  0.5131350000000 1.0
C      1  0.4178160000000  0.5306970000000  0.4870780000000 1.0
C      1  0.4243910000000  0.5421060000000  0.5663580000000 1.0
C      1  0.5029600000000  0.5304170000000  0.5892030000000 1.0
C      1  0.5731340000000  0.5311180000000  0.5623990000000 1.0
C      1  0.5921190000000  0.5287890000000  0.4765960000000 1.0
C      1  0.5349200000000  0.5398770000000  0.4069330000000 1.0
C      1  0.4567040000000  0.5276840000000  0.4137340000000 1.0
C      1  0.4845120000000  0.5218260000000  0.4680400000000 1.0
C      1  0.4655670000000  0.5064190000000  0.4865880000000 1.0
C      1  0.4668470000000  0.5139040000000  0.5197300000000 1.0
C      1  0.4935970000000  0.5071080000000  0.5382150000000 1.0
C      1  0.5231240000000  0.5098200000000  0.5215750000000 1.0
C      1  0.5348050000000  0.5199710000000  0.4912860000000 1.0
C      1  0.5137410000000  0.5133310000000  0.4687250000000 1.0
C      1  0.5273470000000  0.5435560000000  0.5223570000000 1.0
C      1  0.5280930000000  0.5497920000000  0.4763730000000 1.0
C      1  0.5029850000000  0.5635500000000  0.4610900000000 1.0
C      1  0.4786830000000  0.5515680000000  0.4738170000000 1.0
C      1  0.4754910000000  0.5619390000000  0.5009470000000 1.0
C      1  0.4775350000000  0.5449160000000  0.5264700000000 1.0
C      1  0.5064090000000  0.5581940000000  0.5258570000000 1.0
C      1  0.5046430000000  0.4737730000000  0.5694910000000 1.0
C      1  0.5563150000000  0.4774550000000  0.5117210000000 1.0
C      1  0.5679100000000  0.4693350000000  0.4702060000000 1.0
C      1  0.5234220000000  0.4828930000000  0.4309400000000 1.0
C      1  0.4619100000000  0.4734500000000  0.4562150000000 1.0
C      1  0.4347840000000  0.4731140000000  0.5089670000000 1.0
C      1  0.4420290000000  0.4836580000000  0.5509860000000 1.0
C      1  0.5366880000000  0.3952380000000  0.4946690000000 1.0
C      1  0.5240730000000  0.4033010000000  0.4687450000000 1.0
C      1  0.4964370000000  0.4077100000000  0.4720350000000 1.0
C      1  0.4780370000000  0.3926850000000  0.4871530000000 1.0
C      1  0.4777660000000  0.3977440000000  0.5150650000000 1.0
C      1  0.4997410000000  0.3861650000000  0.5286650000000 1.0
C      1  0.5246890000000  0.3980060000000  0.5226790000000 1.0
C      1  0.4666280000000  0.4433260000000  0.4969450000000 1.0
C      1  0.4720880000000  0.4271280000000  0.5223460000000 1.0
C      1  0.4970510000000  0.4397650000000  0.5360220000000 1.0
C      1  0.5257040000000  0.4291640000000  0.5309170000000 1.0
C      1  0.5389480000000  0.4276170000000  0.5003260000000 1.0
C      1  0.5383230000000  0.4230810000000  0.4533070000000 1.0
C      1  0.4909800000000  0.4386130000000  0.4744040000000 1.0
C      1  0.4472930000000  0.4321940000000  0.5413320000000 1.0
C      1  0.4947060000000  0.4352430000000  0.5673490000000 1.0
C      1  0.5471460000000  0.4433890000000  0.5493610000000 1.0
C      1  0.5669470000000  0.4410670000000  0.4995430000000 1.0
C      1  0.5277730000000  0.4373000000000  0.4304030000000 1.0
C      1  0.4750200000000  0.4378990000000  0.4443820000000 1.0
C      1  0.4377500000000  0.4409680000000  0.4859830000000 1.0
C      1  0.4658070000000  0.5543360000000  0.4297310000000 1.0
C      1  0.4331560000000  0.5580540000000  0.4892350000000 1.0
C      1  0.4411690000000  0.5633530000000  0.5485580000000 1.0
C      1  0.5041210000000  0.5559530000000  0.5708700000000 1.0
C      1  0.5569640000000  0.5546090000000  0.5467550000000 1.0
C      1  0.5710090000000  0.5518390000000  0.4813250000000 1.0
C      1  0.5331550000000  0.5634060000000  0.4292880000000 1.0
C      1  0.5000200000000  0.4428090000000  0.4239140000000 1.0
C      1  0.4428880000000  0.4453990000000  0.4534030000000 1.0
C      1  0.4247940000000  0.4417970000000  0.5176700000000 1.0
C      1  0.4611210000000  0.4400800000000  0.5695790000000 1.0
C      1  0.5255640000000  0.4476110000000  0.5753180000000 1.0
C      1  0.5752620000000  0.4424830000000  0.5317230000000 1.0
C      1  0.5589590000000  0.4363780000000  0.4668290000000 1.0
C      1  0.5426290000000  0.4614140000000  0.4257150000000 1.0
C      1  0.4659540000000  0.4635310000000  0.4239440000000 1.0
C      1  0.4231540000000  0.4704390000000  0.4773500000000 1.0
C      1  0.4269430000000  0.4549290000000  0.5550970000000 1.0
C      1  0.4825380000000  0.4588080000000  0.5883520000000 1.0
C      1  0.5548870000000  0.4750340000000  0.5421820000000 1.0
C      1  0.5945160000000  0.4566430000000  0.4871550000000 1.0
C      1  0.4742400000000  0.5933850000000  0.5043120000000 1.0
C      1  0.4744650000000  0.5998070000000  0.5345950000000 1.0
C      1  0.5061600000000  0.5894430000000  0.5279600000000 1.0
C      1  0.5333410000000  0.5915420000000  0.5152690000000 1.0
C      1  0.5287810000000  0.5827030000000  0.4846680000000 1.0
C      1  0.5086280000000  0.5960840000000  0.4646750000000 1.0
C      1  0.4768450000000  0.5938830000000  0.4704120000000 1.0
C      1  0.4951870000000  0.5365010000000  0.4093730000000 1.0
C      1  0.4314360000000  0.5386150000000  0.4424220000000 1.0
C      1  0.3998630000000  0.5314390000000  0.5255790000000 1.0
C      1  0.4617930000000  0.5372800000000  0.5794350000000 1.0
C      1  0.5495440000000  0.5360350000000  0.5965570000000 1.0
C      1  0.5871420000000  0.5325470000000  0.5159350000000 1.0
C      1  0.5723650000000  0.5312270000000  0.4331750000000 1.0
C      1  0.5382970000000  0.5160580000000  0.4473040000000 1.0
C      1  0.4771130000000  0.5171470000000  0.4391510000000 1.0
C      1  0.4378440000000  0.5074910000000  0.4750630000000 1.0
C      1  0.4366370000000  0.5176360000000  0.5294900000000 1.0
C      1  0.4886120000000  0.5103550000000  0.5676620000000 1.0
C      1  0.5393590000000  0.5132910000000  0.5508670000000 1.0
C      1  0.5619000000000  0.5054220000000  0.4971790000000 1.0
C      1  0.4637000000000  0.4804800000000  0.5252090000000 1.0
C      1  0.4953240000000  0.4731940000000  0.5365060000000 1.0
C      1  0.5167550000000  0.4783420000000  0.5103820000000 1.0
C      1  0.5374760000000  0.4769290000000  0.4834160000000 1.0
C      1  0.5162360000000  0.4837290000000  0.4605350000000 1.0
C      1  0.4911040000000  0.4703950000000  0.4662280000000 1.0
C      1  0.4755780000000  0.4759810000000  0.4936680000000 1.0
C      1  0.5544960000000  0.5838510000000  0.5337880000000 1.0
C      1  0.5602050000000  0.5816400000000  0.4918220000000 1.0
C      1  0.5218320000000  0.5929290000000  0.4373850000000 1.0
C      1  0.4660070000000  0.5864700000000  0.4408410000000 1.0
C      1  0.4473470000000  0.5858670000000  0.4856590000000 1.0
C      1  0.4487600000000  0.5940760000000  0.5470760000000 1.0
C      1  0.4968820000000  0.5849490000000  0.5589940000000 1.0
C      1  0.5147230000000  0.4472700000000  0.4969920000000 1.0
END
