TITL C-2622966-9038-342 -0.00117545488986631 125000 -1032.00985309225 0 0 184 (C1) n - 1
REM
REM in /nfs/bkarasulu/CARBON/AIRSS/Generating-Clusters/AIREBO/with-SteepDescent/Higher-Symm/SD-CG/HFTN-CG
REM
REM
REM
REM
REM
REM ./C.cell (b20cbc046b6831c77cfcea5457e17084)
REM
REM compiler GCC version 9.2.1 20190827 (Red Hat 9.2.1-1)
REM options -cpp -mtune=generic -march=x86-64 -g -O0 -fpre-include=/usr/include/finclude/math-vector-fortran.h
REM seed 1550837383 1998440481 513145801 1479663961 -1792031179 -1005571977 -100131643 -535925207 -1061577021 -1022181880 -1332772920 -1775427650 -1299842881 1653446293 -365658751 795651064 -1629567541 -1212575877 -1659105694 1278646104 -266769119 -82900003 -1872288459 1589388035 1853757238 1609384334 231902600 2137902221 452779991 -1196573852 -1247283 -956741185 1588780381
REM
CELL 1.54180   50.00000   50.00000   50.00000   90.00000   90.00000   90.00000
LATT -1
SFAC C  
C      1  0.4025480000000  0.5220040000000  0.5524660000000 1.0
C      1  0.5460460000000  0.5531030000000  0.3835070000000 1.0
C      1  0.5477280000000  0.3918210000000  0.5392320000000 1.0
C      1  0.5983420000000  0.4686430000000  0.5470730000000 1.0
C      1  0.3942070000000  0.4651550000000  0.4497660000000 1.0
C      1  0.6064210000000  0.5246400000000  0.4483980000000 1.0
C      1  0.4707140000000  0.4659460000000  0.3918350000000 1.0
C      1  0.5428500000000  0.4591380000000  0.6221720000000 1.0
C      1  0.4649380000000  0.5544120000000  0.5956510000000 1.0
C      1  0.4512370000000  0.6284270000000  0.5388540000000 1.0
C      1  0.5455160000000  0.5957070000000  0.4791670000000 1.0
C      1  0.4411560000000  0.3984010000000  0.4612800000000 1.0
C      1  0.5293600000000  0.3979550000000  0.5629600000000 1.0
C      1  0.5621270000000  0.5330840000000  0.3942050000000 1.0
C      1  0.4037550000000  0.5427970000000  0.5332690000000 1.0
C      1  0.4671100000000  0.6123980000000  0.5554340000000 1.0
C      1  0.4656040000000  0.4049150000000  0.4454970000000 1.0
C      1  0.5321830000000  0.5898350000000  0.4550140000000 1.0
C      1  0.4577700000000  0.4887630000000  0.4014510000000 1.0
C      1  0.4432090000000  0.5388370000000  0.6011930000000 1.0
C      1  0.5595720000000  0.4747650000000  0.6049930000000 1.0
C      1  0.5954310000000  0.4516760000000  0.5247450000000 1.0
C      1  0.6222330000000  0.5421730000000  0.4633010000000 1.0
C      1  0.3931730000000  0.4438690000000  0.4699430000000 1.0
C      1  0.5880020000000  0.5394570000000  0.5671410000000 1.0
C      1  0.5498180000000  0.5531130000000  0.5942940000000 1.0
C      1  0.5625580000000  0.5862480000000  0.5508870000000 1.0
C      1  0.4190100000000  0.4486620000000  0.5604870000000 1.0
C      1  0.5851560000000  0.4486770000000  0.4486260000000 1.0
C      1  0.4092340000000  0.5377760000000  0.4464770000000 1.0
C      1  0.4670710000000  0.4456620000000  0.5864490000000 1.0
C      1  0.5286520000000  0.4426100000000  0.4077260000000 1.0
C      1  0.4576180000000  0.5595260000000  0.3955650000000 1.0
C      1  0.4513600000000  0.3985660000000  0.5653750000000 1.0
C      1  0.5546920000000  0.4047670000000  0.4537710000000 1.0
C      1  0.4378530000000  0.5791910000000  0.4566870000000 1.0
C      1  0.5369030000000  0.5776490000000  0.5565270000000 1.0
C      1  0.5638230000000  0.5336380000000  0.5795280000000 1.0
C      1  0.5850730000000  0.5621250000000  0.5468540000000 1.0
C      1  0.4757550000000  0.4128200000000  0.5655020000000 1.0
C      1  0.4553250000000  0.5882140000000  0.4340710000000 1.0
C      1  0.5296920000000  0.4135940000000  0.4463720000000 1.0
C      1  0.4420160000000  0.4652050000000  0.5778240000000 1.0
C      1  0.4392320000000  0.5388020000000  0.3954070000000 1.0
C      1  0.5517940000000  0.4587160000000  0.4112680000000 1.0
C      1  0.4261070000000  0.4325790000000  0.5397210000000 1.0
C      1  0.4088840000000  0.5646480000000  0.4507550000000 1.0
C      1  0.5806060000000  0.4227110000000  0.4543290000000 1.0
C      1  0.4556440000000  0.5694250000000  0.4823890000000 1.0
C      1  0.5645320000000  0.4708520000000  0.4639550000000 1.0
C      1  0.4809070000000  0.4516600000000  0.5579390000000 1.0
C      1  0.5358190000000  0.4301110000000  0.4940070000000 1.0
C      1  0.4653230000000  0.4354680000000  0.5104390000000 1.0
C      1  0.5458380000000  0.5543180000000  0.5133240000000 1.0
C      1  0.4311370000000  0.5215600000000  0.4668300000000 1.0
C      1  0.5668240000000  0.5107660000000  0.5390600000000 1.0
C      1  0.4284760000000  0.4957520000000  0.5372470000000 1.0
C      1  0.5057700000000  0.5497170000000  0.5772970000000 1.0
C      1  0.4825610000000  0.5441860000000  0.4391340000000 1.0
C      1  0.5060960000000  0.4611490000000  0.4138960000000 1.0
C      1  0.5634410000000  0.4494790000000  0.4897020000000 1.0
C      1  0.4848300000000  0.5639110000000  0.4667500000000 1.0
C      1  0.4690610000000  0.4814510000000  0.5692690000000 1.0
C      1  0.4218920000000  0.5423440000000  0.4921130000000 1.0
C      1  0.4357870000000  0.4479740000000  0.5145320000000 1.0
C      1  0.5710650000000  0.5420660000000  0.5264770000000 1.0
C      1  0.5142810000000  0.4270840000000  0.4694270000000 1.0
C      1  0.5228290000000  0.5672250000000  0.5320760000000 1.0
C      1  0.4773930000000  0.4273900000000  0.5366260000000 1.0
C      1  0.5426410000000  0.5153990000000  0.5628990000000 1.0
C      1  0.5440850000000  0.4750140000000  0.4378620000000 1.0
C      1  0.4520030000000  0.5295360000000  0.4423100000000 1.0
C      1  0.5249660000000  0.4634630000000  0.5702290000000 1.0
C      1  0.4507660000000  0.5762020000000  0.5212530000000 1.0
C      1  0.5753180000000  0.5252980000000  0.4542910000000 1.0
C      1  0.4749940000000  0.5528910000000  0.5631900000000 1.0
C      1  0.5359770000000  0.5477670000000  0.4239260000000 1.0
C      1  0.4770550000000  0.4472200000000  0.4126420000000 1.0
C      1  0.5421120000000  0.4237160000000  0.5357740000000 1.0
C      1  0.4472400000000  0.4325890000000  0.4671330000000 1.0
C      1  0.5619080000000  0.5739090000000  0.4921260000000 1.0
C      1  0.4245850000000  0.4782750000000  0.4483930000000 1.0
C      1  0.5700020000000  0.4805430000000  0.5543080000000 1.0
C      1  0.4324200000000  0.5165590000000  0.5638620000000 1.0
C      1  0.4474790000000  0.5075720000000  0.5903320000000 1.0
C      1  0.5648690000000  0.4392160000000  0.5220960000000 1.0
C      1  0.5367410000000  0.5635210000000  0.4465270000000 1.0
C      1  0.5549030000000  0.4705390000000  0.5773370000000 1.0
C      1  0.5568700000000  0.5241890000000  0.4266020000000 1.0
C      1  0.4463880000000  0.4913660000000  0.4318070000000 1.0
C      1  0.4356630000000  0.5479230000000  0.5226970000000 1.0
C      1  0.4256150000000  0.4529030000000  0.4710830000000 1.0
C      1  0.5692250000000  0.5418390000000  0.4834110000000 1.0
C      1  0.4627980000000  0.4356570000000  0.4370510000000 1.0
C      1  0.4717650000000  0.5805940000000  0.5446130000000 1.0
C      1  0.5264330000000  0.4317980000000  0.5650350000000 1.0
C      1  0.5420030000000  0.4949230000000  0.4722880000000 1.0
C      1  0.5024560000000  0.4762190000000  0.5481290000000 1.0
C      1  0.4718880000000  0.5486660000000  0.5013760000000 1.0
C      1  0.4521400000000  0.5005400000000  0.4833800000000 1.0
C      1  0.5401690000000  0.5086200000000  0.5209810000000 1.0
C      1  0.4551560000000  0.4974520000000  0.5230840000000 1.0
C      1  0.4900670000000  0.5280570000000  0.5454940000000 1.0
C      1  0.4934850000000  0.5145990000000  0.4531370000000 1.0
C      1  0.5049000000000  0.4693000000000  0.4433810000000 1.0
C      1  0.5309410000000  0.4573880000000  0.5115990000000 1.0
C      1  0.4841460000000  0.4585370000000  0.4986480000000 1.0
C      1  0.5164500000000  0.5407800000000  0.5029790000000 1.0
C      1  0.5028060000000  0.5386630000000  0.4730570000000 1.0
C      1  0.4771410000000  0.4983850000000  0.5432050000000 1.0
C      1  0.5436700000000  0.4840420000000  0.5007710000000 1.0
C      1  0.4962100000000  0.4522240000000  0.4705270000000 1.0
C      1  0.4952410000000  0.5492850000000  0.5234300000000 1.0
C      1  0.5043080000000  0.4645710000000  0.5189820000000 1.0
C      1  0.5165560000000  0.5071290000000  0.5431370000000 1.0
C      1  0.5198220000000  0.4958520000000  0.4496230000000 1.0
C      1  0.4679750000000  0.4957780000000  0.4564850000000 1.0
C      1  0.4542290000000  0.5241480000000  0.5069860000000 1.0
C      1  0.4556560000000  0.4733010000000  0.5031780000000 1.0
C      1  0.5420800000000  0.5223500000000  0.4897020000000 1.0
C      1  0.3892420000000  0.4996700000000  0.5419750000000 1.0
C      1  0.5198580000000  0.5595870000000  0.3897140000000 1.0
C      1  0.5395290000000  0.3778430000000  0.5144400000000 1.0
C      1  0.6043760000000  0.4977430000000  0.5432820000000 1.0
C      1  0.3759650000000  0.4886260000000  0.4497390000000 1.0
C      1  0.6119140000000  0.4964820000000  0.4415830000000 1.0
C      1  0.4950310000000  0.4732980000000  0.3775840000000 1.0
C      1  0.5160430000000  0.4661300000000  0.6194140000000 1.0
C      1  0.4866960000000  0.5481560000000  0.6120650000000 1.0
C      1  0.4484630000000  0.6247610000000  0.5117020000000 1.0
C      1  0.5298220000000  0.6116640000000  0.4964220000000 1.0
C      1  0.4449680000000  0.3862430000000  0.4882740000000 1.0
C      1  0.5041370000000  0.3868830000000  0.5547190000000 1.0
C      1  0.5656060000000  0.5031390000000  0.3940150000000 1.0
C      1  0.3873600000000  0.5377600000000  0.5113130000000 1.0
C      1  0.4965830000000  0.6098680000000  0.5547150000000 1.0
C      1  0.4889690000000  0.3963380000000  0.4563980000000 1.0
C      1  0.5050070000000  0.5990740000000  0.4545470000000 1.0
C      1  0.4706790000000  0.5122160000000  0.3920500000000 1.0
C      1  0.4298720000000  0.5160730000000  0.6183320000000 1.0
C      1  0.5562740000000  0.5029430000000  0.6105000000000 1.0
C      1  0.6065300000000  0.4626370000000  0.5010440000000 1.0
C      1  0.6193440000000  0.5453190000000  0.4904500000000 1.0
C      1  0.3831500000000  0.4430580000000  0.4972940000000 1.0
C      1  0.4860730000000  0.5947530000000  0.4812770000000 1.0
C      1  0.5994560000000  0.4878030000000  0.4931000000000 1.0
C      1  0.4803340000000  0.4990200000000  0.5923880000000 1.0
C      1  0.4981370000000  0.4048730000000  0.4872120000000 1.0
C      1  0.4958970000000  0.4015290000000  0.5329740000000 1.0
C      1  0.5011980000000  0.5890770000000  0.5294720000000 1.0
C      1  0.4019400000000  0.5141780000000  0.4930300000000 1.0
C      1  0.5933760000000  0.5355280000000  0.5032910000000 1.0
C      1  0.4108000000000  0.4626170000000  0.5003620000000 1.0
C      1  0.5318390000000  0.5106250000000  0.5924520000000 1.0
C      1  0.4966380000000  0.5161540000000  0.3991850000000 1.0
C      1  0.5404190000000  0.4968710000000  0.4144640000000 1.0
C      1  0.5878300000000  0.4938140000000  0.4654440000000 1.0
C      1  0.4566040000000  0.5983160000000  0.4978920000000 1.0
C      1  0.5106290000000  0.4840490000000  0.5933830000000 1.0
C      1  0.4043140000000  0.5008450000000  0.4639970000000 1.0
C      1  0.4054530000000  0.4902420000000  0.5136120000000 1.0
C      1  0.5919490000000  0.5065380000000  0.5155880000000 1.0
C      1  0.5207790000000  0.4061680000000  0.5128900000000 1.0
C      1  0.5050710000000  0.6031380000000  0.5037840000000 1.0
C      1  0.4654170000000  0.4134110000000  0.4889520000000 1.0
C      1  0.5028980000000  0.5230000000000  0.5978010000000 1.0
C      1  0.5139370000000  0.4909530000000  0.3993970000000 1.0
C      1  0.5052540000000  0.5412520000000  0.4138330000000 1.0
C      1  0.6063860000000  0.5188660000000  0.5616410000000 1.0
C      1  0.5645510000000  0.4154550000000  0.4832180000000 1.0
C      1  0.4157130000000  0.5706880000000  0.4809940000000 1.0
C      1  0.4175870000000  0.4797210000000  0.5619140000000 1.0
C      1  0.5688260000000  0.4735900000000  0.3943220000000 1.0
C      1  0.4395350000000  0.5207410000000  0.4162810000000 1.0
C      1  0.4988670000000  0.4180130000000  0.5791580000000 1.0
C      1  0.4679690000000  0.5684150000000  0.4202440000000 1.0
C      1  0.5741590000000  0.5814950000000  0.5208600000000 1.0
C      1  0.5286750000000  0.5648480000000  0.5796260000000 1.0
C      1  0.4318900000000  0.4060400000000  0.5468510000000 1.0
C      1  0.5254390000000  0.4174400000000  0.4191800000000 1.0
C      1  0.5580070000000  0.4707590000000  0.5273010000000 1.0
C      1  0.4469880000000  0.5404120000000  0.5521000000000 1.0
C      1  0.5329750000000  0.5464010000000  0.4674580000000 1.0
C      1  0.4731930000000  0.4641990000000  0.4502880000000 1.0
END
