TITL C-2622954-8726-92 0.000890753497307404 125000 -982.931124004203 0 0 185 (C1) n - 1
REM
REM in /nfs/bkarasulu/CARBON/AIRSS/Generating-Clusters/AIREBO/with-SteepDescent/Higher-Symm/SD-CG/HFTN-CG
REM
REM
REM
REM
REM
REM ./C.cell (b20cbc046b6831c77cfcea5457e17084)
REM
REM compiler GCC version 9.2.1 20190827 (Red Hat 9.2.1-1)
REM options -cpp -mtune=generic -march=x86-64 -g -O0 -fpre-include=/usr/include/finclude/math-vector-fortran.h
REM seed -738666450 1927016447 1717847568 -206302529 -1758688360 1391951027 663983428 -518531087 -1855341955 -1340727081 -2132615438 -662581511 -1025444577 1593967419 1920756749 -1279612486 121555304 -1179901225 1258978680 -657946497 -990838286 1340897981 -473623067 -1963721095 1245371546 -42933086 -939018664 666165818 206926653 853758500 -1190701651 -1878604807 1825509993
REM
CELL 1.54180   50.00000   50.00000   50.00000   90.00000   90.00000   90.00000
LATT -1
SFAC C  
C      1  0.4348790000000  0.5669180000000  0.5005360000000 1.0
C      1  0.5525210000000  0.5907050000000  0.5135140000000 1.0
C      1  0.6007630000000  0.4909440000000  0.4993130000000 1.0
C      1  0.5250890000000  0.3915400000000  0.4780570000000 1.0
C      1  0.4184670000000  0.4572630000000  0.5107100000000 1.0
C      1  0.4249900000000  0.4298370000000  0.4916190000000 1.0
C      1  0.5422100000000  0.4144610000000  0.4866240000000 1.0
C      1  0.6017250000000  0.5216990000000  0.4889610000000 1.0
C      1  0.5219990000000  0.5992610000000  0.5040980000000 1.0
C      1  0.4108690000000  0.5447220000000  0.4911310000000 1.0
C      1  0.4690070000000  0.5819820000000  0.4850560000000 1.0
C      1  0.5662190000000  0.5597880000000  0.4873410000000 1.0
C      1  0.5774820000000  0.4554370000000  0.4953810000000 1.0
C      1  0.4757310000000  0.4180240000000  0.4808160000000 1.0
C      1  0.4147930000000  0.4907990000000  0.4892550000000 1.0
C      1  0.4666810000000  0.4121070000000  0.5130710000000 1.0
C      1  0.5798090000000  0.4328880000000  0.5157470000000 1.0
C      1  0.5763620000000  0.5428840000000  0.5150540000000 1.0
C      1  0.4836740000000  0.5899740000000  0.5146770000000 1.0
C      1  0.4239740000000  0.5095820000000  0.5160760000000 1.0
C      1  0.6026540000000  0.4701860000000  0.4791590000000 1.0
C      1  0.4956350000000  0.3951040000000  0.4654830000000 1.0
C      1  0.4002440000000  0.4604330000000  0.4845050000000 1.0
C      1  0.4381830000000  0.5825290000000  0.4706900000000 1.0
C      1  0.5491390000000  0.5870530000000  0.4802640000000 1.0
C      1  0.6000110000000  0.5213640000000  0.5227820000000 1.0
C      1  0.5062930000000  0.6109260000000  0.5255340000000 1.0
C      1  0.3893970000000  0.5284400000000  0.5091930000000 1.0
C      1  0.4327110000000  0.4113920000000  0.5143470000000 1.0
C      1  0.5564910000000  0.4103390000000  0.5125010000000 1.0
C      1  0.5954330000000  0.4786130000000  0.4532390000000 1.0
C      1  0.5228690000000  0.3911940000000  0.4458230000000 1.0
C      1  0.4016440000000  0.4525520000000  0.4565570000000 1.0
C      1  0.4243610000000  0.5605950000000  0.4563330000000 1.0
C      1  0.5348050000000  0.5834350000000  0.4547280000000 1.0
C      1  0.5905100000000  0.5094950000000  0.5484430000000 1.0
C      1  0.5188580000000  0.6153430000000  0.5491450000000 1.0
C      1  0.4095270000000  0.5363910000000  0.5312880000000 1.0
C      1  0.4406730000000  0.4227660000000  0.5422480000000 1.0
C      1  0.5412470000000  0.4069160000000  0.5360340000000 1.0
C      1  0.5356150000000  0.4820660000000  0.4027270000000 1.0
C      1  0.4812280000000  0.4529910000000  0.4004980000000 1.0
C      1  0.4572710000000  0.5014870000000  0.4088610000000 1.0
C      1  0.4907880000000  0.5401330000000  0.4025120000000 1.0
C      1  0.5406100000000  0.5335500000000  0.3974980000000 1.0
C      1  0.5432210000000  0.5209780000000  0.6036850000000 1.0
C      1  0.4911650000000  0.5552570000000  0.5972940000000 1.0
C      1  0.4576360000000  0.5044550000000  0.6077510000000 1.0
C      1  0.4921150000000  0.4590030000000  0.5988800000000 1.0
C      1  0.5191540000000  0.4692690000000  0.6097350000000 1.0
C      1  0.4768570000000  0.5028490000000  0.4313230000000 1.0
C      1  0.4984780000000  0.5230280000000  0.4255260000000 1.0
C      1  0.5209890000000  0.5119460000000  0.4049440000000 1.0
C      1  0.5120350000000  0.4855560000000  0.4238200000000 1.0
C      1  0.4843370000000  0.4738520000000  0.4182710000000 1.0
C      1  0.4780860000000  0.5066870000000  0.5851060000000 1.0
C      1  0.4965890000000  0.4836920000000  0.5800580000000 1.0
C      1  0.5230430000000  0.4960080000000  0.5924860000000 1.0
C      1  0.5258550000000  0.5222270000000  0.5740960000000 1.0
C      1  0.4967280000000  0.5310820000000  0.5847810000000 1.0
C      1  0.5146700000000  0.4846400000000  0.4546120000000 1.0
C      1  0.4848770000000  0.4684490000000  0.4518420000000 1.0
C      1  0.4676930000000  0.5099350000000  0.4601200000000 1.0
C      1  0.4948420000000  0.5304060000000  0.4590880000000 1.0
C      1  0.5237320000000  0.5147510000000  0.4679500000000 1.0
C      1  0.5251720000000  0.5204330000000  0.5401480000000 1.0
C      1  0.4920750000000  0.5201640000000  0.5529170000000 1.0
C      1  0.4755830000000  0.4987880000000  0.5346750000000 1.0
C      1  0.4990290000000  0.4794430000000  0.5500620000000 1.0
C      1  0.5289230000000  0.4866930000000  0.5380800000000 1.0
C      1  0.4309010000000  0.4922520000000  0.4170420000000 1.0
C      1  0.4704630000000  0.5603960000000  0.4091590000000 1.0
C      1  0.5567540000000  0.5401820000000  0.4205100000000 1.0
C      1  0.5575390000000  0.4683250000000  0.4175300000000 1.0
C      1  0.4840340000000  0.4275190000000  0.4154720000000 1.0
C      1  0.4400480000000  0.5051130000000  0.5822770000000 1.0
C      1  0.4723090000000  0.4396750000000  0.5866890000000 1.0
C      1  0.5402610000000  0.4599490000000  0.5916560000000 1.0
C      1  0.5572650000000  0.5443960000000  0.5834280000000 1.0
C      1  0.4780600000000  0.5736710000000  0.5783740000000 1.0
C      1  0.4066660000000  0.5318190000000  0.4597610000000 1.0
C      1  0.4918340000000  0.6008090000000  0.4372240000000 1.0
C      1  0.5936600000000  0.5303920000000  0.4604760000000 1.0
C      1  0.5632800000000  0.4184540000000  0.4631760000000 1.0
C      1  0.4399740000000  0.4192950000000  0.4629530000000 1.0
C      1  0.4068400000000  0.4655590000000  0.5389550000000 1.0
C      1  0.4985400000000  0.4000630000000  0.5568470000000 1.0
C      1  0.5821270000000  0.4619870000000  0.5609420000000 1.0
C      1  0.5587720000000  0.5805450000000  0.5421900000000 1.0
C      1  0.4373790000000  0.5760750000000  0.5327110000000 1.0
C      1  0.5422810000000  0.4342160000000  0.5493540000000 1.0
C      1  0.4643620000000  0.4437970000000  0.5538780000000 1.0
C      1  0.4388340000000  0.5186150000000  0.5518410000000 1.0
C      1  0.4957290000000  0.5741990000000  0.5493290000000 1.0
C      1  0.5837330000000  0.5351270000000  0.5663650000000 1.0
C      1  0.5585870000000  0.5675890000000  0.4376070000000 1.0
C      1  0.4621090000000  0.5616810000000  0.4415150000000 1.0
C      1  0.4243470000000  0.4748310000000  0.4455010000000 1.0
C      1  0.4960820000000  0.4301940000000  0.4465760000000 1.0
C      1  0.5641440000000  0.4735910000000  0.4489840000000 1.0
C      1  0.4068950000000  0.5480110000000  0.4298600000000 1.0
C      1  0.5172440000000  0.6087820000000  0.4463870000000 1.0
C      1  0.6006550000000  0.5080810000000  0.4389820000000 1.0
C      1  0.5461390000000  0.4113160000000  0.4368540000000 1.0
C      1  0.4244860000000  0.4351020000000  0.4411790000000 1.0
C      1  0.4247350000000  0.4468970000000  0.5577410000000 1.0
C      1  0.5215730000000  0.3902900000000  0.5469450000000 1.0
C      1  0.6018850000000  0.4800870000000  0.5550900000000 1.0
C      1  0.5403800000000  0.5956390000000  0.5641080000000 1.0
C      1  0.4231180000000  0.5552100000000  0.5501790000000 1.0
C      1  0.5729020000000  0.5579510000000  0.5447210000000 1.0
C      1  0.5716620000000  0.4422510000000  0.5443720000000 1.0
C      1  0.4731210000000  0.4125830000000  0.5455420000000 1.0
C      1  0.4140420000000  0.4967930000000  0.5437160000000 1.0
C      1  0.4661070000000  0.5892370000000  0.5438250000000 1.0
C      1  0.5730160000000  0.4474880000000  0.4648190000000 1.0
C      1  0.5771000000000  0.5509340000000  0.4582040000000 1.0
C      1  0.4668200000000  0.5906790000000  0.4524500000000 1.0
C      1  0.4094220000000  0.5023240000000  0.4589320000000 1.0
C      1  0.4693090000000  0.4093260000000  0.4485750000000 1.0
C      1  0.3865900000000  0.5004860000000  0.5055970000000 1.0
C      1  0.4567670000000  0.6137400000000  0.4874020000000 1.0
C      1  0.5935340000000  0.5805400000000  0.4895330000000 1.0
C      1  0.5865530000000  0.4015310000000  0.4766300000000 1.0
C      1  0.4523900000000  0.3932820000000  0.4809110000000 1.0
C      1  0.3811320000000  0.4826580000000  0.5259400000000 1.0
C      1  0.4688510000000  0.3789860000000  0.5033750000000 1.0
C      1  0.5943480000000  0.4081270000000  0.4999710000000 1.0
C      1  0.6005700000000  0.5665870000000  0.5121550000000 1.0
C      1  0.4516910000000  0.6015210000000  0.5152840000000 1.0
C      1  0.5280240000000  0.4639750000000  0.5129110000000 1.0
C      1  0.4726220000000  0.4454090000000  0.5095930000000 1.0
C      1  0.4542130000000  0.5135150000000  0.5127090000000 1.0
C      1  0.4947410000000  0.5578660000000  0.5129560000000 1.0
C      1  0.5493650000000  0.5218730000000  0.5162460000000 1.0
C      1  0.5375090000000  0.5418470000000  0.4839910000000 1.0
C      1  0.4751410000000  0.5488640000000  0.4797950000000 1.0
C      1  0.4476570000000  0.4913710000000  0.4804860000000 1.0
C      1  0.4880440000000  0.4498400000000  0.4801330000000 1.0
C      1  0.5530310000000  0.4774970000000  0.4974630000000 1.0
C      1  0.5222090000000  0.5542950000000  0.5412400000000 1.0
C      1  0.5611300000000  0.4925170000000  0.5461650000000 1.0
C      1  0.5115970000000  0.4487870000000  0.5458970000000 1.0
C      1  0.4594230000000  0.4720620000000  0.5410430000000 1.0
C      1  0.4650680000000  0.5376350000000  0.5418840000000 1.0
C      1  0.5204940000000  0.4512570000000  0.4574120000000 1.0
C      1  0.5553330000000  0.5039290000000  0.4615770000000 1.0
C      1  0.5091850000000  0.5611500000000  0.4566810000000 1.0
C      1  0.4461560000000  0.5345590000000  0.4544110000000 1.0
C      1  0.4524770000000  0.4593290000000  0.4566690000000 1.0
C      1  0.5342300000000  0.5620760000000  0.5111490000000 1.0
C      1  0.5745300000000  0.4909230000000  0.5168940000000 1.0
C      1  0.5039800000000  0.4400570000000  0.5153560000000 1.0
C      1  0.4458120000000  0.4745330000000  0.5099840000000 1.0
C      1  0.4625990000000  0.5524500000000  0.5112250000000 1.0
C      1  0.5260580000000  0.4404100000000  0.4884550000000 1.0
C      1  0.5688770000000  0.5129470000000  0.4898160000000 1.0
C      1  0.5120390000000  0.5723440000000  0.4875160000000 1.0
C      1  0.4403920000000  0.5303270000000  0.4865640000000 1.0
C      1  0.4488490000000  0.4508600000000  0.4858590000000 1.0
C      1  0.4282810000000  0.5213390000000  0.4278070000000 1.0
C      1  0.4977140000000  0.5714220000000  0.4262850000000 1.0
C      1  0.5680570000000  0.5160470000000  0.4334930000000 1.0
C      1  0.5423580000000  0.4445480000000  0.4322110000000 1.0
C      1  0.4554490000000  0.4407800000000  0.4283200000000 1.0
C      1  0.4390480000000  0.4767970000000  0.5675700000000 1.0
C      1  0.4998200000000  0.4291050000000  0.5702650000000 1.0
C      1  0.5597500000000  0.4778800000000  0.5768350000000 1.0
C      1  0.5377660000000  0.5620390000000  0.5705290000000 1.0
C      1  0.4534210000000  0.5580200000000  0.5653680000000 1.0
C      1  0.5821120000000  0.4895700000000  0.4173090000000 1.0
C      1  0.5174400000000  0.4233950000000  0.4228410000000 1.0
C      1  0.4280020000000  0.4580850000000  0.4161290000000 1.0
C      1  0.4389650000000  0.5525320000000  0.4195030000000 1.0
C      1  0.5298670000000  0.5656660000000  0.4195070000000 1.0
C      1  0.5657040000000  0.5102480000000  0.5816010000000 1.0
C      1  0.5114830000000  0.5827490000000  0.5765550000000 1.0
C      1  0.4292250000000  0.5374070000000  0.5784980000000 1.0
C      1  0.4418390000000  0.4490280000000  0.5864130000000 1.0
C      1  0.5313950000000  0.4369830000000  0.5783770000000 1.0
C      1  0.4818180000000  0.5212750000000  0.4957740000000 1.0
C      1  0.5048060000000  0.4767720000000  0.4924430000000 1.0
C      1  0.4783560000000  0.4897800000000  0.4926230000000 1.0
C      1  0.5115470000000  0.5303360000000  0.5026890000000 1.0
C      1  0.5287210000000  0.5012450000000  0.4987600000000 1.0
END
