TITL C-2622955-8511-549 0.000280679174358429 125000 -532.693029154777 0 0 97 (C1) n - 1
REM
REM in /nfs/bkarasulu/CARBON/AIRSS/Generating-Clusters/AIREBO/with-SteepDescent/Higher-Symm/SD-CG/HFTN-CG
REM
REM
REM
REM
REM
REM ./C.cell (b20cbc046b6831c77cfcea5457e17084)
REM
REM compiler GCC version 9.2.1 20190827 (Red Hat 9.2.1-1)
REM options -cpp -mtune=generic -march=x86-64 -g -O0 -fpre-include=/usr/include/finclude/math-vector-fortran.h
REM seed 739124252 -457167226 -1665373476 278845769 -601460851 113798872 -1403009896 -1623273506 -1744147138 -401336824 135169475 529066087 389015528 -221429720 1596272871 -218197764 -14437380 -803821346 1982361001 -1188240515 -1118157285 735013489 2129508154 2036788391 -1244045883 531387598 -791518948 1013356690 -1936403469 1577588700 1382197150 -2128615618 878334215
REM
CELL 1.54180   50.00000   50.00000   50.00000   90.00000   90.00000   90.00000
LATT -1
SFAC C  
C      1  0.5221540000000  0.5241030000000  0.5098810000000 1.0
C      1  0.5099320000000  0.4781920000000  0.5130810000000 1.0
C      1  0.4674440000000  0.5056780000000  0.5039120000000 1.0
C      1  0.4724060000000  0.4228720000000  0.5453220000000 1.0
C      1  0.4487530000000  0.5578310000000  0.5445150000000 1.0
C      1  0.5798080000000  0.5140750000000  0.5493120000000 1.0
C      1  0.5245460000000  0.5531410000000  0.4720660000000 1.0
C      1  0.5348580000000  0.4498320000000  0.4752760000000 1.0
C      1  0.4409040000000  0.4949580000000  0.4719690000000 1.0
C      1  0.5122570000000  0.4384890000000  0.5365570000000 1.0
C      1  0.4405580000000  0.5186030000000  0.5389660000000 1.0
C      1  0.5514520000000  0.5424950000000  0.5433580000000 1.0
C      1  0.4995080000000  0.4669480000000  0.4827320000000 1.0
C      1  0.4746710000000  0.5161240000000  0.4742510000000 1.0
C      1  0.5306830000000  0.5143530000000  0.4788700000000 1.0
C      1  0.5958460000000  0.4894120000000  0.4918210000000 1.0
C      1  0.4298880000000  0.4231340000000  0.4979650000000 1.0
C      1  0.4684140000000  0.5917710000000  0.4953280000000 1.0
C      1  0.5329380000000  0.4996910000000  0.5611170000000 1.0
C      1  0.4873720000000  0.4709730000000  0.5603480000000 1.0
C      1  0.4872030000000  0.5221120000000  0.5518750000000 1.0
C      1  0.5765420000000  0.5114300000000  0.5208120000000 1.0
C      1  0.4776380000000  0.4299300000000  0.5184770000000 1.0
C      1  0.4524480000000  0.5583750000000  0.5154460000000 1.0
C      1  0.4690090000000  0.5300080000000  0.5242340000000 1.0
C      1  0.5441930000000  0.5115480000000  0.5312860000000 1.0
C      1  0.4879590000000  0.4606770000000  0.5279450000000 1.0
C      1  0.4719090000000  0.5514520000000  0.5597990000000 1.0
C      1  0.5644770000000  0.4964130000000  0.5649860000000 1.0
C      1  0.4680130000000  0.4445870000000  0.5631420000000 1.0
C      1  0.4553410000000  0.5266220000000  0.4511150000000 1.0
C      1  0.5472730000000  0.5272030000000  0.4521110000000 1.0
C      1  0.4966230000000  0.4455910000000  0.4564330000000 1.0
C      1  0.5302970000000  0.4507130000000  0.5543280000000 1.0
C      1  0.4457960000000  0.4981170000000  0.5572990000000 1.0
C      1  0.5294130000000  0.5484700000000  0.5596680000000 1.0
C      1  0.4416070000000  0.5542430000000  0.4582110000000 1.0
C      1  0.5622960000000  0.5388210000000  0.4780970000000 1.0
C      1  0.4774830000000  0.4224470000000  0.4660810000000 1.0
C      1  0.5069560000000  0.5319030000000  0.4188910000000 1.0
C      1  0.5279800000000  0.4777570000000  0.4230850000000 1.0
C      1  0.4723710000000  0.4844820000000  0.4212810000000 1.0
C      1  0.4286120000000  0.4990920000000  0.4958170000000 1.0
C      1  0.5412170000000  0.5566830000000  0.4967100000000 1.0
C      1  0.5407330000000  0.4398840000000  0.5002910000000 1.0
C      1  0.5243590000000  0.4474120000000  0.4368470000000 1.0
C      1  0.4444770000000  0.4992490000000  0.4342210000000 1.0
C      1  0.5320610000000  0.5494940000000  0.4331620000000 1.0
C      1  0.5733230000000  0.4539200000000  0.4656850000000 1.0
C      1  0.4234010000000  0.4591460000000  0.4705530000000 1.0
C      1  0.5026340000000  0.5858200000000  0.4670600000000 1.0
C      1  0.5724100000000  0.4692630000000  0.5644050000000 1.0
C      1  0.4410660000000  0.4520530000000  0.5663880000000 1.0
C      1  0.4899710000000  0.5728360000000  0.5626340000000 1.0
C      1  0.4816230000000  0.5498120000000  0.4318880000000 1.0
C      1  0.5551590000000  0.4914240000000  0.4364770000000 1.0
C      1  0.4587150000000  0.4576090000000  0.4329110000000 1.0
C      1  0.4557450000000  0.4218080000000  0.4860180000000 1.0
C      1  0.4526930000000  0.5697450000000  0.4777950000000 1.0
C      1  0.5848910000000  0.5177230000000  0.4826950000000 1.0
C      1  0.5263170000000  0.4816100000000  0.4708100000000 1.0
C      1  0.4732470000000  0.4845890000000  0.4707440000000 1.0
C      1  0.5015150000000  0.5299530000000  0.4709930000000 1.0
C      1  0.5599300000000  0.4824490000000  0.4657570000000 1.0
C      1  0.4543430000000  0.4582470000000  0.4639330000000 1.0
C      1  0.4868980000000  0.5586350000000  0.4604810000000 1.0
C      1  0.5182070000000  0.5733040000000  0.5157250000000 1.0
C      1  0.5618540000000  0.4569550000000  0.5158680000000 1.0
C      1  0.4267750000000  0.4731690000000  0.5177520000000 1.0
C      1  0.5251140000000  0.5741400000000  0.4485410000000 1.0
C      1  0.5510370000000  0.4378410000000  0.4516830000000 1.0
C      1  0.4230370000000  0.4817610000000  0.4486090000000 1.0
C      1  0.5142120000000  0.5698550000000  0.5493270000000 1.0
C      1  0.5576690000000  0.4527130000000  0.5469650000000 1.0
C      1  0.4328960000000  0.4739000000000  0.5511910000000 1.0
C      1  0.5287470000000  0.5107640000000  0.4291160000000 1.0
C      1  0.4972690000000  0.4673050000000  0.4302500000000 1.0
C      1  0.4779240000000  0.5164860000000  0.4278000000000 1.0
C      1  0.5407780000000  0.4809860000000  0.5161490000000 1.0
C      1  0.4604840000000  0.4758000000000  0.5141010000000 1.0
C      1  0.4989090000000  0.5453500000000  0.5140930000000 1.0
C      1  0.5156220000000  0.5249700000000  0.5665170000000 1.0
C      1  0.5180030000000  0.4731730000000  0.5663240000000 1.0
C      1  0.4725980000000  0.4972220000000  0.5644220000000 1.0
C      1  0.5555530000000  0.5623040000000  0.5245140000000 1.0
C      1  0.5243480000000  0.4235350000000  0.5159360000000 1.0
C      1  0.4195060000000  0.5122860000000  0.5213950000000 1.0
C      1  0.4982240000000  0.5913360000000  0.4947790000000 1.0
C      1  0.5828140000000  0.4634680000000  0.4925030000000 1.0
C      1  0.4185260000000  0.4495780000000  0.4964010000000 1.0
C      1  0.3985360000000  0.4897690000000  0.5285010000000 1.0
C      1  0.5450310000000  0.5912840000000  0.5263980000000 1.0
C      1  0.5217780000000  0.3971300000000  0.5113920000000 1.0
C      1  0.5577550000000  0.5009380000000  0.4944750000000 1.0
C      1  0.4710410000000  0.4513830000000  0.4929220000000 1.0
C      1  0.4769810000000  0.5529740000000  0.4925270000000 1.0
C      1  0.5011350000000  0.5062560000000  0.5252090000000 1.0
END
