TITL C-2622955-8511-156 2.70255168517182e-06 125000 -52.3521548108856 0 0 10 (C1) n - 1
REM
REM in /nfs/bkarasulu/CARBON/AIRSS/Generating-Clusters/AIREBO/with-SteepDescent/Higher-Symm/SD-CG/HFTN-CG
REM
REM
REM
REM
REM
REM ./C.cell (b20cbc046b6831c77cfcea5457e17084)
REM
REM compiler GCC version 9.2.1 20190827 (Red Hat 9.2.1-1)
REM options -cpp -mtune=generic -march=x86-64 -g -O0 -fpre-include=/usr/include/finclude/math-vector-fortran.h
REM seed 1803595796 1671125918 -1205907524 -1065774580 -1717024196 -465184898 -184154679 1396368684 473168409 2075667184 2009346392 -1602547517 -1043175249 1151532037 932010152 -1719446954 -828346658 -1941682792 1540781386 -1408850376 1884755472 -2115350692 -2067045546 1105787789 1073932126 1528929963 309132741 1750318928 -674895771 -1682044393 -1201401396 214762477 1958511685
REM
CELL 1.54180   50.00000   50.00000   50.00000   90.00000   90.00000   90.00000
LATT -1
SFAC C  
C      1  0.5280920000000  0.4973630000000  0.4753720000000 1.0
C      1  0.4719080000000  0.4833920000000  0.5165650000000 1.0
C      1  0.5275830000000  0.5014210000000  0.5234210000000 1.0
C      1  0.4724550000000  0.5152760000000  0.4803920000000 1.0
C      1  0.5412200000000  0.4979450000000  0.4526920000000 1.0
C      1  0.4597970000000  0.5319610000000  0.4646310000000 1.0
C      1  0.5401970000000  0.5006730000000  0.5463860000000 1.0
C      1  0.4587360000000  0.4700450000000  0.5348790000000 1.0
C      1  0.4858540000000  0.4996190000000  0.4989370000000 1.0
C      1  0.5141580000000  0.4994800000000  0.4992440000000 1.0
END
