TITL C-2622956-4641-471 -0.000607131016223565 125000 -574.672445194541 0 0 105 (C1) n - 1
REM
REM in /nfs/bkarasulu/CARBON/AIRSS/Generating-Clusters/AIREBO/with-SteepDescent/Higher-Symm/SD-CG/HFTN-CG
REM
REM
REM
REM
REM
REM ./C.cell (b20cbc046b6831c77cfcea5457e17084)
REM
REM compiler GCC version 9.2.1 20190827 (Red Hat 9.2.1-1)
REM options -cpp -mtune=generic -march=x86-64 -g -O0 -fpre-include=/usr/include/finclude/math-vector-fortran.h
REM seed -1691759094 358565698 1094655977 920697617 888277668 -116672903 1575747974 1924674400 -1196399443 487437676 -1520502937 -1401476353 -136497441 -695453408 -337632811 733990246 1462213380 709698191 966065715 -1533359451 -1243133200 -1574916302 696657989 -1696330374 919400061 704908129 1597224990 -1609824419 -938576002 253138123 1431184146 538039183 1158683614
REM
CELL 1.54180   50.00000   50.00000   50.00000   90.00000   90.00000   90.00000
LATT -1
SFAC C  
C      1  0.4679150000000  0.5154180000000  0.5496650000000 1.0
C      1  0.4734980000000  0.5170220000000  0.4478760000000 1.0
C      1  0.5571940000000  0.5122120000000  0.5074520000000 1.0
C      1  0.4682900000000  0.4806280000000  0.5481230000000 1.0
C      1  0.4727970000000  0.4823240000000  0.4492650000000 1.0
C      1  0.5603650000000  0.4807820000000  0.5044800000000 1.0
C      1  0.5142670000000  0.5166370000000  0.5251040000000 1.0
C      1  0.4718470000000  0.5179820000000  0.5004490000000 1.0
C      1  0.5157970000000  0.5170750000000  0.4759460000000 1.0
C      1  0.5132290000000  0.4855210000000  0.5242850000000 1.0
C      1  0.4711030000000  0.4886050000000  0.5012100000000 1.0
C      1  0.5152950000000  0.4854210000000  0.4770920000000 1.0
C      1  0.4659520000000  0.4288820000000  0.5430620000000 1.0
C      1  0.4792080000000  0.4308490000000  0.4507100000000 1.0
C      1  0.5514180000000  0.4313610000000  0.5068500000000 1.0
C      1  0.4644560000000  0.5645510000000  0.5444900000000 1.0
C      1  0.4788510000000  0.5672900000000  0.4482240000000 1.0
C      1  0.5580470000000  0.5643460000000  0.5082990000000 1.0
C      1  0.5289450000000  0.4432300000000  0.4454460000000 1.0
C      1  0.5312530000000  0.4433020000000  0.5550840000000 1.0
C      1  0.4382530000000  0.4438040000000  0.5011490000000 1.0
C      1  0.5304170000000  0.5578880000000  0.4484100000000 1.0
C      1  0.5299190000000  0.5612170000000  0.5517790000000 1.0
C      1  0.4398610000000  0.5607210000000  0.5008000000000 1.0
C      1  0.4379640000000  0.5132810000000  0.5656420000000 1.0
C      1  0.4751610000000  0.5150700000000  0.4139600000000 1.0
C      1  0.5824180000000  0.5329290000000  0.5116440000000 1.0
C      1  0.4395260000000  0.4828190000000  0.5661410000000 1.0
C      1  0.4734860000000  0.4847150000000  0.4153460000000 1.0
C      1  0.5898830000000  0.4769530000000  0.5209230000000 1.0
C      1  0.5460370000000  0.4764870000000  0.4656160000000 1.0
C      1  0.5069400000000  0.4750280000000  0.5560200000000 1.0
C      1  0.4477730000000  0.4761640000000  0.4798120000000 1.0
C      1  0.5469770000000  0.5253830000000  0.4651850000000 1.0
C      1  0.5070130000000  0.5239280000000  0.5575150000000 1.0
C      1  0.4476640000000  0.5245250000000  0.4774600000000 1.0
C      1  0.5550990000000  0.4391830000000  0.5341620000000 1.0
C      1  0.4411460000000  0.4387240000000  0.5328490000000 1.0
C      1  0.4999690000000  0.4403930000000  0.4338130000000 1.0
C      1  0.5529410000000  0.5551390000000  0.5333930000000 1.0
C      1  0.4433550000000  0.5546510000000  0.5298440000000 1.0
C      1  0.5024260000000  0.5574420000000  0.4362190000000 1.0
C      1  0.5671740000000  0.5453530000000  0.4839040000000 1.0
C      1  0.4801930000000  0.5440540000000  0.5633160000000 1.0
C      1  0.4554420000000  0.5455670000000  0.4518670000000 1.0
C      1  0.5633230000000  0.4537070000000  0.4841110000000 1.0
C      1  0.4819770000000  0.4525350000000  0.5615490000000 1.0
C      1  0.4574570000000  0.4529450000000  0.4569000000000 1.0
C      1  0.5068800000000  0.4424180000000  0.5787700000000 1.0
C      1  0.4299330000000  0.4423440000000  0.4683750000000 1.0
C      1  0.5616680000000  0.4417470000000  0.4545590000000 1.0
C      1  0.5050360000000  0.5595620000000  0.5748930000000 1.0
C      1  0.4321100000000  0.5597570000000  0.4677080000000 1.0
C      1  0.5635060000000  0.5601730000000  0.4558880000000 1.0
C      1  0.4886650000000  0.4138140000000  0.4714500000000 1.0
C      1  0.5287740000000  0.4143400000000  0.5020970000000 1.0
C      1  0.4788450000000  0.4101420000000  0.5247330000000 1.0
C      1  0.4830270000000  0.5872260000000  0.4671380000000 1.0
C      1  0.5393390000000  0.5856110000000  0.4974120000000 1.0
C      1  0.4814730000000  0.5854360000000  0.5291750000000 1.0
C      1  0.5542840000000  0.4872420000000  0.4217220000000 1.0
C      1  0.5366510000000  0.4888540000000  0.5861650000000 1.0
C      1  0.4074950000000  0.4884690000000  0.4895260000000 1.0
C      1  0.5552760000000  0.5171010000000  0.4170280000000 1.0
C      1  0.5404240000000  0.5183970000000  0.5896710000000 1.0
C      1  0.4022420000000  0.5179050000000  0.4909470000000 1.0
C      1  0.5000550000000  0.4710710000000  0.4323230000000 1.0
C      1  0.5600500000000  0.4695390000000  0.5365710000000 1.0
C      1  0.4391870000000  0.4695250000000  0.5344830000000 1.0
C      1  0.5017000000000  0.5273850000000  0.4319330000000 1.0
C      1  0.5605110000000  0.5258870000000  0.5372810000000 1.0
C      1  0.4397330000000  0.5258060000000  0.5337000000000 1.0
C      1  0.4875090000000  0.4736220000000  0.4781340000000 1.0
C      1  0.5294030000000  0.4715390000000  0.5016290000000 1.0
C      1  0.4858040000000  0.4665960000000  0.5225620000000 1.0
C      1  0.4875540000000  0.5284950000000  0.4750160000000 1.0
C      1  0.5307420000000  0.5284680000000  0.5015030000000 1.0
C      1  0.4851140000000  0.5293100000000  0.5246740000000 1.0
C      1  0.5100750000000  0.5838920000000  0.5135180000000 1.0
C      1  0.4734640000000  0.5848570000000  0.4975850000000 1.0
C      1  0.5098210000000  0.5846970000000  0.4811170000000 1.0
C      1  0.5076250000000  0.4172380000000  0.5209630000000 1.0
C      1  0.4763360000000  0.4190770000000  0.4961590000000 1.0
C      1  0.5172510000000  0.4161790000000  0.4745000000000 1.0
C      1  0.4324350000000  0.5147230000000  0.5063250000000 1.0
C      1  0.5288330000000  0.5151250000000  0.4382470000000 1.0
C      1  0.5397210000000  0.5145980000000  0.5558820000000 1.0
C      1  0.4327330000000  0.4824230000000  0.5096690000000 1.0
C      1  0.5259740000000  0.4827890000000  0.4388840000000 1.0
C      1  0.5400950000000  0.4822370000000  0.5535790000000 1.0
C      1  0.4715970000000  0.4491870000000  0.4970260000000 1.0
C      1  0.5245720000000  0.4465960000000  0.4790190000000 1.0
C      1  0.5079160000000  0.4428600000000  0.5329750000000 1.0
C      1  0.4706400000000  0.5552910000000  0.4873610000000 1.0
C      1  0.5288110000000  0.5565170000000  0.4823450000000 1.0
C      1  0.5019630000000  0.5577430000000  0.5327350000000 1.0
C      1  0.5540860000000  0.4572860000000  0.4270190000000 1.0
C      1  0.5336220000000  0.4590380000000  0.5853160000000 1.0
C      1  0.4102000000000  0.4583370000000  0.4875330000000 1.0
C      1  0.5546520000000  0.5441950000000  0.4290250000000 1.0
C      1  0.5327390000000  0.5455540000000  0.5819840000000 1.0
C      1  0.4123530000000  0.5451840000000  0.4879020000000 1.0
C      1  0.5623690000000  0.5001750000000  0.4585900000000 1.0
C      1  0.4391820000000  0.4994280000000  0.4639310000000 1.0
C      1  0.4984210000000  0.4989790000000  0.5713040000000 1.0
END
