TITL C-2622964-2985-622 -0.0034055498402295 125000 -236.444368687075 0 0 43 (C1) n - 1
REM
REM in /nfs/bkarasulu/CARBON/AIRSS/Generating-Clusters/AIREBO/with-SteepDescent/Higher-Symm/SD-CG/HFTN-CG
REM
REM
REM
REM
REM
REM ./C.cell (b20cbc046b6831c77cfcea5457e17084)
REM
REM compiler GCC version 9.2.1 20190827 (Red Hat 9.2.1-1)
REM options -cpp -mtune=generic -march=x86-64 -g -O0 -fpre-include=/usr/include/finclude/math-vector-fortran.h
REM seed 964002895 -1629380939 765397901 280004905 1811172189 -245740107 -1512333761 -109692433 -1806788819 1739742304 -1624639895 117692698 1444957773 70995539 -1495798338 -877358116 1893978913 -1494193514 491501386 -761479505 -334589362 -584523109 1440839502 607459020 -354930942 -1728569905 1047850293 1557234826 -1205096754 -928592497 -2031756276 117227670 1948496679
REM
CELL 1.54180   50.00000   50.00000   50.00000   90.00000   90.00000   90.00000
LATT -1
SFAC C  
C      1  0.5023240000000  0.5535680000000  0.4635090000000 1.0
C      1  0.5138550000000  0.4618010000000  0.4476390000000 1.0
C      1  0.4950970000000  0.4273630000000  0.5294480000000 1.0
C      1  0.5074500000000  0.5396990000000  0.5585260000000 1.0
C      1  0.4812810000000  0.5603040000000  0.5353840000000 1.0
C      1  0.5076270000000  0.4652510000000  0.5551960000000 1.0
C      1  0.4861730000000  0.4291750000000  0.4656200000000 1.0
C      1  0.5079370000000  0.5376450000000  0.4274380000000 1.0
C      1  0.4739510000000  0.5219680000000  0.5121010000000 1.0
C      1  0.4699740000000  0.5115080000000  0.4597320000000 1.0
C      1  0.4807410000000  0.4914200000000  0.4742950000000 1.0
C      1  0.4697350000000  0.4773470000000  0.5261400000000 1.0
C      1  0.5340210000000  0.5295920000000  0.4868490000000 1.0
C      1  0.5119880000000  0.5150800000000  0.5223680000000 1.0
C      1  0.5211120000000  0.4767590000000  0.5048460000000 1.0
C      1  0.5422400000000  0.4967590000000  0.4901070000000 1.0
C      1  0.5129020000000  0.5700280000000  0.4830060000000 1.0
C      1  0.5315110000000  0.4818750000000  0.4420130000000 1.0
C      1  0.5177580000000  0.4272660000000  0.5137330000000 1.0
C      1  0.5271050000000  0.5208320000000  0.5648960000000 1.0
C      1  0.4648790000000  0.5662500000000  0.5136130000000 1.0
C      1  0.4935720000000  0.4857630000000  0.5697630000000 1.0
C      1  0.4643100000000  0.4452620000000  0.4805860000000 1.0
C      1  0.4809850000000  0.5380070000000  0.4323480000000 1.0
C      1  0.4832620000000  0.4645180000000  0.4617090000000 1.0
C      1  0.4871730000000  0.4517370000000  0.5402520000000 1.0
C      1  0.4795100000000  0.5271860000000  0.5437310000000 1.0
C      1  0.4747800000000  0.5406750000000  0.4684630000000 1.0
C      1  0.5278530000000  0.4757100000000  0.5380100000000 1.0
C      1  0.5141590000000  0.4403580000000  0.4683780000000 1.0
C      1  0.5260350000000  0.5320730000000  0.4536250000000 1.0
C      1  0.5096520000000  0.5462100000000  0.5256330000000 1.0
C      1  0.5217680000000  0.4472600000000  0.4943650000000 1.0
C      1  0.5297000000000  0.5038800000000  0.5418050000000 1.0
C      1  0.5262190000000  0.5531540000000  0.5016970000000 1.0
C      1  0.5360680000000  0.5024970000000  0.4584510000000 1.0
C      1  0.4573280000000  0.4541750000000  0.5045680000000 1.0
C      1  0.4614310000000  0.5138600000000  0.4307110000000 1.0
C      1  0.4663700000000  0.5436250000000  0.4963400000000 1.0
C      1  0.4752940000000  0.4978100000000  0.5527460000000 1.0
C      1  0.4408800000000  0.4904940000000  0.5245180000000 1.0
C      1  0.5690790000000  0.4912600000000  0.4963040000000 1.0
C      1  0.4915560000000  0.4935880000000  0.5057110000000 1.0
END
