TITL C-2622954-8726-29 -1.55102525450984e-06 125000 -97.4996511015965 0 0 22 (S10) n - 1
REM
REM in /nfs/bkarasulu/CARBON/AIRSS/Generating-Clusters/AIREBO/with-SteepDescent/Higher-Symm/SD-CG/HFTN-CG
REM
REM
REM
REM
REM
REM ./C.cell (b20cbc046b6831c77cfcea5457e17084)
REM
REM compiler GCC version 9.2.1 20190827 (Red Hat 9.2.1-1)
REM options -cpp -mtune=generic -march=x86-64 -g -O0 -fpre-include=/usr/include/finclude/math-vector-fortran.h
REM seed 1311091713 711021317 -131295442 1396629145 -443624280 -2074220922 -57302638 1648939123 1853793672 691570331 -1870793935 -283991659 1056163355 -2044928193 -541982324 -837159331 877388228 -1659527498 1332600076 1054493689 -1678381709 644512357 -1670259893 314610934 -1374918698 1643956417 -2036540082 1796619891 -641129846 269353230 -213834139 -527448281 -1404325450
REM
CELL 1.54180   50.00000   50.00000   50.00000   90.00000   90.00000   90.00000
LATT -1
SFAC C  
C      1  0.5347690000000  0.5364440000000  0.4584170000000 1.0
C      1  0.5347530000000  0.5532650000000  0.5218800000000 1.0
C      1  0.5347590000000  0.4981050000000  0.5574900000000 1.0
C      1  0.5347800000000  0.4471930000000  0.5160330000000 1.0
C      1  0.5347860000000  0.4708880000000  0.4548030000000 1.0
C      1  0.4605130000000  0.5042350000000  0.4459450000000 1.0
C      1  0.4604930000000  0.5551460000000  0.4874010000000 1.0
C      1  0.4604860000000  0.5314510000000  0.5486310000000 1.0
C      1  0.4605030000000  0.4658960000000  0.5450180000000 1.0
C      1  0.4605200000000  0.4490750000000  0.4815540000000 1.0
C      1  0.4686360000000  0.5312650000000  0.4926850000000 1.0
C      1  0.4686320000000  0.5190490000000  0.5275510000000 1.0
C      1  0.4686420000000  0.4821140000000  0.5267080000000 1.0
C      1  0.4686510000000  0.4715030000000  0.4913200000000 1.0
C      1  0.4686480000000  0.5018800000000  0.4702930000000 1.0
C      1  0.5266210000000  0.5308360000000  0.5121140000000 1.0
C      1  0.5266250000000  0.5004590000000  0.5331420000000 1.0
C      1  0.5266360000000  0.4710740000000  0.5107490000000 1.0
C      1  0.5266400000000  0.4832900000000  0.4758830000000 1.0
C      1  0.5266310000000  0.5202250000000  0.4767260000000 1.0
C      1  0.4816690000000  0.5011660000000  0.5017140000000 1.0
C      1  0.5136040000000  0.5011740000000  0.5017200000000 1.0
END
