TITL C-2622953-3516-166 -0.000510148400250728 125000 -998.607295415403 0 0 185 (C1) n - 1
REM
REM in /nfs/bkarasulu/CARBON/AIRSS/Generating-Clusters/AIREBO/with-SteepDescent/Higher-Symm/SD-CG/HFTN-CG
REM
REM
REM
REM
REM
REM ./C.cell (b20cbc046b6831c77cfcea5457e17084)
REM
REM compiler GCC version 9.2.1 20190827 (Red Hat 9.2.1-1)
REM options -cpp -mtune=generic -march=x86-64 -g -O0 -fpre-include=/usr/include/finclude/math-vector-fortran.h
REM seed 1916826161 -749705320 -60512616 -846673636 -1737672952 1972867796 1994224534 1231349455 -892004916 -1838091683 -1027041676 -471525152 -327764520 -1387634409 -1932444325 1443675228 -1140747915 1603064931 -1071926437 -364210446 -1841028378 -1916263614 407280880 -1714324236 -179483240 -761330558 1733328717 429167543 2074933162 1871546119 -343306574 -245316432 -324934753
REM
CELL 1.54180   50.00000   50.00000   50.00000   90.00000   90.00000   90.00000
LATT -1
SFAC C  
C      1  0.5467540000000  0.5149910000000  0.4210890000000 1.0
C      1  0.5544450000000  0.4830200000000  0.5800880000000 1.0
C      1  0.4558350000000  0.5174500000000  0.4217260000000 1.0
C      1  0.4280150000000  0.4823760000000  0.5929470000000 1.0
C      1  0.5453810000000  0.5149170000000  0.5771760000000 1.0
C      1  0.5574030000000  0.4826390000000  0.4211420000000 1.0
C      1  0.4513740000000  0.5047200000000  0.5948330000000 1.0
C      1  0.4436960000000  0.4854490000000  0.4221140000000 1.0
C      1  0.5848320000000  0.4915610000000  0.5696570000000 1.0
C      1  0.5948980000000  0.5184680000000  0.4273760000000 1.0
C      1  0.4100340000000  0.4871780000000  0.5717600000000 1.0
C      1  0.4128240000000  0.5248130000000  0.4327000000000 1.0
C      1  0.5895850000000  0.4902830000000  0.4290200000000 1.0
C      1  0.5871860000000  0.5200150000000  0.5715310000000 1.0
C      1  0.4132480000000  0.4963130000000  0.4307770000000 1.0
C      1  0.4118380000000  0.5152820000000  0.5675080000000 1.0
C      1  0.5647590000000  0.5399210000000  0.5860100000000 1.0
C      1  0.5697550000000  0.4545990000000  0.4070570000000 1.0
C      1  0.4340800000000  0.5265560000000  0.5808600000000 1.0
C      1  0.4327410000000  0.4572450000000  0.4065830000000 1.0
C      1  0.5716930000000  0.5339680000000  0.4165790000000 1.0
C      1  0.5663880000000  0.4530090000000  0.5907220000000 1.0
C      1  0.4330230000000  0.5405920000000  0.4176030000000 1.0
C      1  0.4348780000000  0.4568380000000  0.6009530000000 1.0
C      1  0.4845010000000  0.4526620000000  0.5470640000000 1.0
C      1  0.4869810000000  0.5518060000000  0.4490840000000 1.0
C      1  0.5121190000000  0.4634300000000  0.5583700000000 1.0
C      1  0.5190800000000  0.5443650000000  0.4430180000000 1.0
C      1  0.4887100000000  0.4396010000000  0.4478210000000 1.0
C      1  0.4830940000000  0.5634360000000  0.5491100000000 1.0
C      1  0.5172480000000  0.4480370000000  0.4385240000000 1.0
C      1  0.5140840000000  0.5493420000000  0.5500700000000 1.0
C      1  0.4883590000000  0.5189860000000  0.4884600000000 1.0
C      1  0.4887730000000  0.4827090000000  0.5213000000000 1.0
C      1  0.5174080000000  0.5311950000000  0.4807180000000 1.0
C      1  0.5179170000000  0.4718100000000  0.5197510000000 1.0
C      1  0.4791130000000  0.5307820000000  0.5190980000000 1.0
C      1  0.4804920000000  0.4729860000000  0.4693010000000 1.0
C      1  0.5189180000000  0.5360230000000  0.5128500000000 1.0
C      1  0.5226270000000  0.4700520000000  0.4713480000000 1.0
C      1  0.4745360000000  0.4116920000000  0.4230770000000 1.0
C      1  0.4870820000000  0.5878640000000  0.5700940000000 1.0
C      1  0.4994540000000  0.4138320000000  0.4031530000000 1.0
C      1  0.5185840000000  0.5841250000000  0.5792000000000 1.0
C      1  0.4916260000000  0.4128560000000  0.5819590000000 1.0
C      1  0.4773670000000  0.5867520000000  0.4323200000000 1.0
C      1  0.5255220000000  0.4137810000000  0.5794290000000 1.0
C      1  0.5110700000000  0.5835990000000  0.4290160000000 1.0
C      1  0.4820230000000  0.6070890000000  0.4816230000000 1.0
C      1  0.4798460000000  0.4027770000000  0.5166400000000 1.0
C      1  0.5258030000000  0.5958770000000  0.4847370000000 1.0
C      1  0.5217240000000  0.3955000000000  0.5156470000000 1.0
C      1  0.4792300000000  0.5961180000000  0.5061770000000 1.0
C      1  0.4809980000000  0.4081000000000  0.4881450000000 1.0
C      1  0.5270350000000  0.6022430000000  0.5150200000000 1.0
C      1  0.5208540000000  0.4058650000000  0.4898710000000 1.0
C      1  0.5856380000000  0.5474420000000  0.5137400000000 1.0
C      1  0.5797410000000  0.4603050000000  0.4859170000000 1.0
C      1  0.4055980000000  0.5414660000000  0.5169990000000 1.0
C      1  0.4211360000000  0.4615680000000  0.4862620000000 1.0
C      1  0.5780020000000  0.5435460000000  0.4826420000000 1.0
C      1  0.5822050000000  0.4498640000000  0.5161440000000 1.0
C      1  0.4087850000000  0.5520160000000  0.4869840000000 1.0
C      1  0.4161640000000  0.4494600000000  0.5165780000000 1.0
C      1  0.5988190000000  0.4891240000000  0.4841550000000 1.0
C      1  0.5987650000000  0.5148840000000  0.5147460000000 1.0
C      1  0.3992430000000  0.4882280000000  0.4843770000000 1.0
C      1  0.3906240000000  0.5097530000000  0.5166380000000 1.0
C      1  0.5983960000000  0.4808240000000  0.5160740000000 1.0
C      1  0.6021340000000  0.5199860000000  0.4814420000000 1.0
C      1  0.3952200000000  0.4765530000000  0.5162430000000 1.0
C      1  0.3949840000000  0.5202340000000  0.4849730000000 1.0
C      1  0.5251730000000  0.6029510000000  0.4514870000000 1.0
C      1  0.5186200000000  0.4011730000000  0.5490380000000 1.0
C      1  0.4915180000000  0.6041440000000  0.4562130000000 1.0
C      1  0.4851500000000  0.4073950000000  0.5499070000000 1.0
C      1  0.5178880000000  0.5950130000000  0.5469640000000 1.0
C      1  0.5133280000000  0.3953970000000  0.4620080000000 1.0
C      1  0.4849740000000  0.6018960000000  0.5391910000000 1.0
C      1  0.4805430000000  0.4011090000000  0.4548290000000 1.0
C      1  0.5146750000000  0.4449820000000  0.5850590000000 1.0
C      1  0.5265990000000  0.5599300000000  0.4137330000000 1.0
C      1  0.4838690000000  0.4432080000000  0.5956610000000 1.0
C      1  0.4815890000000  0.5572130000000  0.4160210000000 1.0
C      1  0.5117240000000  0.4423760000000  0.4067770000000 1.0
C      1  0.5106240000000  0.5511440000000  0.5817310000000 1.0
C      1  0.4785110000000  0.4448640000000  0.4166760000000 1.0
C      1  0.4781560000000  0.5411580000000  0.5832090000000 1.0
C      1  0.4486970000000  0.5140850000000  0.4828920000000 1.0
C      1  0.4586770000000  0.4730540000000  0.5092330000000 1.0
C      1  0.5466440000000  0.5143860000000  0.4855260000000 1.0
C      1  0.5458330000000  0.4881090000000  0.5155900000000 1.0
C      1  0.4505770000000  0.5251510000000  0.5102810000000 1.0
C      1  0.4527340000000  0.4851530000000  0.4809140000000 1.0
C      1  0.5457370000000  0.5193570000000  0.5201180000000 1.0
C      1  0.5474790000000  0.4830870000000  0.4826900000000 1.0
C      1  0.5600780000000  0.5598970000000  0.4193490000000 1.0
C      1  0.5520800000000  0.4330340000000  0.5781120000000 1.0
C      1  0.4503380000000  0.5684440000000  0.4210020000000 1.0
C      1  0.4550690000000  0.4459770000000  0.5874710000000 1.0
C      1  0.5432940000000  0.5604860000000  0.5834620000000 1.0
C      1  0.5642520000000  0.4336090000000  0.4203500000000 1.0
C      1  0.4518600000000  0.5468000000000  0.5739680000000 1.0
C      1  0.4468830000000  0.4323420000000  0.4164930000000 1.0
C      1  0.4532230000000  0.5904570000000  0.5346480000000 1.0
C      1  0.4489850000000  0.4094670000000  0.4643520000000 1.0
C      1  0.5506350000000  0.5902100000000  0.5362000000000 1.0
C      1  0.5428350000000  0.4061740000000  0.4569780000000 1.0
C      1  0.4320840000000  0.5850180000000  0.4631470000000 1.0
C      1  0.4547900000000  0.4205530000000  0.5442760000000 1.0
C      1  0.5533880000000  0.5917460000000  0.4677160000000 1.0
C      1  0.5494560000000  0.3988960000000  0.5331560000000 1.0
C      1  0.4302250000000  0.5889560000000  0.5128750000000 1.0
C      1  0.4340870000000  0.4068570000000  0.4876360000000 1.0
C      1  0.5751610000000  0.5798730000000  0.5149950000000 1.0
C      1  0.5616270000000  0.4089340000000  0.4845250000000 1.0
C      1  0.4186500000000  0.5797630000000  0.4866280000000 1.0
C      1  0.4335880000000  0.4220760000000  0.5178380000000 1.0
C      1  0.5754340000000  0.5932350000000  0.4869510000000 1.0
C      1  0.5664630000000  0.4227370000000  0.5152940000000 1.0
C      1  0.5224550000000  0.5133470000000  0.4522180000000 1.0
C      1  0.5189940000000  0.4924770000000  0.5455250000000 1.0
C      1  0.4797820000000  0.5188300000000  0.4556320000000 1.0
C      1  0.4757380000000  0.4853740000000  0.5505500000000 1.0
C      1  0.5111710000000  0.5199300000000  0.5399760000000 1.0
C      1  0.5168570000000  0.4819930000000  0.4402990000000 1.0
C      1  0.4824250000000  0.5165670000000  0.5499760000000 1.0
C      1  0.4855310000000  0.4882000000000  0.4418450000000 1.0
C      1  0.5521340000000  0.4411100000000  0.4808230000000 1.0
C      1  0.5487000000000  0.5618900000000  0.5087300000000 1.0
C      1  0.4507070000000  0.4453500000000  0.4817330000000 1.0
C      1  0.4364900000000  0.5556380000000  0.5155890000000 1.0
C      1  0.5375790000000  0.4297610000000  0.5287520000000 1.0
C      1  0.5503700000000  0.5536570000000  0.4790400000000 1.0
C      1  0.4601240000000  0.4414800000000  0.5111560000000 1.0
C      1  0.4560460000000  0.5606640000000  0.4884700000000 1.0
C      1  0.5182720000000  0.4391750000000  0.4835430000000 1.0
C      1  0.5173200000000  0.5698320000000  0.5161180000000 1.0
C      1  0.4845210000000  0.4408020000000  0.4795210000000 1.0
C      1  0.4855510000000  0.5639580000000  0.5152760000000 1.0
C      1  0.5161430000000  0.4433500000000  0.5141960000000 1.0
C      1  0.5184920000000  0.5649580000000  0.4767840000000 1.0
C      1  0.4879780000000  0.4353470000000  0.5221010000000 1.0
C      1  0.4881150000000  0.5583650000000  0.4822150000000 1.0
C      1  0.4738420000000  0.4753740000000  0.4148090000000 1.0
C      1  0.4834020000000  0.5075550000000  0.5828560000000 1.0
C      1  0.5273960000000  0.4724870000000  0.4087870000000 1.0
C      1  0.5164880000000  0.5208280000000  0.5918920000000 1.0
C      1  0.4937740000000  0.4762100000000  0.5982580000000 1.0
C      1  0.4846920000000  0.5280290000000  0.4065700000000 1.0
C      1  0.5275250000000  0.4720980000000  0.5976020000000 1.0
C      1  0.5187750000000  0.5283430000000  0.4066420000000 1.0
C      1  0.5897150000000  0.5323970000000  0.5426340000000 1.0
C      1  0.5918190000000  0.4719480000000  0.4563390000000 1.0
C      1  0.4122170000000  0.5191360000000  0.5390410000000 1.0
C      1  0.4101700000000  0.4743770000000  0.4567260000000 1.0
C      1  0.5858840000000  0.5293570000000  0.4544750000000 1.0
C      1  0.5817630000000  0.4716200000000  0.5422860000000 1.0
C      1  0.4147510000000  0.5331540000000  0.4616670000000 1.0
C      1  0.4139230000000  0.4697130000000  0.5438040000000 1.0
C      1  0.4383150000000  0.5074990000000  0.5305580000000 1.0
C      1  0.4430520000000  0.4709100000000  0.4522660000000 1.0
C      1  0.5564990000000  0.5293660000000  0.5482780000000 1.0
C      1  0.5583700000000  0.4695860000000  0.4534470000000 1.0
C      1  0.4472140000000  0.5282030000000  0.4528320000000 1.0
C      1  0.4451070000000  0.4765380000000  0.5402550000000 1.0
C      1  0.5549900000000  0.5218750000000  0.4534180000000 1.0
C      1  0.5486070000000  0.4754500000000  0.5470450000000 1.0
C      1  0.5458610000000  0.5650320000000  0.4479930000000 1.0
C      1  0.5387160000000  0.4449410000000  0.5531850000000 1.0
C      1  0.4547370000000  0.5612180000000  0.4543890000000 1.0
C      1  0.4542930000000  0.4489390000000  0.5578730000000 1.0
C      1  0.5440900000000  0.5574190000000  0.5424090000000 1.0
C      1  0.5462550000000  0.4384500000000  0.4470620000000 1.0
C      1  0.4499040000000  0.5604790000000  0.5467020000000 1.0
C      1  0.4547250000000  0.4391530000000  0.4487800000000 1.0
C      1  0.4794160000000  0.5100100000000  0.3814390000000 1.0
C      1  0.4841940000000  0.4883990000000  0.6249500000000 1.0
C      1  0.5245070000000  0.5120570000000  0.3802130000000 1.0
C      1  0.5247880000000  0.4886460000000  0.6245800000000 1.0
C      1  0.4641740000000  0.5038190000000  0.6234380000000 1.0
C      1  0.4786710000000  0.4852310000000  0.3857710000000 1.0
C      1  0.5188870000000  0.5131630000000  0.6206990000000 1.0
C      1  0.5236300000000  0.4870020000000  0.3817880000000 1.0
C      1  0.4906570000000  0.4900280000000  0.4922090000000 1.0
END
