TITL C-2622966-9038-431 -0.00370811257313119 125000 -865.077446814953 0 0 157 (C1) n - 1
REM
REM in /nfs/bkarasulu/CARBON/AIRSS/Generating-Clusters/AIREBO/with-SteepDescent/Higher-Symm/SD-CG/HFTN-CG
REM
REM
REM
REM
REM
REM ./C.cell (b20cbc046b6831c77cfcea5457e17084)
REM
REM compiler GCC version 9.2.1 20190827 (Red Hat 9.2.1-1)
REM options -cpp -mtune=generic -march=x86-64 -g -O0 -fpre-include=/usr/include/finclude/math-vector-fortran.h
REM seed -438784445 -1807162549 1530750960 1505903185 -677094692 828507602 216088853 211563285 -1579106235 1215862760 -1587709200 -1088806110 1841401402 416622065 2083468485 -338385607 692659137 -1027237627 -310590037 1739036997 -617991243 -1052660240 660446412 554067665 578653228 1301001994 2110043021 527289988 66377950 -1730140903 -977069681 -51522982 633301725
REM
CELL 1.54180   50.00000   50.00000   50.00000   90.00000   90.00000   90.00000
LATT -1
SFAC C  
C      1  0.5633520000000  0.5244980000000  0.5937500000000 1.0
C      1  0.4099300000000  0.5332890000000  0.5564030000000 1.0
C      1  0.4506410000000  0.5327390000000  0.4117490000000 1.0
C      1  0.5885190000000  0.5295020000000  0.4489130000000 1.0
C      1  0.5499980000000  0.4705040000000  0.5811210000000 1.0
C      1  0.4144220000000  0.4780500000000  0.5448160000000 1.0
C      1  0.4573540000000  0.4694400000000  0.4083770000000 1.0
C      1  0.5876700000000  0.4715080000000  0.4498400000000 1.0
C      1  0.4704150000000  0.4463360000000  0.4191240000000 1.0
C      1  0.5768340000000  0.4494400000000  0.4671700000000 1.0
C      1  0.5337250000000  0.4440450000000  0.5715690000000 1.0
C      1  0.4228690000000  0.4547190000000  0.5306720000000 1.0
C      1  0.4810640000000  0.5478320000000  0.4171540000000 1.0
C      1  0.5963140000000  0.5531980000000  0.4758850000000 1.0
C      1  0.5206680000000  0.5479060000000  0.5977900000000 1.0
C      1  0.4150590000000  0.5583000000000  0.5079090000000 1.0
C      1  0.5598490000000  0.5187070000000  0.4404700000000 1.0
C      1  0.5640880000000  0.5229590000000  0.5650490000000 1.0
C      1  0.4377730000000  0.5242870000000  0.5620910000000 1.0
C      1  0.4322760000000  0.5096790000000  0.4298120000000 1.0
C      1  0.5662340000000  0.4880970000000  0.4290530000000 1.0
C      1  0.5643880000000  0.4901980000000  0.5578800000000 1.0
C      1  0.4370710000000  0.4903170000000  0.5635130000000 1.0
C      1  0.4381300000000  0.4795250000000  0.4267430000000 1.0
C      1  0.4198050000000  0.4481160000000  0.5033560000000 1.0
C      1  0.4985180000000  0.4402440000000  0.4161190000000 1.0
C      1  0.5751590000000  0.4446270000000  0.4966560000000 1.0
C      1  0.5022100000000  0.4418270000000  0.5756870000000 1.0
C      1  0.4040220000000  0.5594080000000  0.4801050000000 1.0
C      1  0.5103160000000  0.5558130000000  0.4095090000000 1.0
C      1  0.5934790000000  0.5591820000000  0.5067330000000 1.0
C      1  0.4890370000000  0.5541200000000  0.5998150000000 1.0
C      1  0.5508860000000  0.5581580000000  0.4908990000000 1.0
C      1  0.5116900000000  0.5538240000000  0.5669220000000 1.0
C      1  0.4460470000000  0.5720310000000  0.5049680000000 1.0
C      1  0.4833310000000  0.5572410000000  0.4465650000000 1.0
C      1  0.5332060000000  0.4282210000000  0.4711670000000 1.0
C      1  0.5274910000000  0.4301890000000  0.5420860000000 1.0
C      1  0.4647290000000  0.4262770000000  0.5254710000000 1.0
C      1  0.4755520000000  0.4270390000000  0.4637110000000 1.0
C      1  0.4617070000000  0.5252310000000  0.4920840000000 1.0
C      1  0.5030210000000  0.5171350000000  0.4778160000000 1.0
C      1  0.5367240000000  0.5263510000000  0.5101420000000 1.0
C      1  0.4905700000000  0.5282960000000  0.5371440000000 1.0
C      1  0.4750650000000  0.4751270000000  0.4981170000000 1.0
C      1  0.5017660000000  0.4787050000000  0.4625600000000 1.0
C      1  0.5318650000000  0.4754810000000  0.5062430000000 1.0
C      1  0.4994590000000  0.4784280000000  0.5294950000000 1.0
C      1  0.5482100000000  0.5496810000000  0.5512570000000 1.0
C      1  0.4494430000000  0.5502170000000  0.5447650000000 1.0
C      1  0.4405560000000  0.5438800000000  0.4487190000000 1.0
C      1  0.5528120000000  0.5498040000000  0.4523560000000 1.0
C      1  0.5554600000000  0.4610950000000  0.5427300000000 1.0
C      1  0.4618430000000  0.4702850000000  0.5530510000000 1.0
C      1  0.4406020000000  0.4647210000000  0.4567970000000 1.0
C      1  0.5437330000000  0.4635670000000  0.4360680000000 1.0
C      1  0.5464460000000  0.5871780000000  0.4915360000000 1.0
C      1  0.5121940000000  0.5804890000000  0.5600080000000 1.0
C      1  0.4579240000000  0.5975740000000  0.5046440000000 1.0
C      1  0.4913050000000  0.5874610000000  0.4533560000000 1.0
C      1  0.5399920000000  0.3985340000000  0.4827320000000 1.0
C      1  0.5204580000000  0.3992980000000  0.5502520000000 1.0
C      1  0.4472860000000  0.3994600000000  0.5139310000000 1.0
C      1  0.4798140000000  0.3944320000000  0.4550530000000 1.0
C      1  0.4768930000000  0.5198490000000  0.3982950000000 1.0
C      1  0.6129700000000  0.5245380000000  0.4708150000000 1.0
C      1  0.5343270000000  0.5188340000000  0.6042090000000 1.0
C      1  0.4023920000000  0.5321710000000  0.5256640000000 1.0
C      1  0.4760510000000  0.4892390000000  0.3972020000000 1.0
C      1  0.6018790000000  0.4931220000000  0.4678240000000 1.0
C      1  0.5325130000000  0.4861350000000  0.6021080000000 1.0
C      1  0.4004830000000  0.4982570000000  0.5275120000000 1.0
C      1  0.5267450000000  0.4764430000000  0.5484130000000 1.0
C      1  0.4527600000000  0.4803260000000  0.5218380000000 1.0
C      1  0.4710870000000  0.4777960000000  0.4492870000000 1.0
C      1  0.5514130000000  0.4801710000000  0.4642570000000 1.0
C      1  0.5226310000000  0.5274550000000  0.5484390000000 1.0
C      1  0.4526010000000  0.5255250000000  0.5249750000000 1.0
C      1  0.4599460000000  0.5159950000000  0.4468240000000 1.0
C      1  0.5409470000000  0.5289970000000  0.4765060000000 1.0
C      1  0.4645170000000  0.5048680000000  0.6174360000000 1.0
C      1  0.3781680000000  0.5094670000000  0.4709140000000 1.0
C      1  0.5375930000000  0.5095660000000  0.3897160000000 1.0
C      1  0.6144660000000  0.5078470000000  0.5311100000000 1.0
C      1  0.4733870000000  0.5323470000000  0.6063650000000 1.0
C      1  0.3927820000000  0.5362970000000  0.4703770000000 1.0
C      1  0.5272930000000  0.5321820000000  0.4042520000000 1.0
C      1  0.6053310000000  0.5362620000000  0.5248230000000 1.0
C      1  0.5700910000000  0.5345090000000  0.5060100000000 1.0
C      1  0.4878030000000  0.5220200000000  0.5671350000000 1.0
C      1  0.4318030000000  0.5307010000000  0.4788150000000 1.0
C      1  0.5067890000000  0.5214510000000  0.4455570000000 1.0
C      1  0.5652060000000  0.4728070000000  0.5123630000000 1.0
C      1  0.4835780000000  0.4673160000000  0.5767930000000 1.0
C      1  0.4196230000000  0.4703710000000  0.4798820000000 1.0
C      1  0.5195560000000  0.4650550000000  0.4152480000000 1.0
C      1  0.4944840000000  0.4489600000000  0.4752200000000 1.0
C      1  0.5208540000000  0.4466710000000  0.4935550000000 1.0
C      1  0.5105890000000  0.4475620000000  0.5250750000000 1.0
C      1  0.4833660000000  0.4441840000000  0.5070260000000 1.0
C      1  0.5015320000000  0.5503790000000  0.4749070000000 1.0
C      1  0.5196710000000  0.5554380000000  0.5041280000000 1.0
C      1  0.4905440000000  0.5535430000000  0.5209970000000 1.0
C      1  0.4729520000000  0.5552500000000  0.4926830000000 1.0
C      1  0.5131130000000  0.4102000000000  0.4555730000000 1.0
C      1  0.5434560000000  0.4115540000000  0.5204490000000 1.0
C      1  0.4818780000000  0.4082510000000  0.5451860000000 1.0
C      1  0.4621710000000  0.4136920000000  0.4869500000000 1.0
C      1  0.5257150000000  0.5686960000000  0.4595450000000 1.0
C      1  0.5396810000000  0.5705170000000  0.5271560000000 1.0
C      1  0.4761250000000  0.5688490000000  0.5477300000000 1.0
C      1  0.4584980000000  0.5679730000000  0.4646580000000 1.0
C      1  0.5532130000000  0.4413820000000  0.4546630000000 1.0
C      1  0.5636790000000  0.4361480000000  0.5575410000000 1.0
C      1  0.4473220000000  0.4455320000000  0.5407570000000 1.0
C      1  0.4583570000000  0.4403180000000  0.4439040000000 1.0
C      1  0.5763810000000  0.5662380000000  0.4580650000000 1.0
C      1  0.5482980000000  0.5593760000000  0.5813260000000 1.0
C      1  0.4254770000000  0.5654760000000  0.5382700000000 1.0
C      1  0.4248400000000  0.5484190000000  0.4189110000000 1.0
C      1  0.4253030000000  0.5196760000000  0.5064460000000 1.0
C      1  0.4843550000000  0.5102560000000  0.4300590000000 1.0
C      1  0.5837960000000  0.5158100000000  0.4861000000000 1.0
C      1  0.5138340000000  0.5121500000000  0.5791510000000 1.0
C      1  0.4260910000000  0.4873340000000  0.5078110000000 1.0
C      1  0.4929910000000  0.4790130000000  0.4236920000000 1.0
C      1  0.5730690000000  0.4854320000000  0.4841610000000 1.0
C      1  0.5119190000000  0.4805960000000  0.5755810000000 1.0
C      1  0.4803740000000  0.3940400000000  0.5078890000000 1.0
C      1  0.4991440000000  0.3947900000000  0.4812030000000 1.0
C      1  0.5201890000000  0.3920450000000  0.5079110000000 1.0
C      1  0.4988340000000  0.3831810000000  0.5316320000000 1.0
C      1  0.4850790000000  0.5998420000000  0.5054970000000 1.0
C      1  0.5081580000000  0.5893390000000  0.4801730000000 1.0
C      1  0.5226010000000  0.5947500000000  0.5104780000000 1.0
C      1  0.4982570000000  0.5904170000000  0.5334300000000 1.0
C      1  0.5695010000000  0.5752140000000  0.5218890000000 1.0
C      1  0.4792070000000  0.5723400000000  0.5809930000000 1.0
C      1  0.4242920000000  0.5700500000000  0.4631210000000 1.0
C      1  0.5206820000000  0.5742880000000  0.4273970000000 1.0
C      1  0.5673080000000  0.4211770000000  0.5111940000000 1.0
C      1  0.4898690000000  0.4188270000000  0.5686500000000 1.0
C      1  0.4319840000000  0.4243980000000  0.4964950000000 1.0
C      1  0.5090640000000  0.4172720000000  0.4265100000000 1.0
C      1  0.4139830000000  0.5148250000000  0.4545930000000 1.0
C      1  0.5302020000000  0.5245160000000  0.4319470000000 1.0
C      1  0.5775380000000  0.5211940000000  0.5364790000000 1.0
C      1  0.4613110000000  0.5171330000000  0.5800770000000 1.0
C      1  0.3983430000000  0.4880330000000  0.4671760000000 1.0
C      1  0.5433480000000  0.4865570000000  0.4039510000000 1.0
C      1  0.5867470000000  0.4892330000000  0.5321640000000 1.0
C      1  0.4595240000000  0.4855720000000  0.5897200000000 1.0
C      1  0.4675220000000  0.4990520000000  0.4755830000000 1.0
C      1  0.5290170000000  0.4980840000000  0.4687380000000 1.0
C      1  0.5310670000000  0.5024510000000  0.5269430000000 1.0
C      1  0.4767570000000  0.5030200000000  0.5263320000000 1.0
C      1  0.5037590000000  0.4933670000000  0.4992500000000 1.0
END
