TITL C-2622954-8726-381 5.43004671626351e-06 125000 -236.912874012818 0 0 40 (C1) n - 1
REM
REM in /nfs/bkarasulu/CARBON/AIRSS/Generating-Clusters/AIREBO/with-SteepDescent/Higher-Symm/SD-CG/HFTN-CG
REM
REM
REM
REM
REM
REM ./C.cell (b20cbc046b6831c77cfcea5457e17084)
REM
REM compiler GCC version 9.2.1 20190827 (Red Hat 9.2.1-1)
REM options -cpp -mtune=generic -march=x86-64 -g -O0 -fpre-include=/usr/include/finclude/math-vector-fortran.h
REM seed -276876834 383851007 400273074 -695101525 245130117 791352873 1036345089 -449640155 -2020254706 772209919 -2057939354 -739449933 27306808 434345899 610827161 1606923565 560738284 -1127312326 606347904 -1342705097 -723467440 -524102871 830637272 833766706 1768546053 1848854430 1750251576 1207183522 -789252661 1003991983 138161162 -1496040525 1858284493
REM
CELL 1.54180   50.00000   50.00000   50.00000   90.00000   90.00000   90.00000
LATT -1
SFAC C  
C      1  0.4823250000000  0.4677160000000  0.4743790000000 1.0
C      1  0.5803040000000  0.4811230000000  0.4595200000000 1.0
C      1  0.4344590000000  0.5593150000000  0.4807700000000 1.0
C      1  0.5202230000000  0.4631900000000  0.5127790000000 1.0
C      1  0.4388840000000  0.4748860000000  0.5883720000000 1.0
C      1  0.4873170000000  0.5514440000000  0.5657580000000 1.0
C      1  0.4606860000000  0.5581550000000  0.5614150000000 1.0
C      1  0.4715350000000  0.4692540000000  0.5535690000000 1.0
C      1  0.5366510000000  0.5015300000000  0.5366740000000 1.0
C      1  0.5780740000000  0.5151890000000  0.4118980000000 1.0
C      1  0.5396040000000  0.4612930000000  0.4428200000000 1.0
C      1  0.4677160000000  0.4950120000000  0.4644660000000 1.0
C      1  0.5871880000000  0.5319530000000  0.4316550000000 1.0
C      1  0.4371950000000  0.5042480000000  0.4709610000000 1.0
C      1  0.5387840000000  0.4426850000000  0.4640970000000 1.0
C      1  0.4446360000000  0.5376230000000  0.5502480000000 1.0
C      1  0.5583560000000  0.5028210000000  0.5195240000000 1.0
C      1  0.4636890000000  0.4478250000000  0.5370200000000 1.0
C      1  0.5944040000000  0.5262660000000  0.4575640000000 1.0
C      1  0.4189330000000  0.5152130000000  0.4886470000000 1.0
C      1  0.5260110000000  0.4448770000000  0.4881520000000 1.0
C      1  0.4294160000000  0.5420460000000  0.5273620000000 1.0
C      1  0.5760240000000  0.5067750000000  0.4998410000000 1.0
C      1  0.4743800000000  0.4376240000000  0.5141620000000 1.0
C      1  0.5634830000000  0.4750640000000  0.4376380000000 1.0
C      1  0.4513580000000  0.5512620000000  0.4601440000000 1.0
C      1  0.4924610000000  0.4802370000000  0.4473470000000 1.0
C      1  0.4526330000000  0.4853340000000  0.5675910000000 1.0
C      1  0.5116860000000  0.5424450000000  0.5592200000000 1.0
C      1  0.5197860000000  0.4791680000000  0.5348280000000 1.0
C      1  0.4483480000000  0.5114820000000  0.5591530000000 1.0
C      1  0.4991020000000  0.4746110000000  0.5532330000000 1.0
C      1  0.5283650000000  0.5223850000000  0.5530070000000 1.0
C      1  0.5696140000000  0.4890910000000  0.4139560000000 1.0
C      1  0.5145030000000  0.4707980000000  0.4343350000000 1.0
C      1  0.4557320000000  0.5242980000000  0.4547340000000 1.0
C      1  0.4248460000000  0.5406790000000  0.5000110000000 1.0
C      1  0.5849600000000  0.5051360000000  0.4736540000000 1.0
C      1  0.4941410000000  0.4513310000000  0.4951900000000 1.0
C      1  0.4505900000000  0.5824800000000  0.5671070000000 1.0
END
