TITL C-2622960-5345-34 -823.165616383477 125000 -250.386453429741 0 0 47 (C1) n - 1
REM
REM in /nfs/bkarasulu/CARBON/AIRSS/Generating-Clusters/AIREBO/with-SteepDescent/Higher-Symm/SD-CG/HFTN-CG
REM
REM
REM
REM
REM
REM ./C.cell (b20cbc046b6831c77cfcea5457e17084)
REM
REM compiler GCC version 9.2.1 20190827 (Red Hat 9.2.1-1)
REM options -cpp -mtune=generic -march=x86-64 -g -O0 -fpre-include=/usr/include/finclude/math-vector-fortran.h
REM seed 1944429130 2101590833 25961355 -1778609194 1966440565 345672489 -235428022 916549530 1798948291 -1608652200 588291072 -148897681 -1717462982 584819168 1231854636 382729436 -1313227459 -1719426586 1569975536 -169426301 -389694158 -2146958587 -1163421395 -1600085495 773521338 256141486 -1186082733 543527889 118953224 1655428238 -1154101308 -415490968 2027948166
REM
CELL 1.54180   50.00000   50.00000   50.00000   90.00000   90.00000   90.00000
LATT -1
SFAC C  
C      1  0.5101580000000  0.5512220000000  0.5437120000000 1.0
C      1  0.4608640000000  0.5315030000000  0.5469960000000 1.0
C      1  0.4492890000000  0.5440520000000  0.4985640000000 1.0
C      1  0.4662010000000  0.5512850000000  0.4546160000000 1.0
C      1  0.5132680000000  0.5475670000000  0.4516370000000 1.0
C      1  0.5524900000000  0.5318790000000  0.4843470000000 1.0
C      1  0.5528780000000  0.5671120000000  0.5231870000000 1.0
C      1  0.5404080000000  0.4609010000000  0.5263070000000 1.0
C      1  0.5097750000000  0.4524130000000  0.5385070000000 1.0
C      1  0.4779760000000  0.4595520000000  0.5301770000000 1.0
C      1  0.4623470000000  0.4659970000000  0.5006680000000 1.0
C      1  0.4773510000000  0.4698860000000  0.4751060000000 1.0
C      1  0.5106300000000  0.4681060000000  0.4682260000000 1.0
C      1  0.5255910000000  0.4658710000000  0.4986790000000 1.0
C      1  0.5182920000000  0.4752970000000  0.5563600000000 1.0
C      1  0.4690910000000  0.4800770000000  0.5515630000000 1.0
C      1  0.4475460000000  0.4940020000000  0.5091490000000 1.0
C      1  0.4618360000000  0.4910170000000  0.4554770000000 1.0
C      1  0.5024710000000  0.4732520000000  0.4352880000000 1.0
C      1  0.5426300000000  0.4793310000000  0.4655550000000 1.0
C      1  0.5513720000000  0.4916970000000  0.5164200000000 1.0
C      1  0.5608930000000  0.4987570000000  0.4845480000000 1.0
C      1  0.5460270000000  0.4852420000000  0.5493710000000 1.0
C      1  0.4949750000000  0.4905230000000  0.5635320000000 1.0
C      1  0.4531800000000  0.5001680000000  0.5390550000000 1.0
C      1  0.4381160000000  0.4874860000000  0.4773090000000 1.0
C      1  0.4760770000000  0.4774950000000  0.4308040000000 1.0
C      1  0.5244170000000  0.4936710000000  0.4413820000000 1.0
C      1  0.4443960000000  0.5469490000000  0.5249480000000 1.0
C      1  0.4487220000000  0.5603210000000  0.4752990000000 1.0
C      1  0.4904770000000  0.5637790000000  0.4454700000000 1.0
C      1  0.5402550000000  0.5487730000000  0.4603630000000 1.0
C      1  0.5658210000000  0.5512770000000  0.5052530000000 1.0
C      1  0.5334830000000  0.5665980000000  0.5424680000000 1.0
C      1  0.4859020000000  0.5524840000000  0.5564900000000 1.0
C      1  0.4626330000000  0.5172400000000  0.4913490000000 1.0
C      1  0.4720220000000  0.5200780000000  0.4602440000000 1.0
C      1  0.5029260000000  0.5222340000000  0.4577770000000 1.0
C      1  0.5231050000000  0.5056100000000  0.4738120000000 1.0
C      1  0.5309400000000  0.5146930000000  0.5042570000000 1.0
C      1  0.5137390000000  0.5244980000000  0.5285480000000 1.0
C      1  0.4897760000000  0.5139970000000  0.5471750000000 1.0
C      1  0.4988030000000  0.4465680000000  0.4993690000000 1.0
C      1  0.4887550000000  0.5436400000000  0.5050200000000 1.0
C      1  0.4982610000000  0.4788560000000  0.5108920000000 1.0
C      1  0.4999450000000  0.4215350000000  0.4929490000000 1.0
C      1  0.4914830000000  0.5098100000000  0.5074520000000 1.0
END
