TITL C-2622954-8726-22 -0.000411701994553586 125000 -974.481463528055 0 0 185 (C1) n - 1
REM
REM in /nfs/bkarasulu/CARBON/AIRSS/Generating-Clusters/AIREBO/with-SteepDescent/Higher-Symm/SD-CG/HFTN-CG
REM
REM
REM
REM
REM
REM ./C.cell (b20cbc046b6831c77cfcea5457e17084)
REM
REM compiler GCC version 9.2.1 20190827 (Red Hat 9.2.1-1)
REM options -cpp -mtune=generic -march=x86-64 -g -O0 -fpre-include=/usr/include/finclude/math-vector-fortran.h
REM seed 1606950885 -200410041 1920804179 436370774 370815358 -168392621 1321205690 1244693851 1964458380 -737775161 -115956269 -2354641 867485084 -360931871 -159669820 1782442637 -2105610255 -73271098 -794808207 -2027689653 1426256568 -334342425 492849394 450157022 1331989853 1784591196 1832044711 -1450520268 -1134240530 1297588011 -116459194 1168547249 249457938
REM
CELL 1.54180   50.00000   50.00000   50.00000   90.00000   90.00000   90.00000
LATT -1
SFAC C  
C      1  0.5739620000000  0.4464670000000  0.4213290000000 1.0
C      1  0.4200490000000  0.5716730000000  0.4390440000000 1.0
C      1  0.4482280000000  0.4243750000000  0.5717090000000 1.0
C      1  0.4277020000000  0.5640110000000  0.4084730000000 1.0
C      1  0.4304330000000  0.4597130000000  0.5676800000000 1.0
C      1  0.5695490000000  0.5483770000000  0.5802920000000 1.0
C      1  0.5798210000000  0.4295140000000  0.4485670000000 1.0
C      1  0.5754240000000  0.5639960000000  0.5508620000000 1.0
C      1  0.4320800000000  0.4349240000000  0.5444580000000 1.0
C      1  0.5539240000000  0.5780510000000  0.5746890000000 1.0
C      1  0.5493350000000  0.4092020000000  0.4317110000000 1.0
C      1  0.4661930000000  0.5909400000000  0.4416400000000 1.0
C      1  0.5738540000000  0.4979330000000  0.5769640000000 1.0
C      1  0.5695030000000  0.5920890000000  0.4945190000000 1.0
C      1  0.4948260000000  0.5690570000000  0.5820190000000 1.0
C      1  0.4319120000000  0.5120750000000  0.5726140000000 1.0
C      1  0.4030430000000  0.4919490000000  0.4289210000000 1.0
C      1  0.5738840000000  0.4931160000000  0.4048550000000 1.0
C      1  0.4147230000000  0.4244360000000  0.4962050000000 1.0
C      1  0.4214890000000  0.5912850000000  0.5113710000000 1.0
C      1  0.5872530000000  0.4284700000000  0.5015730000000 1.0
C      1  0.5100510000000  0.4143900000000  0.5781000000000 1.0
C      1  0.5077520000000  0.5706940000000  0.3990130000000 1.0
C      1  0.5019050000000  0.4285340000000  0.4244870000000 1.0
C      1  0.5308290000000  0.5300800000000  0.5546630000000 1.0
C      1  0.5544820000000  0.5284230000000  0.5302910000000 1.0
C      1  0.5211060000000  0.5584850000000  0.5386460000000 1.0
C      1  0.4609080000000  0.4687350000000  0.5626870000000 1.0
C      1  0.4636120000000  0.5336360000000  0.4300490000000 1.0
C      1  0.5285950000000  0.4666350000000  0.4394610000000 1.0
C      1  0.4399600000000  0.4643510000000  0.5293290000000 1.0
C      1  0.4305230000000  0.5269340000000  0.4723320000000 1.0
C      1  0.5640100000000  0.4562270000000  0.4735090000000 1.0
C      1  0.4690640000000  0.4477280000000  0.5375260000000 1.0
C      1  0.4688810000000  0.5623890000000  0.4692550000000 1.0
C      1  0.5332570000000  0.4444380000000  0.4649610000000 1.0
C      1  0.4680470000000  0.4999240000000  0.4702820000000 1.0
C      1  0.4720220000000  0.4737260000000  0.5078760000000 1.0
C      1  0.4919710000000  0.4784810000000  0.4714390000000 1.0
C      1  0.5289530000000  0.5103080000000  0.4579030000000 1.0
C      1  0.5342840000000  0.4912680000000  0.5361650000000 1.0
C      1  0.4715870000000  0.4993520000000  0.5302250000000 1.0
C      1  0.5282060000000  0.5285050000000  0.5001410000000 1.0
C      1  0.5358240000000  0.4717230000000  0.4938620000000 1.0
C      1  0.4758120000000  0.5263930000000  0.5036390000000 1.0
C      1  0.4883740000000  0.5277080000000  0.4730700000000 1.0
C      1  0.5007110000000  0.4724900000000  0.5261100000000 1.0
C      1  0.5045780000000  0.5115190000000  0.5120870000000 1.0
C      1  0.5545510000000  0.5004800000000  0.5139020000000 1.0
C      1  0.5148920000000  0.5569420000000  0.5052210000000 1.0
C      1  0.5074710000000  0.5070340000000  0.5456810000000 1.0
C      1  0.4409920000000  0.4978300000000  0.5211290000000 1.0
C      1  0.4385770000000  0.4974540000000  0.4871970000000 1.0
C      1  0.5506200000000  0.5000170000000  0.4801140000000 1.0
C      1  0.4839870000000  0.4419730000000  0.5074680000000 1.0
C      1  0.4827070000000  0.5575420000000  0.4989480000000 1.0
C      1  0.5149890000000  0.4448400000000  0.4936550000000 1.0
C      1  0.4929290000000  0.4780560000000  0.5560140000000 1.0
C      1  0.4883850000000  0.5194820000000  0.4427890000000 1.0
C      1  0.5062710000000  0.4907250000000  0.4459000000000 1.0
C      1  0.4084520000000  0.5450000000000  0.4268390000000 1.0
C      1  0.4359710000000  0.4194030000000  0.5169030000000 1.0
C      1  0.5498830000000  0.4315230000000  0.4149310000000 1.0
C      1  0.5835590000000  0.4634350000000  0.4491880000000 1.0
C      1  0.5776170000000  0.5300980000000  0.5526220000000 1.0
C      1  0.4111370000000  0.4788320000000  0.5653610000000 1.0
C      1  0.5460460000000  0.5792240000000  0.5429030000000 1.0
C      1  0.5533630000000  0.4170600000000  0.4634450000000 1.0
C      1  0.4416420000000  0.5765670000000  0.4546420000000 1.0
C      1  0.4579870000000  0.5660020000000  0.4198170000000 1.0
C      1  0.4652340000000  0.4360840000000  0.5861330000000 1.0
C      1  0.5355600000000  0.5502850000000  0.5816080000000 1.0
C      1  0.5368880000000  0.5297610000000  0.4348030000000 1.0
C      1  0.4432710000000  0.5306930000000  0.5125510000000 1.0
C      1  0.5237200000000  0.4482200000000  0.5324330000000 1.0
C      1  0.4639130000000  0.4866130000000  0.4391310000000 1.0
C      1  0.4763190000000  0.5142520000000  0.5572650000000 1.0
C      1  0.5382700000000  0.4776930000000  0.5641590000000 1.0
C      1  0.5599550000000  0.4670870000000  0.5173660000000 1.0
C      1  0.5604050000000  0.5312090000000  0.4895260000000 1.0
C      1  0.4454160000000  0.4643660000000  0.4900090000000 1.0
C      1  0.4737930000000  0.5697500000000  0.5272350000000 1.0
C      1  0.4857200000000  0.4491160000000  0.4668260000000 1.0
C      1  0.5114570000000  0.5526830000000  0.4716300000000 1.0
C      1  0.4924840000000  0.5191160000000  0.3999630000000 1.0
C      1  0.3960760000000  0.5053530000000  0.5220540000000 1.0
C      1  0.5344130000000  0.3961400000000  0.5074420000000 1.0
C      1  0.5107550000000  0.4705740000000  0.3978360000000 1.0
C      1  0.5010330000000  0.5105410000000  0.6064270000000 1.0
C      1  0.4970680000000  0.4711020000000  0.6022210000000 1.0
C      1  0.6110720000000  0.4982580000000  0.5263170000000 1.0
C      1  0.5989890000000  0.5018340000000  0.4723840000000 1.0
C      1  0.3911990000000  0.5171130000000  0.4675690000000 1.0
C      1  0.4656750000000  0.6047680000000  0.4895320000000 1.0
C      1  0.4780810000000  0.3900080000000  0.5069130000000 1.0
C      1  0.5177070000000  0.5999980000000  0.4992890000000 1.0
C      1  0.4874100000000  0.5963810000000  0.5109370000000 1.0
C      1  0.5218880000000  0.4890190000000  0.5902510000000 1.0
C      1  0.5912100000000  0.5260210000000  0.4898260000000 1.0
C      1  0.5158790000000  0.4200130000000  0.5168680000000 1.0
C      1  0.5068610000000  0.5863730000000  0.4725880000000 1.0
C      1  0.5059940000000  0.3909010000000  0.4915120000000 1.0
C      1  0.4732270000000  0.4936060000000  0.6038430000000 1.0
C      1  0.4894200000000  0.4894780000000  0.4163880000000 1.0
C      1  0.5248790000000  0.5166340000000  0.4100090000000 1.0
C      1  0.4046810000000  0.4982620000000  0.4899190000000 1.0
C      1  0.4098150000000  0.5317270000000  0.5110720000000 1.0
C      1  0.6060700000000  0.4816350000000  0.4970210000000 1.0
C      1  0.6087200000000  0.5266300000000  0.5112890000000 1.0
C      1  0.4901070000000  0.6028010000000  0.5414660000000 1.0
C      1  0.5402090000000  0.5134620000000  0.6050270000000 1.0
C      1  0.3953670000000  0.4723930000000  0.5034130000000 1.0
C      1  0.3966250000000  0.5406140000000  0.4884890000000 1.0
C      1  0.6337920000000  0.4691690000000  0.4899330000000 1.0
C      1  0.4911080000000  0.4090610000000  0.5289660000000 1.0
C      1  0.4826130000000  0.5992580000000  0.4631170000000 1.0
C      1  0.5049120000000  0.4001990000000  0.4660070000000 1.0
C      1  0.4550680000000  0.4918050000000  0.6280120000000 1.0
C      1  0.4610880000000  0.5169330000000  0.3939130000000 1.0
C      1  0.5324990000000  0.4907620000000  0.4078460000000 1.0
C      1  0.5546650000000  0.5555730000000  0.5125390000000 1.0
C      1  0.4965190000000  0.5720650000000  0.5522520000000 1.0
C      1  0.5503470000000  0.5135490000000  0.5771040000000 1.0
C      1  0.4190040000000  0.4537820000000  0.5059470000000 1.0
C      1  0.4429330000000  0.5520860000000  0.4861100000000 1.0
C      1  0.5853280000000  0.4596310000000  0.4986440000000 1.0
C      1  0.4875170000000  0.4249470000000  0.5549060000000 1.0
C      1  0.4902970000000  0.5591980000000  0.4449760000000 1.0
C      1  0.5052580000000  0.4283670000000  0.4542710000000 1.0
C      1  0.4592470000000  0.4968820000000  0.5777250000000 1.0
C      1  0.4444550000000  0.5116200000000  0.4330520000000 1.0
C      1  0.5547510000000  0.4810790000000  0.4283350000000 1.0
C      1  0.4872450000000  0.5504010000000  0.4122490000000 1.0
C      1  0.4176540000000  0.5030160000000  0.5453100000000 1.0
C      1  0.5577000000000  0.4136480000000  0.4936380000000 1.0
C      1  0.5231770000000  0.4466410000000  0.4143250000000 1.0
C      1  0.5079600000000  0.5406390000000  0.5933380000000 1.0
C      1  0.4941270000000  0.4508450000000  0.5759480000000 1.0
C      1  0.5893110000000  0.4992110000000  0.5473630000000 1.0
C      1  0.5719920000000  0.4950380000000  0.4541210000000 1.0
C      1  0.4143760000000  0.5194710000000  0.4433490000000 1.0
C      1  0.4412120000000  0.5848930000000  0.4931520000000 1.0
C      1  0.4630610000000  0.4177420000000  0.5019560000000 1.0
C      1  0.5424980000000  0.5873140000000  0.5117660000000 1.0
C      1  0.4237390000000  0.5780840000000  0.5355960000000 1.0
C      1  0.5359740000000  0.4179770000000  0.5871750000000 1.0
C      1  0.5815510000000  0.5168650000000  0.4109070000000 1.0
C      1  0.5777840000000  0.4145550000000  0.5281950000000 1.0
C      1  0.5713440000000  0.5739880000000  0.4751580000000 1.0
C      1  0.4162400000000  0.4203210000000  0.4692390000000 1.0
C      1  0.4700350000000  0.5727900000000  0.5940740000000 1.0
C      1  0.4777140000000  0.4226570000000  0.4147620000000 1.0
C      1  0.5270430000000  0.5749450000000  0.4155260000000 1.0
C      1  0.4173320000000  0.4724220000000  0.4228640000000 1.0
C      1  0.4320190000000  0.5395420000000  0.5784250000000 1.0
C      1  0.5719520000000  0.4641050000000  0.5800440000000 1.0
C      1  0.5252560000000  0.4486480000000  0.5641480000000 1.0
C      1  0.5691970000000  0.5250770000000  0.4383440000000 1.0
C      1  0.4480760000000  0.5559700000000  0.5334250000000 1.0
C      1  0.4786380000000  0.5326300000000  0.5817740000000 1.0
C      1  0.4557050000000  0.4327070000000  0.4248140000000 1.0
C      1  0.5229530000000  0.5561940000000  0.4398000000000 1.0
C      1  0.4435650000000  0.4618750000000  0.4345470000000 1.0
C      1  0.4256660000000  0.5555240000000  0.5571260000000 1.0
C      1  0.5676540000000  0.4728700000000  0.5474740000000 1.0
C      1  0.5523010000000  0.4353160000000  0.5192910000000 1.0
C      1  0.5453810000000  0.5550900000000  0.4721230000000 1.0
C      1  0.4590470000000  0.4398700000000  0.4764470000000 1.0
C      1  0.5037890000000  0.4568590000000  0.6282120000000 1.0
C      1  0.6231760000000  0.5071740000000  0.4544100000000 1.0
C      1  0.4578230000000  0.6319110000000  0.4911020000000 1.0
C      1  0.5082380000000  0.5116190000000  0.6366310000000 1.0
C      1  0.5027890000000  0.4647690000000  0.3694540000000 1.0
C      1  0.4998020000000  0.5195270000000  0.3701160000000 1.0
C      1  0.3628660000000  0.5123540000000  0.4584570000000 1.0
C      1  0.3686240000000  0.5061800000000  0.5309750000000 1.0
C      1  0.6385390000000  0.4917980000000  0.5379440000000 1.0
C      1  0.5446210000000  0.3726960000000  0.5234250000000 1.0
C      1  0.5231250000000  0.6301120000000  0.4952630000000 1.0
C      1  0.4649050000000  0.3659040000000  0.5077080000000 1.0
C      1  0.5730710000000  0.5515130000000  0.4526980000000 1.0
C      1  0.4556620000000  0.5476130000000  0.5913080000000 1.0
C      1  0.5520920000000  0.4441360000000  0.5842320000000 1.0
C      1  0.4398920000000  0.4334450000000  0.4532760000000 1.0
C      1  0.5081710000000  0.4841590000000  0.4962370000000 1.0
END
