TITL C-2622965-4321-86 0.0620690750315664 125000 -817.908879534307 0 0 151 (C1) n - 1
REM
REM in /nfs/bkarasulu/CARBON/AIRSS/Generating-Clusters/AIREBO/with-SteepDescent/Higher-Symm/SD-CG/HFTN-CG
REM
REM
REM
REM
REM
REM ./C.cell (b20cbc046b6831c77cfcea5457e17084)
REM
REM compiler GCC version 9.2.1 20190827 (Red Hat 9.2.1-1)
REM options -cpp -mtune=generic -march=x86-64 -g -O0 -fpre-include=/usr/include/finclude/math-vector-fortran.h
REM seed 1088924176 -479392173 -426077019 -1748502088 -236716851 1123795740 -760510957 142083316 -2126038804 826425149 721178719 -172899416 -2105862395 -747364440 -132483001 -724416329 -1217161606 -1728385500 -1389316844 -577692419 1243130432 -1961099158 -1703159916 -397191755 1568205372 -1451698222 -212815350 -1997582177 -33428020 1368869476 2053254294 2016454237 -156982615
REM
CELL 1.54180   50.00000   50.00000   50.00000   90.00000   90.00000   90.00000
LATT -1
SFAC C  
C      1  0.5242180000000  0.5540940000000  0.4514250000000 1.0
C      1  0.4489020000000  0.5125330000000  0.5550320000000 1.0
C      1  0.5562370000000  0.4477100000000  0.5176320000000 1.0
C      1  0.4854990000000  0.5481180000000  0.5462380000000 1.0
C      1  0.5144210000000  0.4487010000000  0.5478330000000 1.0
C      1  0.4918310000000  0.4432120000000  0.4508120000000 1.0
C      1  0.5478620000000  0.5136910000000  0.4265390000000 1.0
C      1  0.4497540000000  0.4796810000000  0.4439400000000 1.0
C      1  0.5489380000000  0.4858380000000  0.5530530000000 1.0
C      1  0.4479630000000  0.4452340000000  0.4829720000000 1.0
C      1  0.5597420000000  0.5493670000000  0.4930610000000 1.0
C      1  0.4455730000000  0.5476120000000  0.5166170000000 1.0
C      1  0.5205480000000  0.4533980000000  0.4507420000000 1.0
C      1  0.4473820000000  0.4793330000000  0.5540030000000 1.0
C      1  0.5720370000000  0.5522200000000  0.5226200000000 1.0
C      1  0.4836000000000  0.4433240000000  0.5505100000000 1.0
C      1  0.5119720000000  0.5633750000000  0.5530140000000 1.0
C      1  0.4911110000000  0.5539400000000  0.4510630000000 1.0
C      1  0.5511450000000  0.4821170000000  0.4252220000000 1.0
C      1  0.4510730000000  0.5135710000000  0.4436420000000 1.0
C      1  0.5498370000000  0.5157540000000  0.5534360000000 1.0
C      1  0.4415940000000  0.5493160000000  0.4831210000000 1.0
C      1  0.5622010000000  0.4463880000000  0.4841830000000 1.0
C      1  0.4474390000000  0.4501390000000  0.5149410000000 1.0
C      1  0.5349520000000  0.5145430000000  0.5991150000000 1.0
C      1  0.6046120000000  0.5287130000000  0.5111920000000 1.0
C      1  0.5129590000000  0.5990660000000  0.5350680000000 1.0
C      1  0.4614430000000  0.5176070000000  0.3956700000000 1.0
C      1  0.5207850000000  0.4890490000000  0.3919290000000 1.0
C      1  0.4686340000000  0.4887840000000  0.6031410000000 1.0
C      1  0.3927350000000  0.5300990000000  0.4818070000000 1.0
C      1  0.5993680000000  0.4640400000000  0.4813530000000 1.0
C      1  0.3986470000000  0.4654790000000  0.5104630000000 1.0
C      1  0.4861020000000  0.6004240000000  0.4698000000000 1.0
C      1  0.5146680000000  0.3947130000000  0.4746150000000 1.0
C      1  0.4848180000000  0.3964380000000  0.5387850000000 1.0
C      1  0.5357750000000  0.4875740000000  0.6007000000000 1.0
C      1  0.6021160000000  0.4693960000000  0.5115230000000 1.0
C      1  0.5155210000000  0.3963070000000  0.5353990000000 1.0
C      1  0.4621720000000  0.4905950000000  0.3942580000000 1.0
C      1  0.5233760000000  0.5192590000000  0.3954620000000 1.0
C      1  0.4669740000000  0.5157140000000  0.6033280000000 1.0
C      1  0.3979910000000  0.4655200000000  0.4797990000000 1.0
C      1  0.6002460000000  0.5272950000000  0.4809580000000 1.0
C      1  0.3906040000000  0.5309420000000  0.5130480000000 1.0
C      1  0.4843770000000  0.3984980000000  0.4745720000000 1.0
C      1  0.5126500000000  0.6016620000000  0.4752930000000 1.0
C      1  0.4848270000000  0.6035090000000  0.5251810000000 1.0
C      1  0.4411160000000  0.4780690000000  0.4110830000000 1.0
C      1  0.4143910000000  0.4399590000000  0.4841600000000 1.0
C      1  0.4923740000000  0.4124780000000  0.4471090000000 1.0
C      1  0.5548390000000  0.4745860000000  0.5810250000000 1.0
C      1  0.4466110000000  0.5265850000000  0.5829600000000 1.0
C      1  0.5545350000000  0.5243840000000  0.3947120000000 1.0
C      1  0.5898740000000  0.4412850000000  0.5125160000000 1.0
C      1  0.3938210000000  0.5624640000000  0.5161270000000 1.0
C      1  0.5911550000000  0.5579050000000  0.4881290000000 1.0
C      1  0.5119790000000  0.4170290000000  0.5590500000000 1.0
C      1  0.4798530000000  0.5839210000000  0.5510460000000 1.0
C      1  0.5276190000000  0.5888460000000  0.4536330000000 1.0
C      1  0.4416350000000  0.5263470000000  0.4170840000000 1.0
C      1  0.4088920000000  0.5566720000000  0.4888750000000 1.0
C      1  0.4814780000000  0.5838100000000  0.4463070000000 1.0
C      1  0.5551800000000  0.5273250000000  0.5805410000000 1.0
C      1  0.4466810000000  0.4766320000000  0.5878970000000 1.0
C      1  0.5520810000000  0.4917340000000  0.3936810000000 1.0
C      1  0.6049560000000  0.5594670000000  0.5181180000000 1.0
C      1  0.4148680000000  0.4400170000000  0.5162260000000 1.0
C      1  0.5931600000000  0.4326660000000  0.4813110000000 1.0
C      1  0.5081680000000  0.5931200000000  0.5658990000000 1.0
C      1  0.4812110000000  0.4131960000000  0.5661330000000 1.0
C      1  0.5215460000000  0.3993960000000  0.4429810000000 1.0
C      1  0.5675240000000  0.5279710000000  0.4440840000000 1.0
C      1  0.4428890000000  0.5744290000000  0.5357900000000 1.0
C      1  0.5460390000000  0.4462560000000  0.5825550000000 1.0
C      1  0.4435280000000  0.5724800000000  0.5629040000000 1.0
C      1  0.5615140000000  0.4279310000000  0.5679100000000 1.0
C      1  0.4424540000000  0.4448340000000  0.4434110000000 1.0
C      1  0.5535910000000  0.5772970000000  0.4653550000000 1.0
C      1  0.4486040000000  0.4214300000000  0.4587020000000 1.0
C      1  0.5588780000000  0.4235670000000  0.5415450000000 1.0
C      1  0.4528970000000  0.4503100000000  0.4170420000000 1.0
C      1  0.5580670000000  0.5535480000000  0.4482330000000 1.0
C      1  0.4582240000000  0.5543710000000  0.5789120000000 1.0
C      1  0.5665750000000  0.4636810000000  0.4424600000000 1.0
C      1  0.4470960000000  0.4236060000000  0.5346100000000 1.0
C      1  0.5442800000000  0.5547110000000  0.5789540000000 1.0
C      1  0.4407280000000  0.4455510000000  0.5539670000000 1.0
C      1  0.5597520000000  0.5736500000000  0.5648230000000 1.0
C      1  0.4417930000000  0.5739900000000  0.4353970000000 1.0
C      1  0.5438880000000  0.4153790000000  0.4576330000000 1.0
C      1  0.4433510000000  0.5759180000000  0.4620170000000 1.0
C      1  0.5579400000000  0.5740630000000  0.5374990000000 1.0
C      1  0.4516790000000  0.5549520000000  0.4177230000000 1.0
C      1  0.5493900000000  0.4409230000000  0.4467570000000 1.0
C      1  0.4564510000000  0.4493550000000  0.5788790000000 1.0
C      1  0.4107000000000  0.5124930000000  0.4689580000000 1.0
C      1  0.4666890000000  0.4080060000000  0.5203750000000 1.0
C      1  0.5089430000000  0.4767170000000  0.4135350000000 1.0
C      1  0.5855040000000  0.5146270000000  0.5248920000000 1.0
C      1  0.4130380000000  0.4877250000000  0.5203090000000 1.0
C      1  0.5781000000000  0.4792980000000  0.4668950000000 1.0
C      1  0.5318510000000  0.4178190000000  0.4893740000000 1.0
C      1  0.4677850000000  0.5793350000000  0.4835630000000 1.0
C      1  0.5315700000000  0.5791350000000  0.5222520000000 1.0
C      1  0.4850810000000  0.4675760000000  0.5822290000000 1.0
C      1  0.5160500000000  0.5325040000000  0.5771980000000 1.0
C      1  0.4801320000000  0.5353320000000  0.4178660000000 1.0
C      1  0.4149790000000  0.4857030000000  0.4707880000000 1.0
C      1  0.4661900000000  0.5816010000000  0.5135570000000 1.0
C      1  0.5098540000000  0.5291930000000  0.4176540000000 1.0
C      1  0.5852670000000  0.4877580000000  0.5230500000000 1.0
C      1  0.4092490000000  0.5142300000000  0.5259040000000 1.0
C      1  0.5774990000000  0.5113900000000  0.4681570000000 1.0
C      1  0.5323780000000  0.5795310000000  0.4919530000000 1.0
C      1  0.4737300000000  0.4162590000000  0.4941800000000 1.0
C      1  0.5353620000000  0.4137220000000  0.5197130000000 1.0
C      1  0.4855390000000  0.5339760000000  0.5830700000000 1.0
C      1  0.5165170000000  0.4647610000000  0.5842320000000 1.0
C      1  0.4798420000000  0.4709250000000  0.4159700000000 1.0
C      1  0.4765390000000  0.5468260000000  0.4787790000000 1.0
C      1  0.4798040000000  0.4771110000000  0.5500190000000 1.0
C      1  0.5500040000000  0.4781290000000  0.4839710000000 1.0
C      1  0.5179600000000  0.5479680000000  0.5232910000000 1.0
C      1  0.4800460000000  0.4514080000000  0.5198320000000 1.0
C      1  0.5286320000000  0.4505260000000  0.4806090000000 1.0
C      1  0.5216780000000  0.4822110000000  0.4422060000000 1.0
C      1  0.4822490000000  0.5211590000000  0.4487180000000 1.0
C      1  0.5196720000000  0.5238910000000  0.5444920000000 1.0
C      1  0.4437220000000  0.4812080000000  0.5202450000000 1.0
C      1  0.5542150000000  0.5229520000000  0.5225640000000 1.0
C      1  0.4346710000000  0.5249690000000  0.4646900000000 1.0
C      1  0.4818660000000  0.4463330000000  0.4806040000000 1.0
C      1  0.4812360000000  0.5179380000000  0.5533820000000 1.0
C      1  0.5487170000000  0.5201830000000  0.4816710000000 1.0
C      1  0.5229950000000  0.4451760000000  0.5196830000000 1.0
C      1  0.4779050000000  0.5500260000000  0.5182460000000 1.0
C      1  0.5269650000000  0.5468270000000  0.4843560000000 1.0
C      1  0.5219390000000  0.5212170000000  0.4472150000000 1.0
C      1  0.4831200000000  0.4760990000000  0.4494230000000 1.0
C      1  0.5193570000000  0.4788110000000  0.5533910000000 1.0
C      1  0.4333800000000  0.5256420000000  0.5329920000000 1.0
C      1  0.5559120000000  0.4796550000000  0.5239630000000 1.0
C      1  0.4462160000000  0.4783450000000  0.4777310000000 1.0
C      1  0.4687980000000  0.4920520000000  0.4994260000000 1.0
C      1  0.5356190000000  0.4999820000000  0.5056860000000 1.0
C      1  0.5037980000000  0.4644550000000  0.4992610000000 1.0
C      1  0.4998190000000  0.5324710000000  0.4990260000000 1.0
C      1  0.5002920000000  0.4983590000000  0.5330720000000 1.0
C      1  0.5027600000000  0.4992650000000  0.4648160000000 1.0
C      1  0.5022370000000  0.4984850000000  0.4990220000000 1.0
END
