TITL C-2622953-3516-182 -0.00302891582736786 125000 -537.371182681553 0 0 104 (C1) n - 1
REM
REM in /nfs/bkarasulu/CARBON/AIRSS/Generating-Clusters/AIREBO/with-SteepDescent/Higher-Symm/SD-CG/HFTN-CG
REM
REM
REM
REM
REM
REM ./C.cell (b20cbc046b6831c77cfcea5457e17084)
REM
REM compiler GCC version 9.2.1 20190827 (Red Hat 9.2.1-1)
REM options -cpp -mtune=generic -march=x86-64 -g -O0 -fpre-include=/usr/include/finclude/math-vector-fortran.h
REM seed -1875938461 2079663333 138157142 -1491055268 -1005957780 -1179722278 655500379 -893064981 -626608578 -338901044 1256513713 -1704730483 1915283847 1948262056 -2088651505 1888702002 733285825 -2042029326 1002887193 1718996629 868091082 279358362 356822034 2135625593 -1739322046 -668987662 -717160855 -876174637 199473450 -426135994 1593843196 360627246 -958685510
REM
CELL 1.54180   50.00000   50.00000   50.00000   90.00000   90.00000   90.00000
LATT -1
SFAC C  
C      1  0.4695780000000  0.4328370000000  0.5444250000000 1.0
C      1  0.5325550000000  0.4399220000000  0.5451080000000 1.0
C      1  0.5757370000000  0.4872220000000  0.5462410000000 1.0
C      1  0.5577610000000  0.5488300000000  0.5436610000000 1.0
C      1  0.4959740000000  0.5657130000000  0.5408620000000 1.0
C      1  0.4368410000000  0.5437360000000  0.5415110000000 1.0
C      1  0.4267150000000  0.4803600000000  0.5411180000000 1.0
C      1  0.3903290000000  0.4163460000000  0.4868630000000 1.0
C      1  0.4977650000000  0.3639400000000  0.4866020000000 1.0
C      1  0.6005980000000  0.4010510000000  0.4953200000000 1.0
C      1  0.6443300000000  0.5244700000000  0.4959210000000 1.0
C      1  0.5603030000000  0.6236900000000  0.4923810000000 1.0
C      1  0.4520360000000  0.6293740000000  0.4903400000000 1.0
C      1  0.3646660000000  0.5475110000000  0.4920850000000 1.0
C      1  0.5207580000000  0.5321040000000  0.5106150000000 1.0
C      1  0.4869670000000  0.5357110000000  0.5117200000000 1.0
C      1  0.4690970000000  0.5111050000000  0.5012480000000 1.0
C      1  0.4679720000000  0.4821990000000  0.5054810000000 1.0
C      1  0.4932520000000  0.4641490000000  0.5064290000000 1.0
C      1  0.5237250000000  0.4750030000000  0.5121000000000 1.0
C      1  0.5474180000000  0.5111120000000  0.5103250000000 1.0
C      1  0.5568340000000  0.5295460000000  0.5700680000000 1.0
C      1  0.5011900000000  0.5502220000000  0.5673430000000 1.0
C      1  0.4572310000000  0.5466920000000  0.5660900000000 1.0
C      1  0.4317340000000  0.4978570000000  0.5672150000000 1.0
C      1  0.4661620000000  0.4564630000000  0.5658730000000 1.0
C      1  0.5163400000000  0.4563730000000  0.5661900000000 1.0
C      1  0.5538670000000  0.4801120000000  0.5683740000000 1.0
C      1  0.4911200000000  0.4795010000000  0.4032060000000 1.0
C      1  0.5200880000000  0.4857120000000  0.3873790000000 1.0
C      1  0.5031570000000  0.5141570000000  0.3874670000000 1.0
C      1  0.4798950000000  0.5243720000000  0.3772520000000 1.0
C      1  0.4537520000000  0.5168410000000  0.3817580000000 1.0
C      1  0.4465470000000  0.4960150000000  0.3985800000000 1.0
C      1  0.4661180000000  0.4846040000000  0.4154680000000 1.0
C      1  0.6204660000000  0.3846250000000  0.4905870000000 1.0
C      1  0.6685220000000  0.5332750000000  0.4910010000000 1.0
C      1  0.5652260000000  0.6490710000000  0.4880770000000 1.0
C      1  0.4422910000000  0.6536990000000  0.4897610000000 1.0
C      1  0.3392950000000  0.5530510000000  0.4885340000000 1.0
C      1  0.3718120000000  0.3979350000000  0.4846000000000 1.0
C      1  0.5029560000000  0.3390630000000  0.4801880000000 1.0
C      1  0.4983610000000  0.4589670000000  0.5382810000000 1.0
C      1  0.5376380000000  0.4789460000000  0.5385130000000 1.0
C      1  0.5442570000000  0.5114210000000  0.5441780000000 1.0
C      1  0.5206340000000  0.5347730000000  0.5445300000000 1.0
C      1  0.4745240000000  0.5320120000000  0.5407540000000 1.0
C      1  0.4557560000000  0.5069790000000  0.5449440000000 1.0
C      1  0.4689760000000  0.4763300000000  0.5384020000000 1.0
C      1  0.4631170000000  0.6053300000000  0.4931780000000 1.0
C      1  0.3903500000000  0.5406060000000  0.4934030000000 1.0
C      1  0.4073040000000  0.4350310000000  0.4912210000000 1.0
C      1  0.4938150000000  0.3898920000000  0.4909570000000 1.0
C      1  0.5809530000000  0.4188480000000  0.4978100000000 1.0
C      1  0.6191510000000  0.5162440000000  0.4984670000000 1.0
C      1  0.5542240000000  0.5978600000000  0.4943610000000 1.0
C      1  0.4969470000000  0.4745290000000  0.4565660000000 1.0
C      1  0.5307050000000  0.4769330000000  0.4613430000000 1.0
C      1  0.5450940000000  0.5019130000000  0.4586610000000 1.0
C      1  0.5302580000000  0.5301430000000  0.4522840000000 1.0
C      1  0.5033400000000  0.5437340000000  0.4365670000000 1.0
C      1  0.4783360000000  0.5239340000000  0.4489340000000 1.0
C      1  0.4704260000000  0.4913770000000  0.4426690000000 1.0
C      1  0.5762270000000  0.5200790000000  0.5364580000000 1.0
C      1  0.5294340000000  0.5645110000000  0.5323140000000 1.0
C      1  0.4638320000000  0.5625120000000  0.5301940000000 1.0
C      1  0.4253700000000  0.5134180000000  0.5310960000000 1.0
C      1  0.4445320000000  0.4534540000000  0.5323790000000 1.0
C      1  0.5015650000000  0.4273450000000  0.5340690000000 1.0
C      1  0.5613590000000  0.4563220000000  0.5373500000000 1.0
C      1  0.4514280000000  0.5519330000000  0.4822980000000 1.0
C      1  0.4254530000000  0.4975240000000  0.4814680000000 1.0
C      1  0.4614960000000  0.4418670000000  0.4858480000000 1.0
C      1  0.5228710000000  0.4389760000000  0.4877670000000 1.0
C      1  0.5745210000000  0.4741490000000  0.4915090000000 1.0
C      1  0.5672620000000  0.5379940000000  0.4887790000000 1.0
C      1  0.5075880000000  0.5633800000000  0.4844920000000 1.0
C      1  0.4204890000000  0.5465660000000  0.4874000000000 1.0
C      1  0.4162400000000  0.4666290000000  0.4879190000000 1.0
C      1  0.4770370000000  0.4160830000000  0.4876330000000 1.0
C      1  0.5505420000000  0.4269440000000  0.4946310000000 1.0
C      1  0.5972260000000  0.4937840000000  0.4975170000000 1.0
C      1  0.5612880000000  0.5676860000000  0.4910470000000 1.0
C      1  0.4860960000000  0.5846610000000  0.4862470000000 1.0
C      1  0.4495370000000  0.5196330000000  0.4858550000000 1.0
C      1  0.4492160000000  0.4732100000000  0.4810270000000 1.0
C      1  0.4929660000000  0.4511350000000  0.4770770000000 1.0
C      1  0.5416700000000  0.4659290000000  0.4882550000000 1.0
C      1  0.5619210000000  0.5048560000000  0.4832720000000 1.0
C      1  0.5334280000000  0.5416240000000  0.4805270000000 1.0
C      1  0.4832170000000  0.5404680000000  0.4782520000000 1.0
C      1  0.5705020000000  0.4485050000000  0.5097150000000 1.0
C      1  0.5872450000000  0.5226330000000  0.5085930000000 1.0
C      1  0.5321510000000  0.5737890000000  0.5040330000000 1.0
C      1  0.4600970000000  0.5736310000000  0.5029790000000 1.0
C      1  0.4137410000000  0.5180220000000  0.5034760000000 1.0
C      1  0.4360160000000  0.4447410000000  0.5053650000000 1.0
C      1  0.5042770000000  0.4189770000000  0.5051420000000 1.0
C      1  0.5067150000000  0.5011870000000  0.5124130000000 1.0
C      1  0.5131050000000  0.5008320000000  0.4173880000000 1.0
C      1  0.5031340000000  0.5128440000000  0.4806410000000 1.0
C      1  0.4989500000000  0.4971300000000  0.5710640000000 1.0
C      1  0.4946180000000  0.4979190000000  0.5441080000000 1.0
C      1  0.5070380000000  0.5057480000000  0.4476130000000 1.0
END
