TITL C-2622964-2985-556 -0.000155923187949713 125000 -396.062688094422 0 0 73 (C1) n - 1
REM
REM in /nfs/bkarasulu/CARBON/AIRSS/Generating-Clusters/AIREBO/with-SteepDescent/Higher-Symm/SD-CG/HFTN-CG
REM
REM
REM
REM
REM
REM ./C.cell (b20cbc046b6831c77cfcea5457e17084)
REM
REM compiler GCC version 9.2.1 20190827 (Red Hat 9.2.1-1)
REM options -cpp -mtune=generic -march=x86-64 -g -O0 -fpre-include=/usr/include/finclude/math-vector-fortran.h
REM seed 68992244 -1800389253 89055920 1993009912 -950421830 -439624427 -1202998864 -231111697 262611055 1148943085 1222477408 -1967022111 1839645863 637751575 937762011 -729141571 -1157096509 1385353158 -766807827 1146351582 1965981474 665772801 615528727 -1093462269 1755475650 1813079077 2128832718 -681902421 1949556342 426212422 -959434165 255821703 -1086529015
REM
CELL 1.54180   50.00000   50.00000   50.00000   90.00000   90.00000   90.00000
LATT -1
SFAC C  
C      1  0.4781210000000  0.5267150000000  0.5571370000000 1.0
C      1  0.4746460000000  0.5112250000000  0.4470610000000 1.0
C      1  0.5414550000000  0.4596360000000  0.5657950000000 1.0
C      1  0.5312460000000  0.4551610000000  0.4280600000000 1.0
C      1  0.4903040000000  0.4639430000000  0.5585010000000 1.0
C      1  0.4848100000000  0.4757680000000  0.4317650000000 1.0
C      1  0.5734110000000  0.5281970000000  0.5366940000000 1.0
C      1  0.5699420000000  0.5294280000000  0.4636580000000 1.0
C      1  0.5610600000000  0.5049670000000  0.4853810000000 1.0
C      1  0.5710700000000  0.5084210000000  0.5146650000000 1.0
C      1  0.4921390000000  0.5271700000000  0.5292260000000 1.0
C      1  0.4951230000000  0.5295920000000  0.4812320000000 1.0
C      1  0.5630060000000  0.5053340000000  0.5535840000000 1.0
C      1  0.5641760000000  0.4992660000000  0.4518840000000 1.0
C      1  0.4992460000000  0.4388860000000  0.5136630000000 1.0
C      1  0.4902590000000  0.4419380000000  0.4836260000000 1.0
C      1  0.5748430000000  0.4811820000000  0.5474110000000 1.0
C      1  0.5770860000000  0.4732440000000  0.4670940000000 1.0
C      1  0.5352500000000  0.5468800000000  0.5104650000000 1.0
C      1  0.5427000000000  0.5401930000000  0.4810310000000 1.0
C      1  0.4588380000000  0.4863350000000  0.4201760000000 1.0
C      1  0.4675700000000  0.4783980000000  0.5774510000000 1.0
C      1  0.4432170000000  0.4906350000000  0.5661060000000 1.0
C      1  0.4436430000000  0.5107070000000  0.4386220000000 1.0
C      1  0.4939300000000  0.5262260000000  0.4289780000000 1.0
C      1  0.4972630000000  0.5374920000000  0.5783800000000 1.0
C      1  0.5315950000000  0.5078090000000  0.5579540000000 1.0
C      1  0.5314120000000  0.4979250000000  0.4463150000000 1.0
C      1  0.4344600000000  0.5011920000000  0.4830050000000 1.0
C      1  0.4287120000000  0.4978360000000  0.5125490000000 1.0
C      1  0.5296120000000  0.4925170000000  0.4879780000000 1.0
C      1  0.5410250000000  0.4952080000000  0.5183660000000 1.0
C      1  0.4848310000000  0.4851020000000  0.5190830000000 1.0
C      1  0.5007600000000  0.4800580000000  0.4894560000000 1.0
C      1  0.4628280000000  0.5194680000000  0.4778580000000 1.0
C      1  0.4712470000000  0.5148220000000  0.5096920000000 1.0
C      1  0.4360140000000  0.5198480000000  0.5278790000000 1.0
C      1  0.4080050000000  0.5186410000000  0.4706890000000 1.0
C      1  0.5189360000000  0.4794310000000  0.5646110000000 1.0
C      1  0.5135600000000  0.4799080000000  0.4236530000000 1.0
C      1  0.4950810000000  0.5722740000000  0.4813250000000 1.0
C      1  0.4821950000000  0.5722890000000  0.5236290000000 1.0
C      1  0.4599930000000  0.4624140000000  0.5140850000000 1.0
C      1  0.4586340000000  0.4551700000000  0.4829620000000 1.0
C      1  0.4669550000000  0.5753380000000  0.4794510000000 1.0
C      1  0.4586070000000  0.5694800000000  0.5077340000000 1.0
C      1  0.4769870000000  0.4522130000000  0.4544910000000 1.0
C      1  0.4785040000000  0.4459670000000  0.5359970000000 1.0
C      1  0.4824000000000  0.4953720000000  0.5514230000000 1.0
C      1  0.4840740000000  0.4838160000000  0.4648400000000 1.0
C      1  0.5403450000000  0.4669810000000  0.5334800000000 1.0
C      1  0.5294520000000  0.4653790000000  0.4569690000000 1.0
C      1  0.5474110000000  0.4417820000000  0.4944390000000 1.0
C      1  0.5513340000000  0.4304530000000  0.5214430000000 1.0
C      1  0.4303400000000  0.5310200000000  0.4557790000000 1.0
C      1  0.4479520000000  0.5155850000000  0.5530610000000 1.0
C      1  0.4348150000000  0.4783700000000  0.4406650000000 1.0
C      1  0.4275340000000  0.4723410000000  0.5511100000000 1.0
C      1  0.5211710000000  0.5291200000000  0.5785610000000 1.0
C      1  0.5185530000000  0.5217680000000  0.4260970000000 1.0
C      1  0.4486290000000  0.5402180000000  0.5088780000000 1.0
C      1  0.4478770000000  0.5498400000000  0.4746830000000 1.0
C      1  0.5603470000000  0.5600910000000  0.4618440000000 1.0
C      1  0.5595290000000  0.5521110000000  0.5301660000000 1.0
C      1  0.4336400000000  0.4731290000000  0.5237200000000 1.0
C      1  0.4379770000000  0.4743410000000  0.4691600000000 1.0
C      1  0.5214970000000  0.4536680000000  0.4839000000000 1.0
C      1  0.5115030000000  0.4647390000000  0.5245950000000 1.0
C      1  0.5703480000000  0.4587200000000  0.5222800000000 1.0
C      1  0.5718310000000  0.4583300000000  0.4883120000000 1.0
C      1  0.5217220000000  0.5186190000000  0.4715130000000 1.0
C      1  0.5228730000000  0.5205110000000  0.5280030000000 1.0
C      1  0.5024900000000  0.5508800000000  0.5067090000000 1.0
END
