TITL C-2622956-4641-820 0.00214483019212514 125000 -943.001024105026 0 0 181 (C1) n - 1
REM
REM in /nfs/bkarasulu/CARBON/AIRSS/Generating-Clusters/AIREBO/with-SteepDescent/Higher-Symm/SD-CG/HFTN-CG
REM
REM
REM
REM
REM
REM ./C.cell (b20cbc046b6831c77cfcea5457e17084)
REM
REM compiler GCC version 9.2.1 20190827 (Red Hat 9.2.1-1)
REM options -cpp -mtune=generic -march=x86-64 -g -O0 -fpre-include=/usr/include/finclude/math-vector-fortran.h
REM seed -1997724176 1388328302 -1243893804 1942702347 -1731670150 1288251152 -998567875 1720270028 -1152443025 5777217 -1462521559 -1326655765 661253318 -871470745 -1106831640 -1894041541 850923459 79281349 737351168 -1078579160 1057635227 944658578 -276264507 -884298927 940257377 -66779804 -53329384 1377181762 -286426514 -1857389237 731114208 -1132764018 -2089585769
REM
CELL 1.54180   50.00000   50.00000   50.00000   90.00000   90.00000   90.00000
LATT -1
SFAC C  
C      1  0.5527870000000  0.4540890000000  0.5108710000000 1.0
C      1  0.5507890000000  0.5511540000000  0.4798640000000 1.0
C      1  0.5613610000000  0.5523330000000  0.5074910000000 1.0
C      1  0.5497310000000  0.4573620000000  0.4769600000000 1.0
C      1  0.4680520000000  0.5282090000000  0.4498930000000 1.0
C      1  0.4679560000000  0.4695560000000  0.5516460000000 1.0
C      1  0.4698800000000  0.4758060000000  0.4536780000000 1.0
C      1  0.4659000000000  0.5263150000000  0.5483170000000 1.0
C      1  0.4102450000000  0.5451820000000  0.5480380000000 1.0
C      1  0.4130950000000  0.4589530000000  0.4595770000000 1.0
C      1  0.4089010000000  0.4468080000000  0.5531440000000 1.0
C      1  0.4093680000000  0.5508990000000  0.4511670000000 1.0
C      1  0.4137250000000  0.5844180000000  0.4917970000000 1.0
C      1  0.4199200000000  0.4188540000000  0.5093650000000 1.0
C      1  0.4270490000000  0.4316210000000  0.4850710000000 1.0
C      1  0.4182340000000  0.5670900000000  0.5142690000000 1.0
C      1  0.5658490000000  0.4827870000000  0.4472280000000 1.0
C      1  0.5611080000000  0.5134150000000  0.5524320000000 1.0
C      1  0.5621860000000  0.5128030000000  0.4464680000000 1.0
C      1  0.5615460000000  0.4831560000000  0.5503710000000 1.0
C      1  0.4348070000000  0.5564670000000  0.5686670000000 1.0
C      1  0.4393200000000  0.4419740000000  0.4459450000000 1.0
C      1  0.4312200000000  0.4344700000000  0.5750860000000 1.0
C      1  0.4237340000000  0.5723770000000  0.4300970000000 1.0
C      1  0.5504740000000  0.4845750000000  0.5887570000000 1.0
C      1  0.5487900000000  0.5142170000000  0.4014000000000 1.0
C      1  0.5559670000000  0.5175900000000  0.5915360000000 1.0
C      1  0.5491710000000  0.4828140000000  0.4093470000000 1.0
C      1  0.4890660000000  0.4555540000000  0.4822660000000 1.0
C      1  0.4818460000000  0.5472210000000  0.5136720000000 1.0
C      1  0.4867390000000  0.5393730000000  0.4833450000000 1.0
C      1  0.4857220000000  0.4455070000000  0.5126950000000 1.0
C      1  0.5704840000000  0.5513540000000  0.5608550000000 1.0
C      1  0.5812200000000  0.4472410000000  0.4376950000000 1.0
C      1  0.5709260000000  0.4427450000000  0.5585130000000 1.0
C      1  0.5807190000000  0.5517190000000  0.4331780000000 1.0
C      1  0.4567630000000  0.5486500000000  0.4825850000000 1.0
C      1  0.4562970000000  0.4468500000000  0.5208820000000 1.0
C      1  0.4558560000000  0.4496950000000  0.4866700000000 1.0
C      1  0.4496760000000  0.5552290000000  0.5154200000000 1.0
C      1  0.4889010000000  0.4427440000000  0.5523570000000 1.0
C      1  0.4799250000000  0.5549160000000  0.4372300000000 1.0
C      1  0.4822150000000  0.5560510000000  0.5508800000000 1.0
C      1  0.4936660000000  0.4540630000000  0.4427270000000 1.0
C      1  0.5155870000000  0.4351870000000  0.4839610000000 1.0
C      1  0.5116310000000  0.5586720000000  0.5130170000000 1.0
C      1  0.5119540000000  0.5588250000000  0.4786900000000 1.0
C      1  0.5224740000000  0.4298800000000  0.5133540000000 1.0
C      1  0.5384990000000  0.5674680000000  0.5432000000000 1.0
C      1  0.5338970000000  0.4187210000000  0.4429630000000 1.0
C      1  0.5246950000000  0.4150760000000  0.5565220000000 1.0
C      1  0.5293360000000  0.5827380000000  0.4425730000000 1.0
C      1  0.5308480000000  0.4743350000000  0.5263000000000 1.0
C      1  0.5433000000000  0.5191530000000  0.4728900000000 1.0
C      1  0.5302960000000  0.5079850000000  0.5234800000000 1.0
C      1  0.5368690000000  0.4863520000000  0.4646620000000 1.0
C      1  0.4959550000000  0.4832610000000  0.5504840000000 1.0
C      1  0.4986240000000  0.5192990000000  0.4513150000000 1.0
C      1  0.4955390000000  0.5139130000000  0.5483360000000 1.0
C      1  0.4972090000000  0.4892730000000  0.4606050000000 1.0
C      1  0.5252910000000  0.4494690000000  0.4546510000000 1.0
C      1  0.5277220000000  0.5394820000000  0.5360280000000 1.0
C      1  0.5314300000000  0.5509910000000  0.4519080000000 1.0
C      1  0.5216970000000  0.4462430000000  0.5431600000000 1.0
C      1  0.4980020000000  0.4751020000000  0.5175310000000 1.0
C      1  0.5115640000000  0.5191040000000  0.4827670000000 1.0
C      1  0.4989460000000  0.5178520000000  0.5147220000000 1.0
C      1  0.5117130000000  0.4794880000000  0.4866730000000 1.0
C      1  0.4616580000000  0.3965500000000  0.4991680000000 1.0
C      1  0.4679490000000  0.5934680000000  0.5117970000000 1.0
C      1  0.4609200000000  0.6004940000000  0.4871150000000 1.0
C      1  0.4716000000000  0.3958730000000  0.5242990000000 1.0
C      1  0.4839200000000  0.4513690000000  0.5910010000000 1.0
C      1  0.4940070000000  0.5427460000000  0.4087280000000 1.0
C      1  0.4839110000000  0.5494130000000  0.5926740000000 1.0
C      1  0.4994560000000  0.4624600000000  0.4110170000000 1.0
C      1  0.4175580000000  0.4910970000000  0.4510570000000 1.0
C      1  0.4163780000000  0.5125640000000  0.5542720000000 1.0
C      1  0.4140630000000  0.5225430000000  0.4423030000000 1.0
C      1  0.4103280000000  0.4798060000000  0.5547540000000 1.0
C      1  0.5727820000000  0.4795760000000  0.4884490000000 1.0
C      1  0.5607430000000  0.5229240000000  0.5208670000000 1.0
C      1  0.5651660000000  0.5091160000000  0.4929060000000 1.0
C      1  0.5720230000000  0.4769420000000  0.5223620000000 1.0
C      1  0.5072370000000  0.5990250000000  0.4810920000000 1.0
C      1  0.5098490000000  0.3919730000000  0.5137320000000 1.0
C      1  0.5145440000000  0.3952700000000  0.4836480000000 1.0
C      1  0.5097910000000  0.6046260000000  0.5138960000000 1.0
C      1  0.5446500000000  0.3990210000000  0.4820310000000 1.0
C      1  0.5383170000000  0.6020520000000  0.5058840000000 1.0
C      1  0.5387680000000  0.6024370000000  0.4762720000000 1.0
C      1  0.5418220000000  0.3910400000000  0.5119920000000 1.0
C      1  0.4529090000000  0.5740950000000  0.4317510000000 1.0
C      1  0.4622840000000  0.4364850000000  0.5726270000000 1.0
C      1  0.4662570000000  0.4361860000000  0.4505680000000 1.0
C      1  0.4610260000000  0.5557930000000  0.5747960000000 1.0
C      1  0.4934270000000  0.5811750000000  0.5308740000000 1.0
C      1  0.4970610000000  0.4134400000000  0.4655260000000 1.0
C      1  0.4960400000000  0.4190390000000  0.5290290000000 1.0
C      1  0.4922830000000  0.5781510000000  0.4587780000000 1.0
C      1  0.4036540000000  0.5468120000000  0.4826240000000 1.0
C      1  0.4013640000000  0.4643190000000  0.5249870000000 1.0
C      1  0.4000850000000  0.4636450000000  0.4907700000000 1.0
C      1  0.3982330000000  0.5424140000000  0.5159620000000 1.0
C      1  0.5125120000000  0.4745100000000  0.5753650000000 1.0
C      1  0.5203660000000  0.5205070000000  0.4285630000000 1.0
C      1  0.5086800000000  0.5242360000000  0.5740810000000 1.0
C      1  0.5192320000000  0.4883830000000  0.4368700000000 1.0
C      1  0.5825860000000  0.5626510000000  0.4587250000000 1.0
C      1  0.5717570000000  0.4289240000000  0.5353670000000 1.0
C      1  0.5837460000000  0.4372530000000  0.4633680000000 1.0
C      1  0.5786760000000  0.5674070000000  0.5398270000000 1.0
C      1  0.4992560000000  0.4082600000000  0.5706010000000 1.0
C      1  0.5009930000000  0.5976400000000  0.4323110000000 1.0
C      1  0.4913530000000  0.5941040000000  0.5809170000000 1.0
C      1  0.5027060000000  0.4087430000000  0.4350720000000 1.0
C      1  0.4858000000000  0.4852320000000  0.5934730000000 1.0
C      1  0.4768870000000  0.5154130000000  0.3978740000000 1.0
C      1  0.4867490000000  0.5160830000000  0.5987620000000 1.0
C      1  0.4786200000000  0.4863010000000  0.3985920000000 1.0
C      1  0.4925920000000  0.6240310000000  0.4223790000000 1.0
C      1  0.4740190000000  0.4017030000000  0.5571790000000 1.0
C      1  0.4900000000000  0.3853970000000  0.4214220000000 1.0
C      1  0.4777530000000  0.5950680000000  0.5576610000000 1.0
C      1  0.5962030000000  0.5133250000000  0.4830530000000 1.0
C      1  0.5997070000000  0.4905810000000  0.5157380000000 1.0
C      1  0.6062650000000  0.4807600000000  0.4850270000000 1.0
C      1  0.5938830000000  0.5164490000000  0.5249220000000 1.0
C      1  0.5840830000000  0.4408070000000  0.5103510000000 1.0
C      1  0.5943520000000  0.5470030000000  0.4809940000000 1.0
C      1  0.5933150000000  0.5607680000000  0.5098640000000 1.0
C      1  0.5969220000000  0.4480240000000  0.4858670000000 1.0
C      1  0.5872090000000  0.5235290000000  0.4276040000000 1.0
C      1  0.5809370000000  0.4672470000000  0.5733280000000 1.0
C      1  0.5913300000000  0.4735820000000  0.4266810000000 1.0
C      1  0.5874390000000  0.5275490000000  0.5686490000000 1.0
C      1  0.5492670000000  0.4572660000000  0.4317870000000 1.0
C      1  0.5403050000000  0.5357600000000  0.5674220000000 1.0
C      1  0.5497720000000  0.5374820000000  0.4266460000000 1.0
C      1  0.5421890000000  0.4602700000000  0.5664540000000 1.0
C      1  0.4563970000000  0.4715120000000  0.5908310000000 1.0
C      1  0.4502460000000  0.5224360000000  0.4035410000000 1.0
C      1  0.4548750000000  0.5222120000000  0.5955470000000 1.0
C      1  0.4535350000000  0.4755010000000  0.4060340000000 1.0
C      1  0.5297570000000  0.5621760000000  0.5860580000000 1.0
C      1  0.5448250000000  0.4338080000000  0.4075760000000 1.0
C      1  0.5311770000000  0.4389920000000  0.5905960000000 1.0
C      1  0.5392080000000  0.5641740000000  0.4086150000000 1.0
C      1  0.5030110000000  0.5699260000000  0.5909070000000 1.0
C      1  0.5153510000000  0.4336160000000  0.4164480000000 1.0
C      1  0.5051470000000  0.4299290000000  0.5910370000000 1.0
C      1  0.5104150000000  0.5696860000000  0.4159720000000 1.0
C      1  0.4411060000000  0.4836920000000  0.5662000000000 1.0
C      1  0.4435330000000  0.5155420000000  0.4331790000000 1.0
C      1  0.4459950000000  0.5154440000000  0.5691850000000 1.0
C      1  0.4465570000000  0.4834090000000  0.4350450000000 1.0
C      1  0.5178820000000  0.4892200000000  0.4038940000000 1.0
C      1  0.5266130000000  0.5147230000000  0.5990060000000 1.0
C      1  0.5161590000000  0.5211850000000  0.3948280000000 1.0
C      1  0.5230640000000  0.4850530000000  0.6059250000000 1.0
C      1  0.4201840000000  0.5170440000000  0.5215290000000 1.0
C      1  0.4226580000000  0.4883070000000  0.4845590000000 1.0
C      1  0.4234740000000  0.4854940000000  0.5175090000000 1.0
C      1  0.4207170000000  0.5212930000000  0.4881850000000 1.0
C      1  0.4221300000000  0.5773210000000  0.5458750000000 1.0
C      1  0.4138520000000  0.4254890000000  0.4573710000000 1.0
C      1  0.4244650000000  0.4257540000000  0.5349890000000 1.0
C      1  0.4241980000000  0.5772860000000  0.4666590000000 1.0
C      1  0.4540940000000  0.5807390000000  0.5378820000000 1.0
C      1  0.4687340000000  0.4192770000000  0.4785330000000 1.0
C      1  0.4537960000000  0.4254370000000  0.5435400000000 1.0
C      1  0.4581700000000  0.5765580000000  0.4652490000000 1.0
C      1  0.4500130000000  0.4771160000000  0.5267370000000 1.0
C      1  0.4509940000000  0.5160020000000  0.4749670000000 1.0
C      1  0.4522840000000  0.5218020000000  0.5211710000000 1.0
C      1  0.4567300000000  0.4835780000000  0.4834920000000 1.0
C      1  0.5554100000000  0.5832110000000  0.5207230000000 1.0
C      1  0.5552920000000  0.4246120000000  0.4687290000000 1.0
C      1  0.5467700000000  0.4143740000000  0.5313900000000 1.0
C      1  0.5557800000000  0.5799560000000  0.4638330000000 1.0
C      1  0.4726350000000  0.4966760000000  0.5105600000000 1.0
END
