TITL C-2622966-9038-226 0.00360077936651265 125000 -646.383902260423 0 0 118 (C1) n - 1
REM
REM in /nfs/bkarasulu/CARBON/AIRSS/Generating-Clusters/AIREBO/with-SteepDescent/Higher-Symm/SD-CG/HFTN-CG
REM
REM
REM
REM
REM
REM ./C.cell (b20cbc046b6831c77cfcea5457e17084)
REM
REM compiler GCC version 9.2.1 20190827 (Red Hat 9.2.1-1)
REM options -cpp -mtune=generic -march=x86-64 -g -O0 -fpre-include=/usr/include/finclude/math-vector-fortran.h
REM seed 2122852286 -1709117705 -765676401 -1227107593 1902317371 -316585361 -1837786250 -566450051 -168694821 2001383923 -1501660225 -1707265800 -1404545380 474939345 -1534694268 2098996217 1431330057 1350691473 1596818381 -152199257 1832541124 -163908293 477911956 -1241451927 1695018099 1498990682 -590633715 -964969449 1677387713 1523124986 -2145710476 -1888364070 -1985774274
REM
CELL 1.54180   50.00000   50.00000   50.00000   90.00000   90.00000   90.00000
LATT -1
SFAC C  
C      1  0.5739690000000  0.5198010000000  0.5416180000000 1.0
C      1  0.4952980000000  0.5254990000000  0.4021840000000 1.0
C      1  0.4253430000000  0.5162330000000  0.5508330000000 1.0
C      1  0.5825300000000  0.4809570000000  0.5385830000000 1.0
C      1  0.4980290000000  0.4870280000000  0.4180490000000 1.0
C      1  0.4252370000000  0.4764430000000  0.5522290000000 1.0
C      1  0.4775620000000  0.5877030000000  0.4713810000000 1.0
C      1  0.4869280000000  0.5751590000000  0.5302120000000 1.0
C      1  0.5260820000000  0.5803630000000  0.4886040000000 1.0
C      1  0.4773460000000  0.4215930000000  0.4749000000000 1.0
C      1  0.4845380000000  0.4153450000000  0.5306400000000 1.0
C      1  0.5329200000000  0.4201560000000  0.4959470000000 1.0
C      1  0.5156120000000  0.4432950000000  0.4497050000000 1.0
C      1  0.4361970000000  0.4449220000000  0.5196290000000 1.0
C      1  0.5359970000000  0.4452670000000  0.5431420000000 1.0
C      1  0.5233270000000  0.5412740000000  0.4480810000000 1.0
C      1  0.4487930000000  0.5438560000000  0.5168100000000 1.0
C      1  0.5331280000000  0.5352760000000  0.5459200000000 1.0
C      1  0.5172130000000  0.5138870000000  0.5868830000000 1.0
C      1  0.5659100000000  0.5165040000000  0.4316640000000 1.0
C      1  0.4192160000000  0.5183540000000  0.4747010000000 1.0
C      1  0.5092930000000  0.4811360000000  0.5922300000000 1.0
C      1  0.5743290000000  0.4870590000000  0.4368290000000 1.0
C      1  0.4151920000000  0.4871560000000  0.4712350000000 1.0
C      1  0.4967470000000  0.4678520000000  0.4637720000000 1.0
C      1  0.4577100000000  0.4693700000000  0.5190560000000 1.0
C      1  0.5342740000000  0.4701130000000  0.5199770000000 1.0
C      1  0.4955950000000  0.5279350000000  0.4491320000000 1.0
C      1  0.4655600000000  0.5195250000000  0.5286320000000 1.0
C      1  0.5424840000000  0.5268390000000  0.5184170000000 1.0
C      1  0.4969590000000  0.5887100000000  0.4510160000000 1.0
C      1  0.4585930000000  0.5743110000000  0.5220590000000 1.0
C      1  0.5361750000000  0.5869680000000  0.5147420000000 1.0
C      1  0.5018130000000  0.4156450000000  0.4573680000000 1.0
C      1  0.4547670000000  0.4188590000000  0.5164380000000 1.0
C      1  0.5390260000000  0.4158930000000  0.5260730000000 1.0
C      1  0.5241950000000  0.4040160000000  0.4753820000000 1.0
C      1  0.4503140000000  0.4111630000000  0.4867820000000 1.0
C      1  0.5116010000000  0.4136780000000  0.5423720000000 1.0
C      1  0.5244140000000  0.5861080000000  0.4602780000000 1.0
C      1  0.4545550000000  0.5872750000000  0.4942870000000 1.0
C      1  0.5162530000000  0.5859340000000  0.5352060000000 1.0
C      1  0.4479540000000  0.5201980000000  0.4927840000000 1.0
C      1  0.5390870000000  0.5153950000000  0.5652150000000 1.0
C      1  0.5429630000000  0.5201220000000  0.4544730000000 1.0
C      1  0.4302660000000  0.4924960000000  0.5015090000000 1.0
C      1  0.5317610000000  0.4875900000000  0.5558480000000 1.0
C      1  0.5402330000000  0.4902000000000  0.4461460000000 1.0
C      1  0.5140190000000  0.5584920000000  0.5539310000000 1.0
C      1  0.5386290000000  0.5668650000000  0.4437190000000 1.0
C      1  0.4470670000000  0.5626840000000  0.4751400000000 1.0
C      1  0.5030260000000  0.4461340000000  0.5477760000000 1.0
C      1  0.5470930000000  0.4424810000000  0.4631250000000 1.0
C      1  0.4453260000000  0.4435820000000  0.4807740000000 1.0
C      1  0.4731240000000  0.4554320000000  0.4427040000000 1.0
C      1  0.4645810000000  0.4565290000000  0.5497800000000 1.0
C      1  0.5646940000000  0.4572720000000  0.5118210000000 1.0
C      1  0.4924990000000  0.5453060000000  0.4230550000000 1.0
C      1  0.4361220000000  0.5460410000000  0.5608470000000 1.0
C      1  0.5651110000000  0.5497310000000  0.5280950000000 1.0
C      1  0.4590920000000  0.4778130000000  0.5828130000000 1.0
C      1  0.5911010000000  0.4847430000000  0.4938470000000 1.0
C      1  0.4503140000000  0.4854500000000  0.4223530000000 1.0
C      1  0.4568770000000  0.5068450000000  0.5922470000000 1.0
C      1  0.5914020000000  0.5160780000000  0.4937110000000 1.0
C      1  0.4486000000000  0.5184980000000  0.4199770000000 1.0
C      1  0.4105650000000  0.4582600000000  0.5120210000000 1.0
C      1  0.5485330000000  0.4565170000000  0.5711130000000 1.0
C      1  0.5361280000000  0.4554020000000  0.4272910000000 1.0
C      1  0.4168030000000  0.5390990000000  0.5087950000000 1.0
C      1  0.5537010000000  0.5434690000000  0.5894310000000 1.0
C      1  0.5431000000000  0.5325630000000  0.4022870000000 1.0
C      1  0.5577470000000  0.4808100000000  0.4882890000000 1.0
C      1  0.4576300000000  0.4828720000000  0.4554740000000 1.0
C      1  0.4848910000000  0.4794080000000  0.5606030000000 1.0
C      1  0.5624450000000  0.5116530000000  0.4880010000000 1.0
C      1  0.4579570000000  0.5142530000000  0.4486600000000 1.0
C      1  0.4873650000000  0.5052580000000  0.5825650000000 1.0
C      1  0.4798220000000  0.4294890000000  0.4357980000000 1.0
C      1  0.4610760000000  0.4282360000000  0.5481980000000 1.0
C      1  0.5677490000000  0.4312790000000  0.5206420000000 1.0
C      1  0.4914020000000  0.5730040000000  0.4276230000000 1.0
C      1  0.4392990000000  0.5681250000000  0.5471150000000 1.0
C      1  0.5613390000000  0.5752780000000  0.5215170000000 1.0
C      1  0.4348820000000  0.4660620000000  0.5747860000000 1.0
C      1  0.5998770000000  0.4748450000000  0.5190400000000 1.0
C      1  0.4737780000000  0.4796030000000  0.4032220000000 1.0
C      1  0.4374150000000  0.5225910000000  0.5817120000000 1.0
C      1  0.5968260000000  0.5275540000000  0.5192460000000 1.0
C      1  0.4710230000000  0.5107010000000  0.3993930000000 1.0
C      1  0.5324410000000  0.5275390000000  0.4859470000000 1.0
C      1  0.4751050000000  0.5266370000000  0.4752840000000 1.0
C      1  0.4958220000000  0.5139840000000  0.5239050000000 1.0
C      1  0.5289000000000  0.4764590000000  0.4707400000000 1.0
C      1  0.4571690000000  0.4811990000000  0.4871700000000 1.0
C      1  0.5068070000000  0.4836740000000  0.5348340000000 1.0
C      1  0.5698100000000  0.5171520000000  0.5748310000000 1.0
C      1  0.5216830000000  0.5139040000000  0.4003870000000 1.0
C      1  0.4045190000000  0.5207970000000  0.5269630000000 1.0
C      1  0.5646050000000  0.4848860000000  0.5642290000000 1.0
C      1  0.5283100000000  0.4846860000000  0.4154410000000 1.0
C      1  0.4105760000000  0.4881860000000  0.5257300000000 1.0
C      1  0.5169960000000  0.4576590000000  0.5766710000000 1.0
C      1  0.5635570000000  0.4583410000000  0.4401490000000 1.0
C      1  0.4205570000000  0.4582190000000  0.4837230000000 1.0
C      1  0.5244150000000  0.5470210000000  0.5842880000000 1.0
C      1  0.5560800000000  0.5466770000000  0.4259500000000 1.0
C      1  0.4232180000000  0.5487510000000  0.4791910000000 1.0
C      1  0.4900060000000  0.4587190000000  0.5189790000000 1.0
C      1  0.5308730000000  0.4516270000000  0.4916140000000 1.0
C      1  0.4770180000000  0.4538380000000  0.4876850000000 1.0
C      1  0.5028010000000  0.5472620000000  0.5237350000000 1.0
C      1  0.5120030000000  0.5538160000000  0.4928920000000 1.0
C      1  0.4793790000000  0.5577010000000  0.4854760000000 1.0
C      1  0.4938780000000  0.4963740000000  0.4454810000000 1.0
C      1  0.5551940000000  0.4963760000000  0.5255070000000 1.0
C      1  0.4479520000000  0.4965980000000  0.5369360000000 1.0
C      1  0.5015660000000  0.5152180000000  0.4931210000000 1.0
END
