TITL C-2622958-629-650 0.00188529941959462 125000 -216.33227804763 0 0 42 (C1) n - 1
REM
REM in /nfs/bkarasulu/CARBON/AIRSS/Generating-Clusters/AIREBO/with-SteepDescent/Higher-Symm/SD-CG/HFTN-CG
REM
REM
REM
REM
REM
REM ./C.cell (b20cbc046b6831c77cfcea5457e17084)
REM
REM compiler GCC version 9.2.1 20190827 (Red Hat 9.2.1-1)
REM options -cpp -mtune=generic -march=x86-64 -g -O0 -fpre-include=/usr/include/finclude/math-vector-fortran.h
REM seed -1157143229 660233989 347398136 -1099498209 2057510288 -2008109851 1668048020 1208622067 -495361755 152114045 -936384300 -1201506155 1001574952 -1069338126 725617739 567825659 -1222310303 -1870766596 290085445 -803728190 -652139259 397109676 -1625852706 406899599 -868054501 -1101633002 -1715475033 50044992 139648146 1104459664 -180507992 -1553853514 1089327517
REM
CELL 1.54180   50.00000   50.00000   50.00000   90.00000   90.00000   90.00000
LATT -1
SFAC C  
C      1  0.5000480000000  0.4744860000000  0.5753720000000 1.0
C      1  0.5268900000000  0.4941480000000  0.5707490000000 1.0
C      1  0.5266860000000  0.5194030000000  0.5847080000000 1.0
C      1  0.4990290000000  0.5266600000000  0.5849750000000 1.0
C      1  0.4862920000000  0.5047820000000  0.5710970000000 1.0
C      1  0.5391710000000  0.5626810000000  0.5203560000000 1.0
C      1  0.4391220000000  0.5481450000000  0.5243340000000 1.0
C      1  0.4374250000000  0.4701060000000  0.5301550000000 1.0
C      1  0.5049830000000  0.4218890000000  0.5251290000000 1.0
C      1  0.5757210000000  0.4852050000000  0.5241300000000 1.0
C      1  0.5006440000000  0.5223290000000  0.4285250000000 1.0
C      1  0.4865030000000  0.5001550000000  0.4157130000000 1.0
C      1  0.5025900000000  0.4768640000000  0.4207470000000 1.0
C      1  0.5256250000000  0.4861540000000  0.4365250000000 1.0
C      1  0.5297200000000  0.5145290000000  0.4277650000000 1.0
C      1  0.4646690000000  0.4576390000000  0.4642050000000 1.0
C      1  0.5377370000000  0.4522380000000  0.4680930000000 1.0
C      1  0.5467390000000  0.5252480000000  0.4705210000000 1.0
C      1  0.4913330000000  0.5582720000000  0.4646340000000 1.0
C      1  0.4286270000000  0.5222690000000  0.4721690000000 1.0
C      1  0.5665320000000  0.5144100000000  0.4863530000000 1.0
C      1  0.5030500000000  0.5687910000000  0.4870850000000 1.0
C      1  0.4518770000000  0.5211240000000  0.4865420000000 1.0
C      1  0.4451690000000  0.4580640000000  0.4838050000000 1.0
C      1  0.5317070000000  0.4325920000000  0.4861620000000 1.0
C      1  0.5221670000000  0.4823710000000  0.4688910000000 1.0
C      1  0.5168620000000  0.5152850000000  0.4756190000000 1.0
C      1  0.4940200000000  0.5283170000000  0.4571480000000 1.0
C      1  0.4774580000000  0.5067380000000  0.4739970000000 1.0
C      1  0.4891440000000  0.4748750000000  0.4719490000000 1.0
C      1  0.4508690000000  0.4735780000000  0.5070750000000 1.0
C      1  0.5114140000000  0.4382540000000  0.5048070000000 1.0
C      1  0.5594040000000  0.4939420000000  0.5046370000000 1.0
C      1  0.5176910000000  0.5539370000000  0.5059480000000 1.0
C      1  0.4566520000000  0.5322400000000  0.5115120000000 1.0
C      1  0.4999260000000  0.4630490000000  0.5003390000000 1.0
C      1  0.5332200000000  0.4850900000000  0.5009360000000 1.0
C      1  0.5094970000000  0.5245490000000  0.5055790000000 1.0
C      1  0.4817760000000  0.5255220000000  0.5225160000000 1.0
C      1  0.4722420000000  0.4915840000000  0.5039880000000 1.0
C      1  0.5039000000000  0.4927850000000  0.5163540000000 1.0
C      1  0.5043780000000  0.4907370000000  0.5454950000000 1.0
END
