TITL C-2622965-4321-249 0.00118095006816109 125000 -99.2072505763513 0 0 18 (C1) n - 1
REM
REM in /nfs/bkarasulu/CARBON/AIRSS/Generating-Clusters/AIREBO/with-SteepDescent/Higher-Symm/SD-CG/HFTN-CG
REM
REM
REM
REM
REM
REM ./C.cell (b20cbc046b6831c77cfcea5457e17084)
REM
REM compiler GCC version 9.2.1 20190827 (Red Hat 9.2.1-1)
REM options -cpp -mtune=generic -march=x86-64 -g -O0 -fpre-include=/usr/include/finclude/math-vector-fortran.h
REM seed -688242546 2088362623 1100634725 -1793659340 -1625790186 -1644928388 -1136453551 -1216080238 901810349 1069658977 -2009873963 589055407 -1182004771 1041712185 -749869701 -681617245 -323734028 -63204427 251958440 1461709390 -707002441 599612785 224215841 -958732330 661172844 -284090557 -1005897528 1342944687 1669783098 -1011830478 821014486 -1947873279 1371966631
REM
CELL 1.54180   50.00000   50.00000   50.00000   90.00000   90.00000   90.00000
LATT -1
SFAC C  
C      1  0.4741330000000  0.5160430000000  0.5179530000000 1.0
C      1  0.5256270000000  0.5150100000000  0.4820150000000 1.0
C      1  0.4693360000000  0.4891280000000  0.5126410000000 1.0
C      1  0.5317070000000  0.4888150000000  0.4887980000000 1.0
C      1  0.4641300000000  0.5066740000000  0.4685180000000 1.0
C      1  0.5333270000000  0.5058640000000  0.5337770000000 1.0
C      1  0.4685160000000  0.4832600000000  0.4844050000000 1.0
C      1  0.5291680000000  0.4830760000000  0.5172980000000 1.0
C      1  0.4829610000000  0.4704430000000  0.5295050000000 1.0
C      1  0.5195260000000  0.4672020000000  0.4734040000000 1.0
C      1  0.4892970000000  0.5325940000000  0.5382030000000 1.0
C      1  0.5100610000000  0.5306400000000  0.4615120000000 1.0
C      1  0.4869290000000  0.4634670000000  0.4751490000000 1.0
C      1  0.5090020000000  0.4619730000000  0.5209100000000 1.0
C      1  0.4815810000000  0.5286650000000  0.4715130000000 1.0
C      1  0.5180350000000  0.5291470000000  0.5289500000000 1.0
C      1  0.5065530000000  0.4469770000000  0.4954100000000 1.0
C      1  0.5001120000000  0.5292210000000  0.5000390000000 1.0
END
