TITL C-2622955-8511-140 0.000353627279179354 125000 -664.279030373349 0 0 120 (C1) n - 1
REM
REM in /nfs/bkarasulu/CARBON/AIRSS/Generating-Clusters/AIREBO/with-SteepDescent/Higher-Symm/SD-CG/HFTN-CG
REM
REM
REM
REM
REM
REM ./C.cell (b20cbc046b6831c77cfcea5457e17084)
REM
REM compiler GCC version 9.2.1 20190827 (Red Hat 9.2.1-1)
REM options -cpp -mtune=generic -march=x86-64 -g -O0 -fpre-include=/usr/include/finclude/math-vector-fortran.h
REM seed 969754936 200068917 249372439 1617708091 846016498 226496955 606674313 676556763 1136261081 872589730 -1542233051 187106438 -1009567784 378519371 -265429416 -1642967770 -1125299896 -1442996232 -193233521 -1392221641 -724332709 -1448442593 964263275 942090701 1063638138 771760479 -1951482304 1445077646 -1800709091 756805532 -1927322541 -5756195 1590607533
REM
CELL 1.54180   50.00000   50.00000   50.00000   90.00000   90.00000   90.00000
LATT -1
SFAC C  
C      1  0.5126770000000  0.5977520000000  0.5351680000000 1.0
C      1  0.5100350000000  0.4285860000000  0.5518650000000 1.0
C      1  0.5134950000000  0.4873550000000  0.4115090000000 1.0
C      1  0.4904960000000  0.5802260000000  0.5344270000000 1.0
C      1  0.4818550000000  0.4312670000000  0.5527890000000 1.0
C      1  0.4862450000000  0.4822920000000  0.4136810000000 1.0
C      1  0.4731060000000  0.4932030000000  0.4405180000000 1.0
C      1  0.4971180000000  0.5507220000000  0.5377000000000 1.0
C      1  0.4689830000000  0.4522810000000  0.5293570000000 1.0
C      1  0.5247350000000  0.5023690000000  0.4397940000000 1.0
C      1  0.5296770000000  0.5480820000000  0.5282640000000 1.0
C      1  0.5243330000000  0.4487120000000  0.5284820000000 1.0
C      1  0.5972000000000  0.4673760000000  0.5071490000000 1.0
C      1  0.5951390000000  0.5101480000000  0.4616800000000 1.0
C      1  0.6008650000000  0.5297410000000  0.5262730000000 1.0
C      1  0.4035260000000  0.4687070000000  0.5227620000000 1.0
C      1  0.4020540000000  0.5021110000000  0.4633470000000 1.0
C      1  0.3978960000000  0.5309250000000  0.5231670000000 1.0
C      1  0.4815510000000  0.4336160000000  0.5038490000000 1.0
C      1  0.4861340000000  0.5435700000000  0.4402750000000 1.0
C      1  0.4951550000000  0.5351980000000  0.5645080000000 1.0
C      1  0.5139730000000  0.4333180000000  0.5001560000000 1.0
C      1  0.5164500000000  0.5340400000000  0.4398030000000 1.0
C      1  0.5237120000000  0.5270100000000  0.5723430000000 1.0
C      1  0.5128040000000  0.5004500000000  0.4713580000000 1.0
C      1  0.5149030000000  0.5234000000000  0.5149460000000 1.0
C      1  0.5138050000000  0.4762710000000  0.5140690000000 1.0
C      1  0.4832450000000  0.5011740000000  0.4710020000000 1.0
C      1  0.4840350000000  0.5277870000000  0.5153570000000 1.0
C      1  0.4848030000000  0.4779720000000  0.5141290000000 1.0
C      1  0.4437680000000  0.5105960000000  0.4842540000000 1.0
C      1  0.4449030000000  0.4965680000000  0.5253600000000 1.0
C      1  0.4446440000000  0.4807630000000  0.4888250000000 1.0
C      1  0.5546230000000  0.5206690000000  0.4923900000000 1.0
C      1  0.5565440000000  0.5004610000000  0.5194640000000 1.0
C      1  0.5532510000000  0.4801960000000  0.4811580000000 1.0
C      1  0.4025080000000  0.5440310000000  0.4957190000000 1.0
C      1  0.3933340000000  0.4880970000000  0.5409560000000 1.0
C      1  0.4015040000000  0.4751480000000  0.4721760000000 1.0
C      1  0.5959430000000  0.5453570000000  0.5016070000000 1.0
C      1  0.6032280000000  0.4828700000000  0.5297250000000 1.0
C      1  0.5929450000000  0.4819770000000  0.4593760000000 1.0
C      1  0.4428810000000  0.5393530000000  0.5591750000000 1.0
C      1  0.4520210000000  0.4247790000000  0.4957460000000 1.0
C      1  0.4540840000000  0.5332550000000  0.4355010000000 1.0
C      1  0.5577010000000  0.5310510000000  0.5673160000000 1.0
C      1  0.5472600000000  0.4286850000000  0.5025590000000 1.0
C      1  0.5468860000000  0.5454800000000  0.4424520000000 1.0
C      1  0.6076980000000  0.4685780000000  0.4800630000000 1.0
C      1  0.6096890000000  0.5289870000000  0.4769460000000 1.0
C      1  0.6177890000000  0.5076100000000  0.5258740000000 1.0
C      1  0.3906710000000  0.4679850000000  0.4975910000000 1.0
C      1  0.3871770000000  0.5230980000000  0.4740750000000 1.0
C      1  0.3798300000000  0.5113170000000  0.5306540000000 1.0
C      1  0.5182280000000  0.5613390000000  0.5027600000000 1.0
C      1  0.5125200000000  0.4684200000000  0.5535540000000 1.0
C      1  0.5199130000000  0.4697130000000  0.4467860000000 1.0
C      1  0.4895880000000  0.5660020000000  0.4970550000000 1.0
C      1  0.4827800000000  0.4718960000000  0.5534750000000 1.0
C      1  0.4900320000000  0.4677700000000  0.4507060000000 1.0
C      1  0.5186810000000  0.5491360000000  0.4701910000000 1.0
C      1  0.5254690000000  0.4981310000000  0.5605010000000 1.0
C      1  0.5199490000000  0.4469500000000  0.4720450000000 1.0
C      1  0.4782150000000  0.5520850000000  0.4687700000000 1.0
C      1  0.4795420000000  0.5053070000000  0.5610880000000 1.0
C      1  0.4799870000000  0.4462530000000  0.4733210000000 1.0
C      1  0.5452570000000  0.5411880000000  0.5944970000000 1.0
C      1  0.5575340000000  0.4045660000000  0.5022150000000 1.0
C      1  0.5430930000000  0.5729450000000  0.4492910000000 1.0
C      1  0.4639890000000  0.5404130000000  0.5719710000000 1.0
C      1  0.4436750000000  0.4002020000000  0.4943820000000 1.0
C      1  0.4666520000000  0.5528870000000  0.4139650000000 1.0
C      1  0.5667060000000  0.5255650000000  0.4617720000000 1.0
C      1  0.5729830000000  0.5205680000000  0.5425450000000 1.0
C      1  0.5674200000000  0.4560280000000  0.5003170000000 1.0
C      1  0.4312690000000  0.5166490000000  0.4544810000000 1.0
C      1  0.4268570000000  0.5224300000000  0.5377930000000 1.0
C      1  0.4353290000000  0.4496660000000  0.4954060000000 1.0
C      1  0.4437060000000  0.4888500000000  0.4403290000000 1.0
C      1  0.4385250000000  0.5315010000000  0.5071690000000 1.0
C      1  0.4369880000000  0.4635170000000  0.5264240000000 1.0
C      1  0.5552650000000  0.4970150000000  0.4516510000000 1.0
C      1  0.5583410000000  0.5403960000000  0.5193340000000 1.0
C      1  0.5525670000000  0.4676530000000  0.5276080000000 1.0
C      1  0.4326910000000  0.5595680000000  0.4936070000000 1.0
C      1  0.4351090000000  0.4742410000000  0.5586560000000 1.0
C      1  0.4388800000000  0.4609830000000  0.4434610000000 1.0
C      1  0.5674170000000  0.5636120000000  0.4980960000000 1.0
C      1  0.5609010000000  0.4708870000000  0.5582070000000 1.0
C      1  0.5658470000000  0.4658610000000  0.4463310000000 1.0
C      1  0.4713610000000  0.4588580000000  0.4066150000000 1.0
C      1  0.4669880000000  0.5867920000000  0.5225450000000 1.0
C      1  0.4684460000000  0.4371860000000  0.5763530000000 1.0
C      1  0.5303790000000  0.4663430000000  0.4051310000000 1.0
C      1  0.5327710000000  0.6038290000000  0.5174540000000 1.0
C      1  0.5255220000000  0.4329450000000  0.5747290000000 1.0
C      1  0.5368940000000  0.4635320000000  0.5767530000000 1.0
C      1  0.5406540000000  0.4488220000000  0.4309410000000 1.0
C      1  0.5409600000000  0.5842160000000  0.4936440000000 1.0
C      1  0.4592800000000  0.4681860000000  0.5772920000000 1.0
C      1  0.4601150000000  0.4445100000000  0.4292540000000 1.0
C      1  0.4576220000000  0.5767130000000  0.4926160000000 1.0
C      1  0.4813390000000  0.4298570000000  0.4444940000000 1.0
C      1  0.4834200000000  0.5861080000000  0.4711340000000 1.0
C      1  0.4838610000000  0.4881000000000  0.5897600000000 1.0
C      1  0.5135150000000  0.4309680000000  0.4427280000000 1.0
C      1  0.5172950000000  0.5826850000000  0.4692580000000 1.0
C      1  0.5137790000000  0.4848260000000  0.5897310000000 1.0
C      1  0.4724130000000  0.5268540000000  0.4866000000000 1.0
C      1  0.4739500000000  0.5025870000000  0.5294800000000 1.0
C      1  0.4741850000000  0.4761440000000  0.4863800000000 1.0
C      1  0.5244900000000  0.5234480000000  0.4862470000000 1.0
C      1  0.5264820000000  0.4988390000000  0.5289610000000 1.0
C      1  0.5236760000000  0.4762110000000  0.4858900000000 1.0
C      1  0.4225820000000  0.4567420000000  0.4660300000000 1.0
C      1  0.4186240000000  0.5461450000000  0.4657150000000 1.0
C      1  0.4161320000000  0.4963150000000  0.5567550000000 1.0
C      1  0.5769670000000  0.4453570000000  0.4694760000000 1.0
C      1  0.5805900000000  0.5552470000000  0.4697430000000 1.0
C      1  0.5829140000000  0.4888710000000  0.5498460000000 1.0
END
