TITL C-2622960-5345-601 -0.000335730562390776 125000 -251.549528118177 0 0 51 (C3) n - 1
REM
REM in /nfs/bkarasulu/CARBON/AIRSS/Generating-Clusters/AIREBO/with-SteepDescent/Higher-Symm/SD-CG/HFTN-CG
REM
REM
REM
REM
REM
REM ./C.cell (b20cbc046b6831c77cfcea5457e17084)
REM
REM compiler GCC version 9.2.1 20190827 (Red Hat 9.2.1-1)
REM options -cpp -mtune=generic -march=x86-64 -g -O0 -fpre-include=/usr/include/finclude/math-vector-fortran.h
REM seed -400010265 2066180893 -20468874 229229843 405816255 1056164606 -1608119298 -896704680 1414179709 -1168535280 1822177789 1218427197 -328171565 -306120491 1536375294 120892507 -1375807626 -2009156596 -1966642466 -791259034 526190069 -1202415807 1302391645 1990266141 -359656181 -1717762587 -389863415 -1768466778 1427989870 613075924 -1131877327 1609050534 -1391838173
REM
CELL 1.54180   50.00000   50.00000   50.00000   90.00000   90.00000   90.00000
LATT -1
SFAC C  
C      1  0.5186730000000  0.5090960000000  0.4223130000000 1.0
C      1  0.5583230000000  0.5096840000000  0.5547850000000 1.0
C      1  0.4232770000000  0.5089780000000  0.5226360000000 1.0
C      1  0.5173670000000  0.5047140000000  0.5741490000000 1.0
C      1  0.5550990000000  0.5046880000000  0.4477790000000 1.0
C      1  0.4272200000000  0.5046450000000  0.4782710000000 1.0
C      1  0.4782310000000  0.4721700000000  0.4815060000000 1.0
C      1  0.5269110000000  0.4721100000000  0.4903870000000 1.0
C      1  0.4949140000000  0.4722130000000  0.5280950000000 1.0
C      1  0.4727140000000  0.4760740000000  0.5114940000000 1.0
C      1  0.5236330000000  0.4761060000000  0.5179030000000 1.0
C      1  0.5037070000000  0.4760670000000  0.4705960000000 1.0
C      1  0.5142140000000  0.4591720000000  0.5524990000000 1.0
C      1  0.4475110000000  0.4590820000000  0.4860150000000 1.0
C      1  0.5382960000000  0.4589540000000  0.4614740000000 1.0
C      1  0.5100140000000  0.4603920000000  0.4424080000000 1.0
C      1  0.4451190000000  0.4603880000000  0.5200450000000 1.0
C      1  0.5448660000000  0.4604890000000  0.5375110000000 1.0
C      1  0.5560210000000  0.5350920000000  0.5323010000000 1.0
C      1  0.4443120000000  0.5352200000000  0.5320010000000 1.0
C      1  0.5000370000000  0.5353020000000  0.4359200000000 1.0
C      1  0.5562770000000  0.5315630000000  0.4696780000000 1.0
C      1  0.4455280000000  0.5316260000000  0.4664290000000 1.0
C      1  0.4979910000000  0.5316540000000  0.5639710000000 1.0
C      1  0.4994010000000  0.5267890000000  0.5303390000000 1.0
C      1  0.4739500000000  0.5267050000000  0.4844400000000 1.0
C      1  0.5264920000000  0.5266000000000  0.4853180000000 1.0
C      1  0.4997660000000  0.5291220000000  0.4693570000000 1.0
C      1  0.4734360000000  0.5291020000000  0.5155490000000 1.0
C      1  0.5266590000000  0.5290030000000  0.5152600000000 1.0
C      1  0.4781850000000  0.5031230000000  0.5669430000000 1.0
C      1  0.4527890000000  0.5031040000000  0.4476740000000 1.0
C      1  0.5689350000000  0.5029550000000  0.4851690000000 1.0
C      1  0.4802510000000  0.5070110000000  0.4312310000000 1.0
C      1  0.4502200000000  0.5069290000000  0.5514530000000 1.0
C      1  0.5696010000000  0.5068320000000  0.5170920000000 1.0
C      1  0.4604400000000  0.4974490000000  0.4792040000000 1.0
C      1  0.5377920000000  0.4973540000000  0.4761130000000 1.0
C      1  0.5019640000000  0.4974900000000  0.5447070000000 1.0
C      1  0.4558750000000  0.5001530000000  0.5186540000000 1.0
C      1  0.5384230000000  0.5001670000000  0.5289050000000 1.0
C      1  0.5058520000000  0.5002100000000  0.4525300000000 1.0
C      1  0.4847980000000  0.4690620000000  0.5664060000000 1.0
C      1  0.4501030000000  0.4689920000000  0.4535860000000 1.0
C      1  0.5651170000000  0.4688460000000  0.4798940000000 1.0
C      1  0.4788930000000  0.4740260000000  0.4394380000000 1.0
C      1  0.4580680000000  0.4739580000000  0.5485300000000 1.0
C      1  0.5629920000000  0.4738710000000  0.5118990000000 1.0
C      1  0.4369470000000  0.5295560000000  0.4992760000000 1.0
C      1  0.5320760000000  0.5296410000000  0.4458580000000 1.0
C      1  0.5307190000000  0.5294460000000  0.5550120000000 1.0
END
