TITL C-2622967-6265-296 -0.000323353837983372 125000 -299.848050232408 0 0 55 (C1) n - 1
REM
REM in /nfs/bkarasulu/CARBON/AIRSS/Generating-Clusters/AIREBO/with-SteepDescent/Higher-Symm/SD-CG/HFTN-CG
REM
REM
REM
REM
REM
REM ./C.cell (b20cbc046b6831c77cfcea5457e17084)
REM
REM compiler GCC version 9.2.1 20190827 (Red Hat 9.2.1-1)
REM options -cpp -mtune=generic -march=x86-64 -g -O0 -fpre-include=/usr/include/finclude/math-vector-fortran.h
REM seed 239654051 -2071734259 -265186075 597656204 1998540343 -263068228 -1996435978 -1626110602 -1067491998 -2137099336 566255891 -956739450 -1744171235 -1678535576 -1859166075 1590614358 -773272738 -1249292629 -1631820560 -334224938 -1904404703 208834911 2067511158 -297612686 1538841202 -1242722611 -199305564 1689694219 -816488709 442470987 -471567215 166224328 1860185404
REM
CELL 1.54180   50.00000   50.00000   50.00000   90.00000   90.00000   90.00000
LATT -1
SFAC C  
C      1  0.4456150000000  0.5474230000000  0.5067520000000 1.0
C      1  0.4429740000000  0.4468060000000  0.4863940000000 1.0
C      1  0.5682190000000  0.5396130000000  0.4868270000000 1.0
C      1  0.5689080000000  0.4387310000000  0.5113640000000 1.0
C      1  0.4461980000000  0.5131600000000  0.5446290000000 1.0
C      1  0.4349130000000  0.4819310000000  0.4509860000000 1.0
C      1  0.5617110000000  0.4736220000000  0.5657560000000 1.0
C      1  0.5566440000000  0.5060890000000  0.4534590000000 1.0
C      1  0.4277460000000  0.4676230000000  0.5053380000000 1.0
C      1  0.4290220000000  0.5213130000000  0.4969200000000 1.0
C      1  0.5674400000000  0.4642390000000  0.4920940000000 1.0
C      1  0.5732770000000  0.5146260000000  0.4975300000000 1.0
C      1  0.4330630000000  0.4910530000000  0.4819480000000 1.0
C      1  0.4315870000000  0.4974590000000  0.5211890000000 1.0
C      1  0.5722530000000  0.4919640000000  0.4771610000000 1.0
C      1  0.5547680000000  0.5098760000000  0.5205700000000 1.0
C      1  0.5491930000000  0.4829720000000  0.5401460000000 1.0
C      1  0.5344920000000  0.5204960000000  0.4616230000000 1.0
C      1  0.4632890000000  0.4776260000000  0.4576640000000 1.0
C      1  0.4705650000000  0.5228040000000  0.5367970000000 1.0
C      1  0.5407080000000  0.5418280000000  0.4791520000000 1.0
C      1  0.5462790000000  0.4620400000000  0.5178480000000 1.0
C      1  0.4676800000000  0.4575700000000  0.4766150000000 1.0
C      1  0.4702630000000  0.5416930000000  0.5168120000000 1.0
C      1  0.5186400000000  0.4650340000000  0.5018230000000 1.0
C      1  0.5227050000000  0.5474310000000  0.4991880000000 1.0
C      1  0.4880860000000  0.4576610000000  0.4956190000000 1.0
C      1  0.4950910000000  0.5373810000000  0.4976060000000 1.0
C      1  0.5108880000000  0.5023250000000  0.4664000000000 1.0
C      1  0.5222840000000  0.5038460000000  0.5427350000000 1.0
C      1  0.4803310000000  0.5036310000000  0.4602740000000 1.0
C      1  0.4918750000000  0.5011370000000  0.5316040000000 1.0
C      1  0.4744380000000  0.5339800000000  0.4474190000000 1.0
C      1  0.4789600000000  0.4758870000000  0.5449780000000 1.0
C      1  0.5210030000000  0.5344350000000  0.5549950000000 1.0
C      1  0.5203350000000  0.4761350000000  0.4512330000000 1.0
C      1  0.4767160000000  0.4500420000000  0.5247900000000 1.0
C      1  0.4754990000000  0.5520860000000  0.4761890000000 1.0
C      1  0.5250970000000  0.5571660000000  0.5297450000000 1.0
C      1  0.5224390000000  0.4500190000000  0.4729150000000 1.0
C      1  0.5126040000000  0.4261340000000  0.4950260000000 1.0
C      1  0.5057550000000  0.5802710000000  0.5139620000000 1.0
C      1  0.4984920000000  0.4253380000000  0.5162990000000 1.0
C      1  0.4874150000000  0.5765080000000  0.4966620000000 1.0
C      1  0.5082300000000  0.4967060000000  0.4269950000000 1.0
C      1  0.5038920000000  0.5143960000000  0.5764820000000 1.0
C      1  0.4923560000000  0.5163570000000  0.4244960000000 1.0
C      1  0.4882330000000  0.4953330000000  0.5709390000000 1.0
C      1  0.5504130000000  0.4664250000000  0.4638320000000 1.0
C      1  0.4515540000000  0.5282340000000  0.4723300000000 1.0
C      1  0.4492170000000  0.4693370000000  0.5310060000000 1.0
C      1  0.5497050000000  0.5349520000000  0.5373040000000 1.0
C      1  0.5253980000000  0.4953450000000  0.5107130000000 1.0
C      1  0.4630580000000  0.5018350000000  0.4895050000000 1.0
C      1  0.4960420000000  0.5055170000000  0.4969000000000 1.0
END
