TITL C-2622961-1971-382 0.000213915225027539 125000 -138.228122147652 0 0 29 (Cs) n - 1
REM
REM in /nfs/bkarasulu/CARBON/AIRSS/Generating-Clusters/AIREBO/with-SteepDescent/Higher-Symm/SD-CG/HFTN-CG
REM
REM
REM
REM
REM
REM ./C.cell (b20cbc046b6831c77cfcea5457e17084)
REM
REM compiler GCC version 9.2.1 20190827 (Red Hat 9.2.1-1)
REM options -cpp -mtune=generic -march=x86-64 -g -O0 -fpre-include=/usr/include/finclude/math-vector-fortran.h
REM seed -403776452 917202870 -1478532578 -719903472 -744495484 -1487587465 -270725770 -1426198839 -1674248694 980404063 -1469998970 -101587658 404031929 -1978069554 -1364546893 -1585259066 -1319407356 -1100947030 -1647706517 -1412113630 -485813767 1507965381 -642036646 -1745087687 -2096116070 -545910550 -932221939 1624388757 -894336137 699574993 -2113628434 41406804 -956655576
REM
CELL 1.54180   50.00000   50.00000   50.00000   90.00000   90.00000   90.00000
LATT -1
SFAC C  
C      1  0.4852900000000  0.4475280000000  0.4709430000000 1.0
C      1  0.5246210000000  0.4477290000000  0.4772960000000 1.0
C      1  0.5307360000000  0.4483620000000  0.5166930000000 1.0
C      1  0.4950830000000  0.4482480000000  0.5346760000000 1.0
C      1  0.4670360000000  0.4476190000000  0.5063500000000 1.0
C      1  0.4852850000000  0.5486150000000  0.4709460000000 1.0
C      1  0.5246170000000  0.5484180000000  0.4772910000000 1.0
C      1  0.5307410000000  0.5478000000000  0.5166880000000 1.0
C      1  0.4950880000000  0.5478830000000  0.5346770000000 1.0
C      1  0.4670360000000  0.5485540000000  0.5063570000000 1.0
C      1  0.5440060000000  0.4702300000000  0.5161420000000 1.0
C      1  0.4838880000000  0.4716590000000  0.5444100000000 1.0
C      1  0.4557380000000  0.4704470000000  0.5045620000000 1.0
C      1  0.4800600000000  0.4695050000000  0.4597280000000 1.0
C      1  0.5305890000000  0.4687880000000  0.4648720000000 1.0
C      1  0.5440120000000  0.5259330000000  0.5161290000000 1.0
C      1  0.4839080000000  0.5244720000000  0.5444250000000 1.0
C      1  0.4557330000000  0.5257290000000  0.5045620000000 1.0
C      1  0.4800600000000  0.5266390000000  0.4597270000000 1.0
C      1  0.5305870000000  0.5273580000000  0.4648700000000 1.0
C      1  0.4794100000000  0.4980700000000  0.5353950000000 1.0
C      1  0.5208220000000  0.4980710000000  0.4712870000000 1.0
C      1  0.4753170000000  0.4980900000000  0.5016300000000 1.0
C      1  0.4880930000000  0.4980700000000  0.4701100000000 1.0
C      1  0.5290390000000  0.4980900000000  0.5042800000000 1.0
C      1  0.5005870000000  0.4451510000000  0.5012440000000 1.0
C      1  0.5005880000000  0.5509980000000  0.5012440000000 1.0
C      1  0.5019110000000  0.4781610000000  0.5090680000000 1.0
C      1  0.5018790000000  0.5179810000000  0.5090450000000 1.0
END
