TITL C-2622959-7779-87 0.00179031184421892 125000 -760.398375961644 0 0 149 (C1) n - 1
REM
REM in /nfs/bkarasulu/CARBON/AIRSS/Generating-Clusters/AIREBO/with-SteepDescent/Higher-Symm/SD-CG/HFTN-CG
REM
REM
REM
REM
REM
REM ./C.cell (b20cbc046b6831c77cfcea5457e17084)
REM
REM compiler GCC version 9.2.1 20190827 (Red Hat 9.2.1-1)
REM options -cpp -mtune=generic -march=x86-64 -g -O0 -fpre-include=/usr/include/finclude/math-vector-fortran.h
REM seed 831076084 1792707680 -345601720 -1880444701 1600978693 -1840415533 -290136665 -1139313366 -559306646 1819667735 -2113168170 -80412148 -450619784 -759825261 1943298265 1527019052 1582940883 -1371891025 -426613809 1092173500 733289460 214344126 -1815413170 -1944982593 -2135100263 1822749934 -1604528568 -1058472427 -1951883364 -446043053 -2019336551 -2076487500 1722236861
REM
CELL 1.54180   50.00000   50.00000   50.00000   90.00000   90.00000   90.00000
LATT -1
SFAC C  
C      1  0.5670430000000  0.4296230000000  0.4639350000000 1.0
C      1  0.5653840000000  0.4424560000000  0.5253970000000 1.0
C      1  0.5641370000000  0.4881770000000  0.5630520000000 1.0
C      1  0.5646000000000  0.5423070000000  0.5450890000000 1.0
C      1  0.5615270000000  0.5625120000000  0.4950130000000 1.0
C      1  0.5635050000000  0.5390040000000  0.4446600000000 1.0
C      1  0.5693420000000  0.4819970000000  0.4390860000000 1.0
C      1  0.4269100000000  0.4687000000000  0.4349610000000 1.0
C      1  0.4160570000000  0.4326180000000  0.4820090000000 1.0
C      1  0.4113490000000  0.4567110000000  0.5821940000000 1.0
C      1  0.4151840000000  0.5417440000000  0.5900530000000 1.0
C      1  0.4262360000000  0.5878050000000  0.5228370000000 1.0
C      1  0.4215000000000  0.5879630000000  0.4666620000000 1.0
C      1  0.4257780000000  0.5330720000000  0.4299040000000 1.0
C      1  0.4301560000000  0.5968610000000  0.4938790000000 1.0
C      1  0.4314760000000  0.5630700000000  0.4455990000000 1.0
C      1  0.4322260000000  0.4994950000000  0.4217570000000 1.0
C      1  0.4342300000000  0.4406930000000  0.4544140000000 1.0
C      1  0.4335650000000  0.4212680000000  0.5088630000000 1.0
C      1  0.4335260000000  0.4560800000000  0.6043610000000 1.0
C      1  0.4409850000000  0.5363960000000  0.5832960000000 1.0
C      1  0.4665530000000  0.5920390000000  0.4785210000000 1.0
C      1  0.4684720000000  0.5445970000000  0.4118090000000 1.0
C      1  0.4699160000000  0.4590310000000  0.4092240000000 1.0
C      1  0.4706750000000  0.4040790000000  0.4773200000000 1.0
C      1  0.4603090000000  0.4267300000000  0.5606370000000 1.0
C      1  0.4691480000000  0.4964480000000  0.5994250000000 1.0
C      1  0.4648380000000  0.5739110000000  0.5606980000000 1.0
C      1  0.5343530000000  0.5399560000000  0.4611960000000 1.0
C      1  0.5207030000000  0.4906880000000  0.4377760000000 1.0
C      1  0.5371670000000  0.4424250000000  0.4539520000000 1.0
C      1  0.5353850000000  0.4311520000000  0.5139840000000 1.0
C      1  0.5330630000000  0.4768910000000  0.5550930000000 1.0
C      1  0.5249870000000  0.5245420000000  0.5648290000000 1.0
C      1  0.5186510000000  0.5649670000000  0.5202780000000 1.0
C      1  0.5004530000000  0.4647910000000  0.4341240000000 1.0
C      1  0.5002420000000  0.4312840000000  0.4870220000000 1.0
C      1  0.4905600000000  0.4564890000000  0.5487820000000 1.0
C      1  0.5034580000000  0.4908730000000  0.5642620000000 1.0
C      1  0.4884520000000  0.5489310000000  0.5402840000000 1.0
C      1  0.4899700000000  0.5506290000000  0.4807560000000 1.0
C      1  0.5072440000000  0.5307360000000  0.4449570000000 1.0
C      1  0.5243230000000  0.4513410000000  0.4922390000000 1.0
C      1  0.4967240000000  0.4813390000000  0.5264080000000 1.0
C      1  0.5147760000000  0.5077220000000  0.5376330000000 1.0
C      1  0.5085380000000  0.5335740000000  0.5190130000000 1.0
C      1  0.4997830000000  0.5243460000000  0.4901830000000 1.0
C      1  0.5140560000000  0.5057620000000  0.4651030000000 1.0
C      1  0.5146800000000  0.4788900000000  0.4845480000000 1.0
C      1  0.4209430000000  0.5273710000000  0.4785820000000 1.0
C      1  0.4316070000000  0.4989220000000  0.4659750000000 1.0
C      1  0.4492480000000  0.4771340000000  0.4830130000000 1.0
C      1  0.4279120000000  0.4766640000000  0.5065290000000 1.0
C      1  0.4236070000000  0.4906810000000  0.5293320000000 1.0
C      1  0.4086430000000  0.5143810000000  0.5271860000000 1.0
C      1  0.4159850000000  0.5331290000000  0.5098150000000 1.0
C      1  0.4543740000000  0.4267440000000  0.4876750000000 1.0
C      1  0.4436730000000  0.4526330000000  0.5720900000000 1.0
C      1  0.4519770000000  0.5101550000000  0.5752590000000 1.0
C      1  0.4445260000000  0.5721730000000  0.5372330000000 1.0
C      1  0.4528900000000  0.5646300000000  0.4719730000000 1.0
C      1  0.4575200000000  0.5208830000000  0.4293610000000 1.0
C      1  0.4591050000000  0.4592720000000  0.4405170000000 1.0
C      1  0.5193780000000  0.5673810000000  0.5674420000000 1.0
C      1  0.5113490000000  0.5938220000000  0.4939730000000 1.0
C      1  0.5190580000000  0.5521750000000  0.4134520000000 1.0
C      1  0.5251350000000  0.4710320000000  0.4033270000000 1.0
C      1  0.5207900000000  0.4063490000000  0.4634650000000 1.0
C      1  0.5270300000000  0.4155230000000  0.5496810000000 1.0
C      1  0.5205350000000  0.4888350000000  0.6000550000000 1.0
C      1  0.5852040000000  0.5380930000000  0.4954350000000 1.0
C      1  0.5868720000000  0.5256520000000  0.4663760000000 1.0
C      1  0.5897160000000  0.4955080000000  0.4629340000000 1.0
C      1  0.5903100000000  0.4812310000000  0.4881010000000 1.0
C      1  0.5900310000000  0.4646710000000  0.5178720000000 1.0
C      1  0.5841300000000  0.4934520000000  0.5357270000000 1.0
C      1  0.5858180000000  0.5255430000000  0.5244600000000 1.0
C      1  0.4561590000000  0.4173670000000  0.5316320000000 1.0
C      1  0.4626480000000  0.4636040000000  0.6053840000000 1.0
C      1  0.4637020000000  0.5554870000000  0.5833280000000 1.0
C      1  0.4608230000000  0.6010920000000  0.5080110000000 1.0
C      1  0.4577460000000  0.5693380000000  0.4249230000000 1.0
C      1  0.4594950000000  0.4908850000000  0.4032240000000 1.0
C      1  0.4611540000000  0.4202730000000  0.4489330000000 1.0
C      1  0.5357610000000  0.4480450000000  0.5707280000000 1.0
C      1  0.5420010000000  0.5250500000000  0.5900680000000 1.0
C      1  0.5375140000000  0.5810090000000  0.5345460000000 1.0
C      1  0.5314300000000  0.5723170000000  0.4601980000000 1.0
C      1  0.5333110000000  0.5094160000000  0.4158900000000 1.0
C      1  0.5425210000000  0.4371370000000  0.4218440000000 1.0
C      1  0.5328530000000  0.4003680000000  0.5105540000000 1.0
C      1  0.5461250000000  0.5600700000000  0.5674520000000 1.0
C      1  0.5400210000000  0.5888670000000  0.4955180000000 1.0
C      1  0.5456500000000  0.5559860000000  0.4212090000000 1.0
C      1  0.5518610000000  0.4744510000000  0.4108950000000 1.0
C      1  0.5476980000000  0.4040560000000  0.4580150000000 1.0
C      1  0.5549530000000  0.4171670000000  0.5456340000000 1.0
C      1  0.5470870000000  0.4831650000000  0.5920650000000 1.0
C      1  0.5422880000000  0.5328510000000  0.5232400000000 1.0
C      1  0.5437630000000  0.5337340000000  0.4914350000000 1.0
C      1  0.5440710000000  0.5045550000000  0.4764640000000 1.0
C      1  0.5472620000000  0.4738710000000  0.4621040000000 1.0
C      1  0.5525240000000  0.4693640000000  0.4929920000000 1.0
C      1  0.5434480000000  0.4684480000000  0.5254090000000 1.0
C      1  0.5425540000000  0.5008410000000  0.5246590000000 1.0
C      1  0.5137120000000  0.5264040000000  0.4037650000000 1.0
C      1  0.5111740000000  0.4423570000000  0.4109330000000 1.0
C      1  0.5076680000000  0.4001640000000  0.4913070000000 1.0
C      1  0.5062030000000  0.4362080000000  0.5662450000000 1.0
C      1  0.5124030000000  0.5175750000000  0.6020780000000 1.0
C      1  0.5099620000000  0.5903690000000  0.5499250000000 1.0
C      1  0.5022820000000  0.5787700000000  0.4689370000000 1.0
C      1  0.4807390000000  0.5287130000000  0.5958900000000 1.0
C      1  0.4797710000000  0.5904540000000  0.5342430000000 1.0
C      1  0.4775680000000  0.5862580000000  0.4468030000000 1.0
C      1  0.4815050000000  0.5162630000000  0.3975800000000 1.0
C      1  0.4819850000000  0.4308500000000  0.4241900000000 1.0
C      1  0.4799200000000  0.4059340000000  0.5101020000000 1.0
C      1  0.4789880000000  0.4406990000000  0.5861520000000 1.0
C      1  0.4826590000000  0.4458130000000  0.5112070000000 1.0
C      1  0.4676550000000  0.4735270000000  0.5671160000000 1.0
C      1  0.4812820000000  0.5140770000000  0.5584690000000 1.0
C      1  0.4630840000000  0.5528680000000  0.5191150000000 1.0
C      1  0.4730940000000  0.5475510000000  0.4546350000000 1.0
C      1  0.4842880000000  0.5065100000000  0.4384390000000 1.0
C      1  0.4846670000000  0.4510860000000  0.4583340000000 1.0
C      1  0.4982010000000  0.5413960000000  0.5696050000000 1.0
C      1  0.4882690000000  0.5722010000000  0.5068380000000 1.0
C      1  0.4965730000000  0.5611110000000  0.4340180000000 1.0
C      1  0.4984210000000  0.4905070000000  0.4119680000000 1.0
C      1  0.5064080000000  0.4279950000000  0.4477040000000 1.0
C      1  0.5043280000000  0.4238360000000  0.5257710000000 1.0
C      1  0.4959050000000  0.4702000000000  0.5858200000000 1.0
C      1  0.4434180000000  0.5468850000000  0.4951720000000 1.0
C      1  0.4491590000000  0.5265680000000  0.4612580000000 1.0
C      1  0.4618760000000  0.4895730000000  0.4537940000000 1.0
C      1  0.4670470000000  0.4530030000000  0.4835420000000 1.0
C      1  0.4671830000000  0.4704020000000  0.5275920000000 1.0
C      1  0.4496970000000  0.4931110000000  0.5458850000000 1.0
C      1  0.4617280000000  0.5212480000000  0.5315890000000 1.0
C      1  0.5645290000000  0.5715070000000  0.5276710000000 1.0
C      1  0.5652030000000  0.5687130000000  0.4617830000000 1.0
C      1  0.5613440000000  0.5120950000000  0.4254290000000 1.0
C      1  0.5718420000000  0.4482530000000  0.4356320000000 1.0
C      1  0.5739280000000  0.4307450000000  0.4946260000000 1.0
C      1  0.5655920000000  0.4538190000000  0.5574610000000 1.0
C      1  0.5647260000000  0.5200380000000  0.5707290000000 1.0
C      1  0.5015610000000  0.4953580000000  0.5015440000000 1.0
C      1  0.5674630000000  0.4946900000000  0.5072860000000 1.0
END
