TITL C-2622963-3633-46 -0.000754724527125395 125000 -317.70584412666 0 0 57 (C1) n - 1
REM
REM in /nfs/bkarasulu/CARBON/AIRSS/Generating-Clusters/AIREBO/with-SteepDescent/Higher-Symm/SD-CG/HFTN-CG
REM
REM
REM
REM
REM
REM ./C.cell (b20cbc046b6831c77cfcea5457e17084)
REM
REM compiler GCC version 9.2.1 20190827 (Red Hat 9.2.1-1)
REM options -cpp -mtune=generic -march=x86-64 -g -O0 -fpre-include=/usr/include/finclude/math-vector-fortran.h
REM seed -1270044272 1034970503 523013085 2142966668 -2016784625 1494558238 1884397193 -1294798005 1003263223 266962336 -1492281307 -1712049820 -646068022 -125726061 31934318 671350391 -1285622402 1687396819 -708446513 -1768072107 329515379 -15943538 817067803 756966801 -992433969 -1028773278 1613355915 -1896700562 1833275309 -1496209148 1208631918 65486454 -64674329
REM
CELL 1.54180   50.00000   50.00000   50.00000   90.00000   90.00000   90.00000
LATT -1
SFAC C  
C      1  0.4983750000000  0.5358360000000  0.4924410000000 1.0
C      1  0.5331970000000  0.5257900000000  0.5496890000000 1.0
C      1  0.4738260000000  0.4966870000000  0.5558170000000 1.0
C      1  0.4553580000000  0.4913100000000  0.4657480000000 1.0
C      1  0.5079040000000  0.4376410000000  0.4622200000000 1.0
C      1  0.5122350000000  0.5638830000000  0.5057890000000 1.0
C      1  0.4664400000000  0.4575840000000  0.5183640000000 1.0
C      1  0.5597930000000  0.4749660000000  0.5136370000000 1.0
C      1  0.4421410000000  0.4987740000000  0.5460510000000 1.0
C      1  0.5134690000000  0.5299180000000  0.4146680000000 1.0
C      1  0.4414950000000  0.4542770000000  0.4766390000000 1.0
C      1  0.4681210000000  0.4825050000000  0.4354500000000 1.0
C      1  0.5570080000000  0.4826690000000  0.4866700000000 1.0
C      1  0.4979740000000  0.4766900000000  0.5711580000000 1.0
C      1  0.4869080000000  0.5233270000000  0.5724200000000 1.0
C      1  0.4605440000000  0.4281850000000  0.5244800000000 1.0
C      1  0.4395200000000  0.5002960000000  0.4945950000000 1.0
C      1  0.5358030000000  0.4778780000000  0.4651550000000 1.0
C      1  0.5671720000000  0.5397450000000  0.5159360000000 1.0
C      1  0.4853420000000  0.5194750000000  0.4673940000000 1.0
C      1  0.4477220000000  0.5283380000000  0.4771190000000 1.0
C      1  0.4957740000000  0.4785470000000  0.4328160000000 1.0
C      1  0.5259250000000  0.5042300000000  0.5298400000000 1.0
C      1  0.5244490000000  0.4744160000000  0.5757200000000 1.0
C      1  0.4442030000000  0.4691840000000  0.4994350000000 1.0
C      1  0.5080630000000  0.5393770000000  0.5616260000000 1.0
C      1  0.4354370000000  0.5405470000000  0.5238340000000 1.0
C      1  0.5525740000000  0.5405060000000  0.4916530000000 1.0
C      1  0.5173600000000  0.4740760000000  0.5363630000000 1.0
C      1  0.4673600000000  0.5488780000000  0.4875190000000 1.0
C      1  0.5186290000000  0.5270160000000  0.4418890000000 1.0
C      1  0.5398380000000  0.4564330000000  0.5226710000000 1.0
C      1  0.4608020000000  0.5513370000000  0.5171340000000 1.0
C      1  0.5092460000000  0.4981030000000  0.4571530000000 1.0
C      1  0.5479300000000  0.5123380000000  0.4810840000000 1.0
C      1  0.4651960000000  0.4528150000000  0.4618530000000 1.0
C      1  0.5179660000000  0.4603490000000  0.4476360000000 1.0
C      1  0.5141900000000  0.5523170000000  0.4596540000000 1.0
C      1  0.5096420000000  0.5526190000000  0.5322450000000 1.0
C      1  0.4860300000000  0.4690160000000  0.5402590000000 1.0
C      1  0.4852670000000  0.4785800000000  0.4713390000000 1.0
C      1  0.4339400000000  0.5121100000000  0.5232310000000 1.0
C      1  0.5217610000000  0.5122130000000  0.4987750000000 1.0
C      1  0.4918590000000  0.4661130000000  0.5002500000000 1.0
C      1  0.4879630000000  0.5610020000000  0.4633400000000 1.0
C      1  0.5308840000000  0.5569730000000  0.4830140000000 1.0
C      1  0.5454740000000  0.4797720000000  0.5546180000000 1.0
C      1  0.4814710000000  0.4310740000000  0.4541100000000 1.0
C      1  0.5095840000000  0.4418760000000  0.4904240000000 1.0
C      1  0.5298080000000  0.4350300000000  0.5081550000000 1.0
C      1  0.4943030000000  0.4975600000000  0.5069540000000 1.0
C      1  0.4822060000000  0.5393940000000  0.5311770000000 1.0
C      1  0.4587640000000  0.5203510000000  0.4487370000000 1.0
C      1  0.5609090000000  0.5219470000000  0.5374060000000 1.0
C      1  0.5657500000000  0.4931550000000  0.5373350000000 1.0
C      1  0.5457370000000  0.5137460000000  0.4505340000000 1.0
C      1  0.4833570000000  0.5112290000000  0.5287770000000 1.0
END
