TITL C-2622958-629-209 -8.26257313098603e-05 125000 -251.989033793054 0 0 47 (C1) n - 1
REM
REM in /nfs/bkarasulu/CARBON/AIRSS/Generating-Clusters/AIREBO/with-SteepDescent/Higher-Symm/SD-CG/HFTN-CG
REM
REM
REM
REM
REM
REM ./C.cell (b20cbc046b6831c77cfcea5457e17084)
REM
REM compiler GCC version 9.2.1 20190827 (Red Hat 9.2.1-1)
REM options -cpp -mtune=generic -march=x86-64 -g -O0 -fpre-include=/usr/include/finclude/math-vector-fortran.h
REM seed 2065315099 954483812 -328811595 4394469 236473269 -1948680284 -279467754 -1444740752 1895137568 -1032824688 1686595411 -905383131 -83554438 1244137024 -1556341702 -2112118020 -1844487767 783678768 1261476016 -1811805965 -1581138500 1508325619 591128945 -412633577 -1867063907 -1195090747 260778371 -22868179 -261532283 971279024 1603252585 -305642043 -2143981755
REM
CELL 1.54180   50.00000   50.00000   50.00000   90.00000   90.00000   90.00000
LATT -1
SFAC C  
C      1  0.4451420000000  0.4997550000000  0.5493990000000 1.0
C      1  0.4867760000000  0.4358250000000  0.5480700000000 1.0
C      1  0.5483460000000  0.4625020000000  0.5500670000000 1.0
C      1  0.5446910000000  0.5315170000000  0.5558720000000 1.0
C      1  0.4818730000000  0.5543360000000  0.5370760000000 1.0
C      1  0.5596420000000  0.5218520000000  0.5329410000000 1.0
C      1  0.4634320000000  0.5638200000000  0.5182640000000 1.0
C      1  0.4334030000000  0.5136190000000  0.5249900000000 1.0
C      1  0.4679260000000  0.4398150000000  0.5252060000000 1.0
C      1  0.5411760000000  0.4518710000000  0.5229080000000 1.0
C      1  0.4679150000000  0.4838870000000  0.5419120000000 1.0
C      1  0.4987320000000  0.4628810000000  0.5385380000000 1.0
C      1  0.5312460000000  0.4857920000000  0.5416280000000 1.0
C      1  0.5179310000000  0.5240060000000  0.5479440000000 1.0
C      1  0.4780470000000  0.5221340000000  0.5473240000000 1.0
C      1  0.5623880000000  0.4550500000000  0.5711360000000 1.0
C      1  0.5533270000000  0.5434450000000  0.5780870000000 1.0
C      1  0.4877230000000  0.5725460000000  0.5577090000000 1.0
C      1  0.4539790000000  0.5194070000000  0.5712000000000 1.0
C      1  0.4918790000000  0.4178820000000  0.5667520000000 1.0
C      1  0.4516310000000  0.5098690000000  0.4058950000000 1.0
C      1  0.4636310000000  0.4642600000000  0.4438220000000 1.0
C      1  0.5316420000000  0.4658700000000  0.4269690000000 1.0
C      1  0.5368920000000  0.5309700000000  0.4536950000000 1.0
C      1  0.4981160000000  0.5529760000000  0.4131740000000 1.0
C      1  0.5157690000000  0.4592650000000  0.5147890000000 1.0
C      1  0.5431890000000  0.5018220000000  0.5207680000000 1.0
C      1  0.5070710000000  0.5392980000000  0.5261350000000 1.0
C      1  0.4612060000000  0.5207080000000  0.5189520000000 1.0
C      1  0.4649330000000  0.4669180000000  0.5177210000000 1.0
C      1  0.5487840000000  0.4481420000000  0.4180960000000 1.0
C      1  0.5584160000000  0.5438990000000  0.4583350000000 1.0
C      1  0.5008830000000  0.5772390000000  0.4036550000000 1.0
C      1  0.4293140000000  0.5106510000000  0.3921750000000 1.0
C      1  0.4463700000000  0.4458650000000  0.4477060000000 1.0
C      1  0.5097660000000  0.4792570000000  0.4921930000000 1.0
C      1  0.5253650000000  0.5053940000000  0.4993150000000 1.0
C      1  0.5061650000000  0.5254190000000  0.5022340000000 1.0
C      1  0.4781860000000  0.5128560000000  0.4943330000000 1.0
C      1  0.4760290000000  0.4789480000000  0.4956140000000 1.0
C      1  0.4939170000000  0.5288980000000  0.4251100000000 1.0
C      1  0.4734390000000  0.5102130000000  0.4221430000000 1.0
C      1  0.4821990000000  0.4878650000000  0.4406140000000 1.0
C      1  0.5152230000000  0.4824690000000  0.4380630000000 1.0
C      1  0.5126860000000  0.5152690000000  0.4446340000000 1.0
C      1  0.4959420000000  0.4993220000000  0.4684710000000 1.0
C      1  0.4992880000000  0.4955500000000  0.5480190000000 1.0
END
