TITL C-2622959-7779-631 0.00123675862764728 125000 -392.690558318202 0 0 74 (C1) n - 1
REM
REM in /nfs/bkarasulu/CARBON/AIRSS/Generating-Clusters/AIREBO/with-SteepDescent/Higher-Symm/SD-CG/HFTN-CG
REM
REM
REM
REM
REM
REM ./C.cell (b20cbc046b6831c77cfcea5457e17084)
REM
REM compiler GCC version 9.2.1 20190827 (Red Hat 9.2.1-1)
REM options -cpp -mtune=generic -march=x86-64 -g -O0 -fpre-include=/usr/include/finclude/math-vector-fortran.h
REM seed 458730084 233025435 -230983341 -1961723037 640603355 1395549386 1320069867 -1612918771 -1650021191 -2096777759 -1046994327 756065359 1329826653 -1514045280 -1693576024 1576673043 -837371913 96289347 -89154097 -850362636 -1479057434 -600151403 -1649772434 -2125909196 -166238960 -660547246 1697165381 -54130126 -1509675990 1698090119 673052728 1295322924 1185350182
REM
CELL 1.54180   50.00000   50.00000   50.00000   90.00000   90.00000   90.00000
LATT -1
SFAC C  
C      1  0.4750000000000  0.4832330000000  0.4433900000000 1.0
C      1  0.4704160000000  0.4593360000000  0.5432170000000 1.0
C      1  0.4734720000000  0.5555090000000  0.5100460000000 1.0
C      1  0.5375300000000  0.4831370000000  0.5487710000000 1.0
C      1  0.5266670000000  0.4600350000000  0.4551970000000 1.0
C      1  0.5266080000000  0.5588360000000  0.4878480000000 1.0
C      1  0.5028950000000  0.5467870000000  0.5341160000000 1.0
C      1  0.5024640000000  0.5092800000000  0.4380910000000 1.0
C      1  0.4998700000000  0.4430740000000  0.5223500000000 1.0
C      1  0.4993950000000  0.5475420000000  0.4616960000000 1.0
C      1  0.5027160000000  0.5042760000000  0.5645540000000 1.0
C      1  0.4984150000000  0.4433140000000  0.4771810000000 1.0
C      1  0.4272940000000  0.5018600000000  0.4682400000000 1.0
C      1  0.4351920000000  0.4828210000000  0.5135340000000 1.0
C      1  0.4323160000000  0.5224490000000  0.5143470000000 1.0
C      1  0.5665750000000  0.4985070000000  0.5397950000000 1.0
C      1  0.5676810000000  0.4797720000000  0.4911990000000 1.0
C      1  0.5663290000000  0.5197280000000  0.4914590000000 1.0
C      1  0.4474470000000  0.4987980000000  0.5594610000000 1.0
C      1  0.4505390000000  0.5411130000000  0.4730900000000 1.0
C      1  0.4504500000000  0.4605450000000  0.4749610000000 1.0
C      1  0.5502330000000  0.5002520000000  0.4474940000000 1.0
C      1  0.5488380000000  0.5435760000000  0.5254780000000 1.0
C      1  0.5510190000000  0.4533580000000  0.5260570000000 1.0
C      1  0.5221810000000  0.5226660000000  0.5226240000000 1.0
C      1  0.5251220000000  0.5176550000000  0.4562150000000 1.0
C      1  0.5225930000000  0.4605280000000  0.5090120000000 1.0
C      1  0.4778000000000  0.5217380000000  0.4669470000000 1.0
C      1  0.4763400000000  0.5072970000000  0.5476520000000 1.0
C      1  0.4780320000000  0.4643160000000  0.4944920000000 1.0
C      1  0.4574440000000  0.5646040000000  0.4867040000000 1.0
C      1  0.4576810000000  0.4593510000000  0.4479150000000 1.0
C      1  0.4615550000000  0.4745670000000  0.5682090000000 1.0
C      1  0.5413830000000  0.5673030000000  0.5121990000000 1.0
C      1  0.5453810000000  0.4506670000000  0.5552390000000 1.0
C      1  0.5428840000000  0.4757260000000  0.4359750000000 1.0
C      1  0.5143750000000  0.4896080000000  0.5246050000000 1.0
C      1  0.5182220000000  0.5242750000000  0.4888670000000 1.0
C      1  0.5169480000000  0.4784130000000  0.4806420000000 1.0
C      1  0.4874420000000  0.4897700000000  0.4740020000000 1.0
C      1  0.4860020000000  0.5261520000000  0.4996490000000 1.0
C      1  0.4807010000000  0.4844990000000  0.5227870000000 1.0
C      1  0.5040420000000  0.4777910000000  0.4274170000000 1.0
C      1  0.4993050000000  0.4477360000000  0.5540630000000 1.0
C      1  0.5020710000000  0.5729280000000  0.5159560000000 1.0
C      1  0.5121700000000  0.4736720000000  0.5693650000000 1.0
C      1  0.4961670000000  0.4493200000000  0.4445350000000 1.0
C      1  0.4962000000000  0.5731780000000  0.4823820000000 1.0
C      1  0.4428120000000  0.5456260000000  0.5334820000000 1.0
C      1  0.4383020000000  0.5040970000000  0.4418700000000 1.0
C      1  0.4383800000000  0.4521680000000  0.5205640000000 1.0
C      1  0.5618040000000  0.5462830000000  0.4737570000000 1.0
C      1  0.5516080000000  0.5173650000000  0.5632390000000 1.0
C      1  0.5619290000000  0.4512680000000  0.4780620000000 1.0
C      1  0.4685270000000  0.5893770000000  0.4756440000000 1.0
C      1  0.4682130000000  0.4363280000000  0.4331060000000 1.0
C      1  0.4831220000000  0.4764030000000  0.5854940000000 1.0
C      1  0.5281590000000  0.5913430000000  0.5238760000000 1.0
C      1  0.5254410000000  0.4352290000000  0.5662630000000 1.0
C      1  0.5309550000000  0.4729590000000  0.4090050000000 1.0
C      1  0.4273320000000  0.5000950000000  0.5393960000000 1.0
C      1  0.4299850000000  0.5253680000000  0.4832430000000 1.0
C      1  0.4306980000000  0.4784130000000  0.4830770000000 1.0
C      1  0.5722750000000  0.5003280000000  0.4655160000000 1.0
C      1  0.5703790000000  0.5244360000000  0.5212010000000 1.0
C      1  0.5705590000000  0.4736720000000  0.5205490000000 1.0
C      1  0.5250050000000  0.5202840000000  0.5564240000000 1.0
C      1  0.5331340000000  0.5482710000000  0.4574890000000 1.0
C      1  0.5314410000000  0.4406640000000  0.4827290000000 1.0
C      1  0.4692210000000  0.5155740000000  0.4346270000000 1.0
C      1  0.4738650000000  0.5364510000000  0.5382770000000 1.0
C      1  0.4680440000000  0.4396120000000  0.5156170000000 1.0
C      1  0.5401060000000  0.4982410000000  0.4887810000000 1.0
C      1  0.4599700000000  0.5049110000000  0.5051790000000 1.0
END
