TITL C-2622964-2985-678 -5.07511941384852 125000 -881.313974831193 0 0 162 (C1) n - 1
REM
REM in /nfs/bkarasulu/CARBON/AIRSS/Generating-Clusters/AIREBO/with-SteepDescent/Higher-Symm/SD-CG/HFTN-CG
REM
REM
REM
REM
REM
REM ./C.cell (b20cbc046b6831c77cfcea5457e17084)
REM
REM compiler GCC version 9.2.1 20190827 (Red Hat 9.2.1-1)
REM options -cpp -mtune=generic -march=x86-64 -g -O0 -fpre-include=/usr/include/finclude/math-vector-fortran.h
REM seed -783184279 1581635628 -619724230 -1618036716 -1697042064 1497452642 713973612 -914113621 1496227409 1469032740 -1861023482 1783348847 -1578186348 -2115475033 846269618 -1938053865 -1990310984 -624152636 -897207480 1552690491 296088625 -2074498936 1118418129 764329188 1491176927 -1210885968 -1479459184 1601740790 963998016 1125161918 478495883 1712207412 -1943600818
REM
CELL 1.54180   50.00000   50.00000   50.00000   90.00000   90.00000   90.00000
LATT -1
SFAC C  
C      1  0.5155710000000  0.4903130000000  0.4361490000000 1.0
C      1  0.5149320000000  0.5136150000000  0.5622630000000 1.0
C      1  0.4816480000000  0.4898370000000  0.4338950000000 1.0
C      1  0.4806990000000  0.5098260000000  0.5624390000000 1.0
C      1  0.4832870000000  0.4884150000000  0.5362390000000 1.0
C      1  0.4832430000000  0.5083890000000  0.4623920000000 1.0
C      1  0.5144760000000  0.4873460000000  0.5406720000000 1.0
C      1  0.5147380000000  0.5129850000000  0.4614730000000 1.0
C      1  0.5592030000000  0.5065340000000  0.5337930000000 1.0
C      1  0.5534540000000  0.4896920000000  0.4714080000000 1.0
C      1  0.4367700000000  0.5069840000000  0.5362570000000 1.0
C      1  0.4470980000000  0.4810310000000  0.4699730000000 1.0
C      1  0.4898440000000  0.5556100000000  0.4773120000000 1.0
C      1  0.4942510000000  0.4439780000000  0.5189790000000 1.0
C      1  0.5204010000000  0.5666340000000  0.4672720000000 1.0
C      1  0.5219850000000  0.4421130000000  0.5316850000000 1.0
C      1  0.4519160000000  0.4566340000000  0.4264680000000 1.0
C      1  0.4459510000000  0.5486700000000  0.5726860000000 1.0
C      1  0.5496090000000  0.4490400000000  0.4287290000000 1.0
C      1  0.5440360000000  0.5516160000000  0.5639580000000 1.0
C      1  0.4795850000000  0.5959860000000  0.4582910000000 1.0
C      1  0.4815440000000  0.4022640000000  0.5434460000000 1.0
C      1  0.5067390000000  0.6027870000000  0.4571760000000 1.0
C      1  0.5114810000000  0.4001400000000  0.5388180000000 1.0
C      1  0.5652660000000  0.4339370000000  0.4550720000000 1.0
C      1  0.5694060000000  0.5653090000000  0.5455890000000 1.0
C      1  0.4312120000000  0.4375580000000  0.4449910000000 1.0
C      1  0.4283610000000  0.5620400000000  0.5474130000000 1.0
C      1  0.4302540000000  0.5027490000000  0.4273110000000 1.0
C      1  0.4272500000000  0.4958010000000  0.5749990000000 1.0
C      1  0.5648090000000  0.5021140000000  0.4251060000000 1.0
C      1  0.5710790000000  0.5023340000000  0.5783270000000 1.0
C      1  0.4456630000000  0.4288690000000  0.5109590000000 1.0
C      1  0.4316840000000  0.5833170000000  0.4875090000000 1.0
C      1  0.5583310000000  0.4164890000000  0.5238660000000 1.0
C      1  0.5621960000000  0.5833490000000  0.4766770000000 1.0
C      1  0.4851520000000  0.5274580000000  0.4161350000000 1.0
C      1  0.4815120000000  0.4731850000000  0.5930020000000 1.0
C      1  0.5164430000000  0.5233860000000  0.4034310000000 1.0
C      1  0.5109550000000  0.4855310000000  0.5904460000000 1.0
C      1  0.5818980000000  0.5203260000000  0.4396640000000 1.0
C      1  0.5870630000000  0.4814350000000  0.5634680000000 1.0
C      1  0.4159540000000  0.5225940000000  0.4454550000000 1.0
C      1  0.4081900000000  0.4772320000000  0.5690790000000 1.0
C      1  0.5194570000000  0.4199440000000  0.4604440000000 1.0
C      1  0.5231990000000  0.5721410000000  0.5364010000000 1.0
C      1  0.4804440000000  0.4257810000000  0.4539600000000 1.0
C      1  0.4824710000000  0.5753540000000  0.5374110000000 1.0
C      1  0.5150300000000  0.4063910000000  0.5055860000000 1.0
C      1  0.5212050000000  0.5955910000000  0.4850770000000 1.0
C      1  0.4823690000000  0.4139050000000  0.5123120000000 1.0
C      1  0.4776900000000  0.5827570000000  0.4849640000000 1.0
C      1  0.4073580000000  0.4442770000000  0.4686670000000 1.0
C      1  0.4060000000000  0.5488080000000  0.5362710000000 1.0
C      1  0.5841530000000  0.4506130000000  0.4686830000000 1.0
C      1  0.5865130000000  0.5474060000000  0.5315970000000 1.0
C      1  0.4949450000000  0.4492800000000  0.4714570000000 1.0
C      1  0.4701720000000  0.5495510000000  0.5224540000000 1.0
C      1  0.5202030000000  0.4360320000000  0.4897510000000 1.0
C      1  0.5377530000000  0.5531180000000  0.5245520000000 1.0
C      1  0.4263430000000  0.4757450000000  0.4341960000000 1.0
C      1  0.4244930000000  0.5245210000000  0.5620730000000 1.0
C      1  0.5696480000000  0.4761690000000  0.4330950000000 1.0
C      1  0.5653740000000  0.5280350000000  0.5593720000000 1.0
C      1  0.5538290000000  0.5205170000000  0.4588690000000 1.0
C      1  0.5550580000000  0.4776930000000  0.5513280000000 1.0
C      1  0.4429200000000  0.5141460000000  0.4633220000000 1.0
C      1  0.4460570000000  0.4773020000000  0.5452890000000 1.0
C      1  0.5729470000000  0.5665130000000  0.4570100000000 1.0
C      1  0.5690210000000  0.4319930000000  0.5444420000000 1.0
C      1  0.4399910000000  0.5679650000000  0.4596620000000 1.0
C      1  0.4339270000000  0.4338110000000  0.5362620000000 1.0
C      1  0.4958300000000  0.4665890000000  0.4977110000000 1.0
C      1  0.4867940000000  0.5369050000000  0.5009490000000 1.0
C      1  0.5259290000000  0.4754240000000  0.4866290000000 1.0
C      1  0.5113310000000  0.5264000000000  0.5117790000000 1.0
C      1  0.5289010000000  0.4910620000000  0.5133100000000 1.0
C      1  0.5284700000000  0.5150690000000  0.4891930000000 1.0
C      1  0.4757850000000  0.4878790000000  0.5063110000000 1.0
C      1  0.4726580000000  0.5115910000000  0.4897050000000 1.0
C      1  0.5454400000000  0.4474430000000  0.5635840000000 1.0
C      1  0.5525910000000  0.5473540000000  0.4380020000000 1.0
C      1  0.4566170000000  0.4468410000000  0.5561040000000 1.0
C      1  0.4525180000000  0.5421650000000  0.4476770000000 1.0
C      1  0.4519350000000  0.5496780000000  0.4169340000000 1.0
C      1  0.4525990000000  0.4461750000000  0.5901610000000 1.0
C      1  0.5324880000000  0.5502090000000  0.4106970000000 1.0
C      1  0.5432770000000  0.4399300000000  0.5970120000000 1.0
C      1  0.4414320000000  0.5766870000000  0.5282760000000 1.0
C      1  0.4440750000000  0.4290200000000  0.4711600000000 1.0
C      1  0.5630660000000  0.5872750000000  0.5267220000000 1.0
C      1  0.5569360000000  0.4163660000000  0.4761240000000 1.0
C      1  0.4481240000000  0.5569720000000  0.5013560000000 1.0
C      1  0.4382830000000  0.4559130000000  0.4911420000000 1.0
C      1  0.5584370000000  0.5633740000000  0.5028370000000 1.0
C      1  0.5516500000000  0.4398250000000  0.5004640000000 1.0
C      1  0.4786440000000  0.4022780000000  0.4681870000000 1.0
C      1  0.4898200000000  0.5949050000000  0.5132080000000 1.0
C      1  0.5054620000000  0.3944060000000  0.4749680000000 1.0
C      1  0.5211200000000  0.5974890000000  0.5190260000000 1.0
C      1  0.4566440000000  0.5106120000000  0.4239180000000 1.0
C      1  0.4590210000000  0.4862010000000  0.5737860000000 1.0
C      1  0.5390740000000  0.5104680000000  0.4226840000000 1.0
C      1  0.5396010000000  0.4947010000000  0.5760500000000 1.0
C      1  0.3959720000000  0.4601510000000  0.5510110000000 1.0
C      1  0.4026570000000  0.5433090000000  0.4566620000000 1.0
C      1  0.6038790000000  0.4641260000000  0.5500360000000 1.0
C      1  0.6035170000000  0.5321480000000  0.4520520000000 1.0
C      1  0.5207310000000  0.5395270000000  0.4469350000000 1.0
C      1  0.5161610000000  0.4647460000000  0.5640370000000 1.0
C      1  0.4862390000000  0.5378690000000  0.4485140000000 1.0
C      1  0.4873550000000  0.4581600000000  0.5469530000000 1.0
C      1  0.4095070000000  0.5405180000000  0.5084680000000 1.0
C      1  0.4072390000000  0.4453930000000  0.5001920000000 1.0
C      1  0.5858230000000  0.5434720000000  0.4996560000000 1.0
C      1  0.5821470000000  0.4548500000000  0.5011650000000 1.0
C      1  0.4824310000000  0.5006280000000  0.3953900000000 1.0
C      1  0.4737840000000  0.5036160000000  0.6064060000000 1.0
C      1  0.5226230000000  0.4918640000000  0.3917560000000 1.0
C      1  0.5164600000000  0.5137470000000  0.6022320000000 1.0
C      1  0.5129890000000  0.5710690000000  0.4158700000000 1.0
C      1  0.5162720000000  0.4311130000000  0.5854900000000 1.0
C      1  0.4833270000000  0.5614290000000  0.4162230000000 1.0
C      1  0.4858970000000  0.4399860000000  0.5870890000000 1.0
C      1  0.4726670000000  0.4736180000000  0.4053860000000 1.0
C      1  0.4650770000000  0.5253210000000  0.5883610000000 1.0
C      1  0.5293870000000  0.4708250000000  0.4119520000000 1.0
C      1  0.5208390000000  0.5382660000000  0.5849280000000 1.0
C      1  0.4728430000000  0.4181670000000  0.5645050000000 1.0
C      1  0.4650000000000  0.5791470000000  0.4394910000000 1.0
C      1  0.5246130000000  0.4217980000000  0.5555260000000 1.0
C      1  0.5202140000000  0.5851340000000  0.4381530000000 1.0
C      1  0.5423060000000  0.5441820000000  0.4804050000000 1.0
C      1  0.5424560000000  0.4634280000000  0.5231530000000 1.0
C      1  0.4446180000000  0.5281620000000  0.4920920000000 1.0
C      1  0.4499620000000  0.4745730000000  0.5148460000000 1.0
C      1  0.4846830000000  0.4500440000000  0.4329840000000 1.0
C      1  0.4779090000000  0.5516750000000  0.5613820000000 1.0
C      1  0.5176470000000  0.4437370000000  0.4391300000000 1.0
C      1  0.5109030000000  0.5599380000000  0.5620660000000 1.0
C      1  0.5895670000000  0.4480720000000  0.5320670000000 1.0
C      1  0.5938040000000  0.5512490000000  0.4699160000000 1.0
C      1  0.4076390000000  0.4451720000000  0.5299090000000 1.0
C      1  0.4131720000000  0.5560270000000  0.4822490000000 1.0
C      1  0.5834860000000  0.4861750000000  0.4869840000000 1.0
C      1  0.5811820000000  0.5113190000000  0.5100390000000 1.0
C      1  0.4176770000000  0.4910900000000  0.4837750000000 1.0
C      1  0.4237950000000  0.5117490000000  0.5092220000000 1.0
C      1  0.4108670000000  0.4712180000000  0.4572230000000 1.0
C      1  0.3921880000000  0.5324880000000  0.5573970000000 1.0
C      1  0.5868980000000  0.4752800000000  0.4549400000000 1.0
C      1  0.5943310000000  0.5209880000000  0.5429900000000 1.0
C      1  0.4722080000000  0.4690030000000  0.4583420000000 1.0
C      1  0.4611830000000  0.5279670000000  0.5423960000000 1.0
C      1  0.5302710000000  0.4698740000000  0.4563580000000 1.0
C      1  0.5325730000000  0.5247020000000  0.5353940000000 1.0
C      1  0.4585310000000  0.4062090000000  0.4916980000000 1.0
C      1  0.4566610000000  0.5955140000000  0.5068860000000 1.0
C      1  0.5466590000000  0.4001900000000  0.5005630000000 1.0
C      1  0.5494330000000  0.6022700000000  0.5006690000000 1.0
C      1  0.3886780000000  0.5002990000000  0.4940000000000 1.0
C      1  0.6151610000000  0.4893970000000  0.4860400000000 1.0
END
