TITL C-2622954-8726-48 -0.000896335688605695 125000 -466.437542256784 0 0 84 (C1) n - 1
REM
REM in /nfs/bkarasulu/CARBON/AIRSS/Generating-Clusters/AIREBO/with-SteepDescent/Higher-Symm/SD-CG/HFTN-CG
REM
REM
REM
REM
REM
REM ./C.cell (b20cbc046b6831c77cfcea5457e17084)
REM
REM compiler GCC version 9.2.1 20190827 (Red Hat 9.2.1-1)
REM options -cpp -mtune=generic -march=x86-64 -g -O0 -fpre-include=/usr/include/finclude/math-vector-fortran.h
REM seed -343852262 1117872215 1271106636 1394910843 796856348 1514688857 1437500491 386637404 612273968 -1811653022 -1414696054 605201193 680349204 -1711125566 -314495970 1802054468 1906945156 2022336264 1147040110 -1542859379 -653959271 -1951704168 630612636 -756511040 702172981 205871667 291678750 708759552 -154515104 -284580104 -538091788 643128101 1349207729
REM
CELL 1.54180   50.00000   50.00000   50.00000   90.00000   90.00000   90.00000
LATT -1
SFAC C  
C      1  0.4549720000000  0.5476040000000  0.5468220000000 1.0
C      1  0.5389310000000  0.5451710000000  0.5436150000000 1.0
C      1  0.4808390000000  0.5109420000000  0.5634370000000 1.0
C      1  0.5061730000000  0.4931080000000  0.5746240000000 1.0
C      1  0.4278100000000  0.4930030000000  0.4571230000000 1.0
C      1  0.5768630000000  0.4922060000000  0.4568260000000 1.0
C      1  0.5128120000000  0.5469110000000  0.4347300000000 1.0
C      1  0.4831750000000  0.5523160000000  0.4360480000000 1.0
C      1  0.4509830000000  0.4954990000000  0.5579310000000 1.0
C      1  0.5509180000000  0.4986800000000  0.5402330000000 1.0
C      1  0.5494880000000  0.4434810000000  0.5175400000000 1.0
C      1  0.4391910000000  0.4332870000000  0.5186010000000 1.0
C      1  0.4420750000000  0.4873380000000  0.4275190000000 1.0
C      1  0.5568070000000  0.4808040000000  0.4326810000000 1.0
C      1  0.5475270000000  0.4814240000000  0.4835210000000 1.0
C      1  0.4628450000000  0.4646360000000  0.4990580000000 1.0
C      1  0.4823400000000  0.5742360000000  0.5152530000000 1.0
C      1  0.5133030000000  0.5737150000000  0.5081160000000 1.0
C      1  0.5280840000000  0.5441570000000  0.4625220000000 1.0
C      1  0.4701710000000  0.5455030000000  0.4635910000000 1.0
C      1  0.4702650000000  0.4961250000000  0.4885760000000 1.0
C      1  0.5213230000000  0.4963080000000  0.4892700000000 1.0
C      1  0.5447730000000  0.5761780000000  0.4996150000000 1.0
C      1  0.4525180000000  0.5746160000000  0.5019330000000 1.0
C      1  0.4391720000000  0.5029910000000  0.4858960000000 1.0
C      1  0.5754020000000  0.5002050000000  0.4886610000000 1.0
C      1  0.5500890000000  0.4627470000000  0.4592170000000 1.0
C      1  0.4571970000000  0.4624240000000  0.4450300000000 1.0
C      1  0.4888900000000  0.4295220000000  0.4665590000000 1.0
C      1  0.5171590000000  0.4272200000000  0.4779250000000 1.0
C      1  0.4828160000000  0.5277320000000  0.4855520000000 1.0
C      1  0.5135610000000  0.5260110000000  0.4837330000000 1.0
C      1  0.5377000000000  0.4248910000000  0.5365480000000 1.0
C      1  0.4655870000000  0.4271450000000  0.5186060000000 1.0
C      1  0.4371740000000  0.5378800000000  0.4666760000000 1.0
C      1  0.5615410000000  0.5381370000000  0.4651440000000 1.0
C      1  0.5730640000000  0.4386300000000  0.4660430000000 1.0
C      1  0.4369390000000  0.4477170000000  0.4657380000000 1.0
C      1  0.4803750000000  0.4829320000000  0.4591140000000 1.0
C      1  0.5100880000000  0.4821440000000  0.4629280000000 1.0
C      1  0.4984380000000  0.5296660000000  0.5861930000000 1.0
C      1  0.5273350000000  0.5141140000000  0.5802710000000 1.0
C      1  0.5974810000000  0.5007300000000  0.5274930000000 1.0
C      1  0.4063910000000  0.5007320000000  0.5339290000000 1.0
C      1  0.5102300000000  0.4321630000000  0.5446590000000 1.0
C      1  0.4835510000000  0.4422480000000  0.5364070000000 1.0
C      1  0.4727930000000  0.4722720000000  0.5688520000000 1.0
C      1  0.5059360000000  0.4661450000000  0.5643610000000 1.0
C      1  0.5448130000000  0.5188760000000  0.5588140000000 1.0
C      1  0.4450180000000  0.5281560000000  0.5628410000000 1.0
C      1  0.5257810000000  0.4912740000000  0.5226310000000 1.0
C      1  0.4773000000000  0.4940280000000  0.5217780000000 1.0
C      1  0.5407950000000  0.4316290000000  0.4647470000000 1.0
C      1  0.4639490000000  0.4319680000000  0.4553510000000 1.0
C      1  0.5736660000000  0.5317720000000  0.4948100000000 1.0
C      1  0.4269760000000  0.5292700000000  0.4979850000000 1.0
C      1  0.4279630000000  0.4844310000000  0.5376720000000 1.0
C      1  0.5732780000000  0.4867210000000  0.5294660000000 1.0
C      1  0.6004550000000  0.5222060000000  0.5105230000000 1.0
C      1  0.4022610000000  0.5194980000000  0.5142750000000 1.0
C      1  0.4515550000000  0.5147920000000  0.4462690000000 1.0
C      1  0.5515330000000  0.5122890000000  0.4462630000000 1.0
C      1  0.4753560000000  0.4903060000000  0.4262410000000 1.0
C      1  0.5252040000000  0.4840280000000  0.4364400000000 1.0
C      1  0.5559380000000  0.5482530000000  0.5143290000000 1.0
C      1  0.4432940000000  0.5472760000000  0.5169210000000 1.0
C      1  0.4754130000000  0.5409560000000  0.5131640000000 1.0
C      1  0.5243160000000  0.5427210000000  0.5067680000000 1.0
C      1  0.4843970000000  0.5189940000000  0.4372550000000 1.0
C      1  0.5186180000000  0.5151340000000  0.4371080000000 1.0
C      1  0.4770360000000  0.4712170000000  0.5376360000000 1.0
C      1  0.5176980000000  0.4633260000000  0.5332820000000 1.0
C      1  0.4493360000000  0.5687230000000  0.4733590000000 1.0
C      1  0.5485840000000  0.5688100000000  0.4706470000000 1.0
C      1  0.5174760000000  0.4421090000000  0.5066920000000 1.0
C      1  0.4852290000000  0.4414060000000  0.4965800000000 1.0
C      1  0.5168760000000  0.5221930000000  0.5304440000000 1.0
C      1  0.4869990000000  0.5208140000000  0.5338020000000 1.0
C      1  0.5106140000000  0.5609510000000  0.5395150000000 1.0
C      1  0.4794680000000  0.5623660000000  0.5466370000000 1.0
C      1  0.5843440000000  0.4675240000000  0.4792470000000 1.0
C      1  0.4267640000000  0.4713570000000  0.4833270000000 1.0
C      1  0.5660360000000  0.4666210000000  0.5079010000000 1.0
C      1  0.4325660000000  0.4643570000000  0.5145610000000 1.0
END
