TITL C-2622968-4806-568 -0.000325128194251099 125000 -729.534442064619 0 0 131 (C1) n - 1
REM
REM in /nfs/bkarasulu/CARBON/AIRSS/Generating-Clusters/AIREBO/with-SteepDescent/Higher-Symm/SD-CG/HFTN-CG
REM
REM
REM
REM
REM
REM ./C.cell (b20cbc046b6831c77cfcea5457e17084)
REM
REM compiler GCC version 9.2.1 20190827 (Red Hat 9.2.1-1)
REM options -cpp -mtune=generic -march=x86-64 -g -O0 -fpre-include=/usr/include/finclude/math-vector-fortran.h
REM seed -452641518 1941795454 -2059851885 -116570111 -147643981 -358589623 1396581555 1478876210 1044569035 769076822 190980108 -291612082 511073285 1697784927 -227637164 -2007783873 -1175158306 1151461462 944891815 -1596525609 1120386102 42051719 -973406243 -1644029312 148453354 1764256875 1961852090 -293250838 -1287238856 2138939261 -1743799849 1158867975 -513340964
REM
CELL 1.54180   50.00000   50.00000   50.00000   90.00000   90.00000   90.00000
LATT -1
SFAC C  
C      1  0.5415000000000  0.4978570000000  0.4375070000000 1.0
C      1  0.4816210000000  0.5359080000000  0.4320040000000 1.0
C      1  0.4779650000000  0.4597710000000  0.4302570000000 1.0
C      1  0.5380200000000  0.4966440000000  0.5656250000000 1.0
C      1  0.4823620000000  0.5362190000000  0.5670430000000 1.0
C      1  0.4766010000000  0.4684840000000  0.5675150000000 1.0
C      1  0.4694410000000  0.4905670000000  0.5145510000000 1.0
C      1  0.5204060000000  0.4790750000000  0.5139550000000 1.0
C      1  0.5077030000000  0.5338760000000  0.5175850000000 1.0
C      1  0.4714570000000  0.4865170000000  0.4807430000000 1.0
C      1  0.5227710000000  0.4754550000000  0.4818590000000 1.0
C      1  0.5071300000000  0.5274320000000  0.4853280000000 1.0
C      1  0.5482310000000  0.5685240000000  0.5416220000000 1.0
C      1  0.4138850000000  0.5059730000000  0.5418080000000 1.0
C      1  0.5379780000000  0.4239840000000  0.5439470000000 1.0
C      1  0.5628310000000  0.5772010000000  0.4542030000000 1.0
C      1  0.4058240000000  0.5129850000000  0.4495660000000 1.0
C      1  0.5332070000000  0.4183950000000  0.4522260000000 1.0
C      1  0.4711290000000  0.4530870000000  0.4869540000000 1.0
C      1  0.5488570000000  0.4944430000000  0.4711350000000 1.0
C      1  0.4768310000000  0.5396300000000  0.4819610000000 1.0
C      1  0.4630790000000  0.4600850000000  0.5253530000000 1.0
C      1  0.5456900000000  0.4991440000000  0.5107060000000 1.0
C      1  0.4788060000000  0.5507730000000  0.5202870000000 1.0
C      1  0.5227620000000  0.5295820000000  0.4045190000000 1.0
C      1  0.4707310000000  0.5100750000000  0.3993970000000 1.0
C      1  0.5106680000000  0.4758760000000  0.3970590000000 1.0
C      1  0.5221110000000  0.5226900000000  0.6024940000000 1.0
C      1  0.4685930000000  0.5080110000000  0.6030310000000 1.0
C      1  0.5094160000000  0.4699590000000  0.6025370000000 1.0
C      1  0.5140330000000  0.5797410000000  0.4722840000000 1.0
C      1  0.4236840000000  0.4697760000000  0.4723110000000 1.0
C      1  0.5634990000000  0.4485650000000  0.4711800000000 1.0
C      1  0.5132420000000  0.5730960000000  0.5230590000000 1.0
C      1  0.4245860000000  0.4707310000000  0.5268970000000 1.0
C      1  0.5603810000000  0.4530560000000  0.5229640000000 1.0
C      1  0.4432110000000  0.5478720000000  0.5381370000000 1.0
C      1  0.4861370000000  0.4267960000000  0.5427440000000 1.0
C      1  0.5661370000000  0.5218100000000  0.5365250000000 1.0
C      1  0.4427660000000  0.5459990000000  0.4619990000000 1.0
C      1  0.4891730000000  0.4253230000000  0.4645160000000 1.0
C      1  0.5764250000000  0.5298240000000  0.4582600000000 1.0
C      1  0.4574460000000  0.5662890000000  0.4852190000000 1.0
C      1  0.4627390000000  0.4212020000000  0.4855220000000 1.0
C      1  0.5808950000000  0.5029900000000  0.4786990000000 1.0
C      1  0.4524210000000  0.5717310000000  0.5157290000000 1.0
C      1  0.4643110000000  0.4272380000000  0.5166470000000 1.0
C      1  0.5793260000000  0.5041140000000  0.5104800000000 1.0
C      1  0.5783210000000  0.4772460000000  0.5507170000000 1.0
C      1  0.4787930000000  0.5807660000000  0.5539400000000 1.0
C      1  0.4396120000000  0.4437560000000  0.5538830000000 1.0
C      1  0.5804380000000  0.4783790000000  0.4451180000000 1.0
C      1  0.4780660000000  0.5792670000000  0.4462280000000 1.0
C      1  0.4426390000000  0.4345960000000  0.4457420000000 1.0
C      1  0.5435970000000  0.5394290000000  0.5535510000000 1.0
C      1  0.4418350000000  0.5176760000000  0.5522290000000 1.0
C      1  0.5135760000000  0.4419790000000  0.5551620000000 1.0
C      1  0.5643810000000  0.5535080000000  0.4408010000000 1.0
C      1  0.4287610000000  0.5247940000000  0.4393910000000 1.0
C      1  0.5107960000000  0.4413430000000  0.4436930000000 1.0
C      1  0.5382490000000  0.5228790000000  0.4781580000000 1.0
C      1  0.4586700000000  0.5151000000000  0.4852670000000 1.0
C      1  0.5020190000000  0.4545340000000  0.4884700000000 1.0
C      1  0.5380960000000  0.5305130000000  0.5100020000000 1.0
C      1  0.4662760000000  0.5231270000000  0.5168140000000 1.0
C      1  0.4947710000000  0.4588350000000  0.5204630000000 1.0
C      1  0.4159210000000  0.4400650000000  0.4843400000000 1.0
C      1  0.5929120000000  0.4529890000000  0.4833320000000 1.0
C      1  0.4934620000000  0.6029450000000  0.4855540000000 1.0
C      1  0.4140130000000  0.4417590000000  0.5125060000000 1.0
C      1  0.5917450000000  0.4541540000000  0.5108670000000 1.0
C      1  0.4945330000000  0.5996160000000  0.5136600000000 1.0
C      1  0.4421100000000  0.5155460000000  0.5831300000000 1.0
C      1  0.5159490000000  0.4414950000000  0.5865560000000 1.0
C      1  0.5436540000000  0.5419440000000  0.5850960000000 1.0
C      1  0.4431740000000  0.5128960000000  0.4179600000000 1.0
C      1  0.5166470000000  0.4472740000000  0.4137890000000 1.0
C      1  0.5478860000000  0.5470950000000  0.4193150000000 1.0
C      1  0.5082560000000  0.4286540000000  0.5179480000000 1.0
C      1  0.5677020000000  0.5466180000000  0.5145460000000 1.0
C      1  0.4337090000000  0.5265150000000  0.5141080000000 1.0
C      1  0.5132910000000  0.4238400000000  0.4861190000000 1.0
C      1  0.5594220000000  0.5482390000000  0.4815100000000 1.0
C      1  0.4278330000000  0.5225020000000  0.4814110000000 1.0
C      1  0.4816150000000  0.4804200000000  0.4069040000000 1.0
C      1  0.5309810000000  0.5007830000000  0.4085570000000 1.0
C      1  0.4900640000000  0.5292080000000  0.4065700000000 1.0
C      1  0.4811290000000  0.4776180000000  0.5959120000000 1.0
C      1  0.5294480000000  0.4950420000000  0.5946930000000 1.0
C      1  0.4898380000000  0.5276270000000  0.5951730000000 1.0
C      1  0.5223380000000  0.4727350000000  0.4500700000000 1.0
C      1  0.5035950000000  0.5302890000000  0.4538240000000 1.0
C      1  0.4706130000000  0.4841750000000  0.4501160000000 1.0
C      1  0.5202590000000  0.4743420000000  0.5470870000000 1.0
C      1  0.5107210000000  0.5321090000000  0.5487780000000 1.0
C      1  0.4661310000000  0.4942540000000  0.5479540000000 1.0
C      1  0.4092650000000  0.4958020000000  0.4776060000000 1.0
C      1  0.5461570000000  0.4243670000000  0.4800390000000 1.0
C      1  0.5429410000000  0.5776450000000  0.4793570000000 1.0
C      1  0.4145220000000  0.4990820000000  0.5109140000000 1.0
C      1  0.5421560000000  0.4271230000000  0.5131950000000 1.0
C      1  0.5448520000000  0.5714910000000  0.5106300000000 1.0
C      1  0.4474150000000  0.4835950000000  0.5897660000000 1.0
C      1  0.5408340000000  0.4634370000000  0.5873220000000 1.0
C      1  0.5123790000000  0.5527140000000  0.5872210000000 1.0
C      1  0.4486200000000  0.4825880000000  0.4167990000000 1.0
C      1  0.5421640000000  0.4687120000000  0.4103690000000 1.0
C      1  0.5197230000000  0.5604410000000  0.4187860000000 1.0
C      1  0.4415200000000  0.4673580000000  0.4448590000000 1.0
C      1  0.5527300000000  0.4599140000000  0.4417650000000 1.0
C      1  0.5068350000000  0.5634360000000  0.4458800000000 1.0
C      1  0.4387420000000  0.4765070000000  0.5575570000000 1.0
C      1  0.5502900000000  0.4603210000000  0.5547410000000 1.0
C      1  0.5075450000000  0.5652200000000  0.5559260000000 1.0
C      1  0.4355510000000  0.4236880000000  0.4709730000000 1.0
C      1  0.5974460000000  0.4770550000000  0.4686090000000 1.0
C      1  0.4712190000000  0.5898780000000  0.4711870000000 1.0
C      1  0.4354580000000  0.4315160000000  0.5295280000000 1.0
C      1  0.5904640000000  0.4792290000000  0.5258670000000 1.0
C      1  0.4718770000000  0.5922410000000  0.5295210000000 1.0
C      1  0.4635900000000  0.5551600000000  0.4398530000000 1.0
C      1  0.4711000000000  0.4350220000000  0.4400790000000 1.0
C      1  0.5715330000000  0.5051080000000  0.4399840000000 1.0
C      1  0.4650020000000  0.5560710000000  0.5589230000000 1.0
C      1  0.4673430000000  0.4431070000000  0.5612750000000 1.0
C      1  0.5646090000000  0.5013370000000  0.5584290000000 1.0
C      1  0.4427970000000  0.4656550000000  0.4986320000000 1.0
C      1  0.5602120000000  0.4728010000000  0.4948410000000 1.0
C      1  0.4961760000000  0.5644210000000  0.4949290000000 1.0
C      1  0.4990120000000  0.4972920000000  0.4469580000000 1.0
C      1  0.4991990000000  0.5003770000000  0.5530400000000 1.0
END
