TITL C-2622956-4641-133 -0.000784769149932823 125000 -1030.78730179641 0 0 184 (C1) n - 1
REM
REM in /nfs/bkarasulu/CARBON/AIRSS/Generating-Clusters/AIREBO/with-SteepDescent/Higher-Symm/SD-CG/HFTN-CG
REM
REM
REM
REM
REM
REM ./C.cell (b20cbc046b6831c77cfcea5457e17084)
REM
REM compiler GCC version 9.2.1 20190827 (Red Hat 9.2.1-1)
REM options -cpp -mtune=generic -march=x86-64 -g -O0 -fpre-include=/usr/include/finclude/math-vector-fortran.h
REM seed 1767342507 1376079983 -1504452808 2052663494 1412920024 92618071 -521977041 968500144 496167682 -974823845 -241889268 -918501327 1397447544 -884714889 -289075167 -1946540666 695372528 901554515 1256933716 -815905526 -839924208 629115378 -1481405247 1506088482 -587292905 1829757193 829864484 -1443601500 -257894668 -1200958734 -361406346 996298058 -1914192077
REM
CELL 1.54180   50.00000   50.00000   50.00000   90.00000   90.00000   90.00000
LATT -1
SFAC C  
C      1  0.5456270000000  0.5203950000000  0.5905620000000 1.0
C      1  0.3993270000000  0.5281790000000  0.4894020000000 1.0
C      1  0.5498100000000  0.5279320000000  0.4119450000000 1.0
C      1  0.5255980000000  0.4846850000000  0.4882180000000 1.0
C      1  0.4955570000000  0.4865250000000  0.5216730000000 1.0
C      1  0.4772090000000  0.4827490000000  0.4779530000000 1.0
C      1  0.5699130000000  0.5408170000000  0.4752700000000 1.0
C      1  0.4862650000000  0.5403390000000  0.5675310000000 1.0
C      1  0.4454730000000  0.5502660000000  0.4485060000000 1.0
C      1  0.4677860000000  0.5013180000000  0.4280530000000 1.0
C      1  0.5995300000000  0.5025690000000  0.5126310000000 1.0
C      1  0.4428080000000  0.5069050000000  0.5738970000000 1.0
C      1  0.6001010000000  0.5263450000000  0.4692480000000 1.0
C      1  0.4673500000000  0.5172930000000  0.6100730000000 1.0
C      1  0.4203140000000  0.5139360000000  0.4141350000000 1.0
C      1  0.4785640000000  0.4250000000000  0.4934500000000 1.0
C      1  0.5253500000000  0.4187550000000  0.4871680000000 1.0
C      1  0.4951590000000  0.4256000000000  0.5343280000000 1.0
C      1  0.5812380000000  0.5756070000000  0.5443260000000 1.0
C      1  0.4199120000000  0.5847360000000  0.5410230000000 1.0
C      1  0.4842580000000  0.5819370000000  0.4249800000000 1.0
C      1  0.5235830000000  0.4712650000000  0.6075610000000 1.0
C      1  0.4003510000000  0.4682270000000  0.4677630000000 1.0
C      1  0.5751440000000  0.4694530000000  0.4256720000000 1.0
C      1  0.4351980000000  0.4893780000000  0.4057810000000 1.0
C      1  0.6020840000000  0.4973420000000  0.4834490000000 1.0
C      1  0.4546080000000  0.4961630000000  0.5963890000000 1.0
C      1  0.4774710000000  0.4936590000000  0.3996630000000 1.0
C      1  0.6039170000000  0.4978630000000  0.5394710000000 1.0
C      1  0.4156650000000  0.5093630000000  0.5681520000000 1.0
C      1  0.5180170000000  0.5581370000000  0.4219740000000 1.0
C      1  0.5537960000000  0.5493330000000  0.5565620000000 1.0
C      1  0.4305410000000  0.5591920000000  0.5121710000000 1.0
C      1  0.5909670000000  0.4359910000000  0.5331700000000 1.0
C      1  0.4287590000000  0.4393180000000  0.5558430000000 1.0
C      1  0.4758270000000  0.4294530000000  0.4017330000000 1.0
C      1  0.4063790000000  0.5009960000000  0.4613930000000 1.0
C      1  0.5756900000000  0.5028390000000  0.4290820000000 1.0
C      1  0.5148970000000  0.5003910000000  0.6042530000000 1.0
C      1  0.5293840000000  0.5287190000000  0.5239270000000 1.0
C      1  0.4642050000000  0.5314660000000  0.5081910000000 1.0
C      1  0.5089900000000  0.5290680000000  0.4661570000000 1.0
C      1  0.5790510000000  0.4471850000000  0.5081080000000 1.0
C      1  0.4543610000000  0.4545910000000  0.5704680000000 1.0
C      1  0.4518530000000  0.4365570000000  0.4118880000000 1.0
C      1  0.4759960000000  0.4899610000000  0.5460760000000 1.0
C      1  0.4620700000000  0.4770690000000  0.4480270000000 1.0
C      1  0.5594250000000  0.4881520000000  0.4881180000000 1.0
C      1  0.4966090000000  0.6068700000000  0.5452710000000 1.0
C      1  0.4721790000000  0.6121870000000  0.4817860000000 1.0
C      1  0.5388420000000  0.6053990000000  0.4809980000000 1.0
C      1  0.4999110000000  0.5512190000000  0.4831430000000 1.0
C      1  0.5187880000000  0.5536370000000  0.5098800000000 1.0
C      1  0.4862320000000  0.5512290000000  0.5130660000000 1.0
C      1  0.4056670000000  0.4699750000000  0.4369610000000 1.0
C      1  0.5973030000000  0.4753460000000  0.4471290000000 1.0
C      1  0.4924910000000  0.4718330000000  0.6196480000000 1.0
C      1  0.4375390000000  0.4640630000000  0.4283910000000 1.0
C      1  0.5856750000000  0.4707630000000  0.4752650000000 1.0
C      1  0.4752970000000  0.4721980000000  0.5906800000000 1.0
C      1  0.5799630000000  0.4479890000000  0.5630210000000 1.0
C      1  0.4142540000000  0.4652490000000  0.5428930000000 1.0
C      1  0.5020150000000  0.4488660000000  0.4084680000000 1.0
C      1  0.4090910000000  0.5347670000000  0.5536240000000 1.0
C      1  0.4821010000000  0.5260860000000  0.4003200000000 1.0
C      1  0.5937510000000  0.5216680000000  0.5553290000000 1.0
C      1  0.4347870000000  0.5387200000000  0.4183540000000 1.0
C      1  0.6036420000000  0.5474040000000  0.4955920000000 1.0
C      1  0.4646580000000  0.5406340000000  0.5937840000000 1.0
C      1  0.5181700000000  0.4515200000000  0.4866100000000 1.0
C      1  0.5035610000000  0.4537690000000  0.5172350000000 1.0
C      1  0.4750260000000  0.4559910000000  0.4988770000000 1.0
C      1  0.5340580000000  0.4496440000000  0.5316910000000 1.0
C      1  0.4511490000000  0.4456710000000  0.5199310000000 1.0
C      1  0.5034150000000  0.4423200000000  0.4586510000000 1.0
C      1  0.3997200000000  0.5015580000000  0.4301720000000 1.0
C      1  0.6044870000000  0.5064140000000  0.4445900000000 1.0
C      1  0.4908470000000  0.5059710000000  0.6222050000000 1.0
C      1  0.4934100000000  0.4106300000000  0.4162430000000 1.0
C      1  0.5580050000000  0.4282340000000  0.5362710000000 1.0
C      1  0.4371630000000  0.4189110000000  0.5325690000000 1.0
C      1  0.4792920000000  0.6002410000000  0.5724830000000 1.0
C      1  0.4496290000000  0.6023050000000  0.4648500000000 1.0
C      1  0.5617300000000  0.5916580000000  0.4731770000000 1.0
C      1  0.5264320000000  0.4879890000000  0.3861720000000 1.0
C      1  0.5792160000000  0.4855490000000  0.5949770000000 1.0
C      1  0.3821980000000  0.4887690000000  0.5146660000000 1.0
C      1  0.4806470000000  0.4381990000000  0.5845000000000 1.0
C      1  0.4366920000000  0.4327020000000  0.4415280000000 1.0
C      1  0.5799140000000  0.4408280000000  0.4788990000000 1.0
C      1  0.4071180000000  0.4558370000000  0.4914740000000 1.0
C      1  0.5530120000000  0.4556800000000  0.4181870000000 1.0
C      1  0.5415960000000  0.4576460000000  0.5914080000000 1.0
C      1  0.4705860000000  0.5006610000000  0.5052840000000 1.0
C      1  0.5047890000000  0.4985580000000  0.4702820000000 1.0
C      1  0.5234950000000  0.4994410000000  0.5171900000000 1.0
C      1  0.3984940000000  0.4655740000000  0.5162600000000 1.0
C      1  0.5329880000000  0.4611820000000  0.3990590000000 1.0
C      1  0.5691650000000  0.4598930000000  0.5894330000000 1.0
C      1  0.5127810000000  0.5903430000000  0.5245420000000 1.0
C      1  0.4880600000000  0.5892110000000  0.5011820000000 1.0
C      1  0.5136510000000  0.5882910000000  0.4787660000000 1.0
C      1  0.4283490000000  0.5233440000000  0.4723520000000 1.0
C      1  0.5540170000000  0.5217950000000  0.4439830000000 1.0
C      1  0.5160250000000  0.5147730000000  0.5747970000000 1.0
C      1  0.5426210000000  0.6112520000000  0.5098480000000 1.0
C      1  0.4632590000000  0.6047290000000  0.5428380000000 1.0
C      1  0.4879310000000  0.6073260000000  0.4553250000000 1.0
C      1  0.4563480000000  0.5452780000000  0.4003850000000 1.0
C      1  0.5823860000000  0.5558840000000  0.5194820000000 1.0
C      1  0.4481310000000  0.5519900000000  0.5657710000000 1.0
C      1  0.5615960000000  0.5307720000000  0.5291480000000 1.0
C      1  0.4443030000000  0.5380100000000  0.5349740000000 1.0
C      1  0.4982390000000  0.5364330000000  0.4386250000000 1.0
C      1  0.4404050000000  0.4778320000000  0.4926440000000 1.0
C      1  0.5329040000000  0.4755510000000  0.4464470000000 1.0
C      1  0.5241120000000  0.4767170000000  0.5591370000000 1.0
C      1  0.4797660000000  0.4211770000000  0.4618430000000 1.0
C      1  0.5565030000000  0.4103560000000  0.4890590000000 1.0
C      1  0.4786850000000  0.4168990000000  0.5595190000000 1.0
C      1  0.4174180000000  0.5628220000000  0.4630560000000 1.0
C      1  0.5700020000000  0.5583510000000  0.4461170000000 1.0
C      1  0.5104380000000  0.5538940000000  0.5872460000000 1.0
C      1  0.4973330000000  0.4769710000000  0.3901540000000 1.0
C      1  0.6014030000000  0.4716290000000  0.5512540000000 1.0
C      1  0.4022090000000  0.4848860000000  0.5639510000000 1.0
C      1  0.4482570000000  0.4708630000000  0.5412440000000 1.0
C      1  0.4909260000000  0.4624240000000  0.4375300000000 1.0
C      1  0.5570170000000  0.4674160000000  0.5149620000000 1.0
C      1  0.4738470000000  0.5705850000000  0.5602430000000 1.0
C      1  0.4598630000000  0.5788370000000  0.4451830000000 1.0
C      1  0.5677730000000  0.5676030000000  0.4938680000000 1.0
C      1  0.5223880000000  0.4213800000000  0.4189630000000 1.0
C      1  0.5624710000000  0.4189600000000  0.5670980000000 1.0
C      1  0.4298110000000  0.4004730000000  0.5092150000000 1.0
C      1  0.5095480000000  0.5933360000000  0.4381040000000 1.0
C      1  0.5574660000000  0.5884100000000  0.5501310000000 1.0
C      1  0.4370690000000  0.5904010000000  0.5176150000000 1.0
C      1  0.4576920000000  0.5749830000000  0.4953840000000 1.0
C      1  0.5240130000000  0.5670290000000  0.4542460000000 1.0
C      1  0.5289510000000  0.5700920000000  0.5465650000000 1.0
C      1  0.5518600000000  0.5566430000000  0.4249440000000 1.0
C      1  0.5366800000000  0.5478570000000  0.5833990000000 1.0
C      1  0.4107650000000  0.5550710000000  0.4888290000000 1.0
C      1  0.4690900000000  0.5281110000000  0.4381080000000 1.0
C      1  0.5713340000000  0.5170360000000  0.4995990000000 1.0
C      1  0.4647790000000  0.5179500000000  0.5532710000000 1.0
C      1  0.5063280000000  0.4896310000000  0.4397680000000 1.0
C      1  0.5436730000000  0.4876570000000  0.5384080000000 1.0
C      1  0.4416490000000  0.4942090000000  0.5191600000000 1.0
C      1  0.4511920000000  0.5443020000000  0.4815050000000 1.0
C      1  0.5380390000000  0.5382450000000  0.4637140000000 1.0
C      1  0.5157290000000  0.5386950000000  0.5506290000000 1.0
C      1  0.4385110000000  0.4925070000000  0.4670750000000 1.0
C      1  0.5556280000000  0.4914380000000  0.4544910000000 1.0
C      1  0.4968130000000  0.4871620000000  0.5697200000000 1.0
C      1  0.5684260000000  0.4089670000000  0.5130640000000 1.0
C      1  0.4545010000000  0.4045990000000  0.5543470000000 1.0
C      1  0.4831610000000  0.4005220000000  0.4394880000000 1.0
C      1  0.5866840000000  0.5478960000000  0.5584100000000 1.0
C      1  0.4196020000000  0.5609760000000  0.5563430000000 1.0
C      1  0.4877190000000  0.5577470000000  0.4065220000000 1.0
C      1  0.4201760000000  0.5148380000000  0.5288600000000 1.0
C      1  0.5066580000000  0.5122920000000  0.4192880000000 1.0
C      1  0.5658970000000  0.5040780000000  0.5497710000000 1.0
C      1  0.4469010000000  0.4258090000000  0.4692270000000 1.0
C      1  0.5577550000000  0.4251930000000  0.4595650000000 1.0
C      1  0.5086520000000  0.4239310000000  0.5724060000000 1.0
C      1  0.5306030000000  0.5116140000000  0.4013970000000 1.0
C      1  0.5671170000000  0.5066440000000  0.5810980000000 1.0
C      1  0.3958850000000  0.5129260000000  0.5114590000000 1.0
C      1  0.5401690000000  0.5773290000000  0.5091480000000 1.0
C      1  0.4762830000000  0.5759370000000  0.5302020000000 1.0
C      1  0.4861670000000  0.5745360000000  0.4642190000000 1.0
C      1  0.5289840000000  0.4462610000000  0.5652110000000 1.0
C      1  0.4371130000000  0.4463600000000  0.4905250000000 1.0
C      1  0.5335680000000  0.4427770000000  0.4429220000000 1.0
C      1  0.4757570000000  0.3912010000000  0.4959510000000 1.0
C      1  0.5299500000000  0.3967040000000  0.4628670000000 1.0
C      1  0.5197600000000  0.4024010000000  0.5379060000000 1.0
C      1  0.5423930000000  0.4043630000000  0.4372910000000 1.0
C      1  0.5352720000000  0.4069510000000  0.5627940000000 1.0
C      1  0.4476690000000  0.4001440000000  0.4885100000000 1.0
C      1  0.5042800000000  0.4074120000000  0.5070810000000 1.0
END
