TITL C-2622958-629-624 0.00043580849933253 125000 -783.027758704323 0 0 150 (C1) n - 1
REM
REM in /nfs/bkarasulu/CARBON/AIRSS/Generating-Clusters/AIREBO/with-SteepDescent/Higher-Symm/SD-CG/HFTN-CG
REM
REM
REM
REM
REM
REM ./C.cell (b20cbc046b6831c77cfcea5457e17084)
REM
REM compiler GCC version 9.2.1 20190827 (Red Hat 9.2.1-1)
REM options -cpp -mtune=generic -march=x86-64 -g -O0 -fpre-include=/usr/include/finclude/math-vector-fortran.h
REM seed -1410016257 -2146870387 -1776967374 142433273 -1272322518 -488755974 506185627 764374253 1240100028 692267341 -252145181 -1595841073 552761561 -359829342 -1523661601 1767874426 -1492321036 2049623359 -558728054 2059515354 -1091745464 -874941569 2139165077 -691166297 -1846073448 1735881060 -1561962029 1780874201 -1933633398 -31344730 -199634354 -1290403549 -1701708338
REM
CELL 1.54180   50.00000   50.00000   50.00000   90.00000   90.00000   90.00000
LATT -1
SFAC C  
C      1  0.4855800000000  0.4786800000000  0.4906120000000 1.0
C      1  0.4961140000000  0.4782390000000  0.5229500000000 1.0
C      1  0.5190220000000  0.4737460000000  0.4982190000000 1.0
C      1  0.5938910000000  0.5011070000000  0.4574490000000 1.0
C      1  0.4160130000000  0.5083500000000  0.4488000000000 1.0
C      1  0.4931270000000  0.5051880000000  0.6014110000000 1.0
C      1  0.4270970000000  0.4476100000000  0.5399040000000 1.0
C      1  0.5689790000000  0.4478750000000  0.5460520000000 1.0
C      1  0.5021640000000  0.4448430000000  0.4206130000000 1.0
C      1  0.4273800000000  0.4603640000000  0.4385790000000 1.0
C      1  0.4774760000000  0.4601060000000  0.5972120000000 1.0
C      1  0.5899560000000  0.4554920000000  0.4657990000000 1.0
C      1  0.4823790000000  0.5906770000000  0.4944080000000 1.0
C      1  0.4944820000000  0.5989170000000  0.5251490000000 1.0
C      1  0.5329720000000  0.5914050000000  0.4805930000000 1.0
C      1  0.4585300000000  0.4666880000000  0.4789260000000 1.0
C      1  0.5001950000000  0.4623840000000  0.5495060000000 1.0
C      1  0.5407870000000  0.4619660000000  0.4737180000000 1.0
C      1  0.5209990000000  0.6139100000000  0.5248440000000 1.0
C      1  0.5135540000000  0.6037020000000  0.4616740000000 1.0
C      1  0.4576810000000  0.6000120000000  0.5156020000000 1.0
C      1  0.5931740000000  0.5410700000000  0.4884730000000 1.0
C      1  0.4412800000000  0.5474430000000  0.4341260000000 1.0
C      1  0.4628770000000  0.5507580000000  0.5879280000000 1.0
C      1  0.4641530000000  0.5673370000000  0.5210260000000 1.0
C      1  0.5299910000000  0.5867080000000  0.5115520000000 1.0
C      1  0.4987510000000  0.5740770000000  0.4693970000000 1.0
C      1  0.4823280000000  0.5084170000000  0.5258820000000 1.0
C      1  0.5306800000000  0.5053130000000  0.5030890000000 1.0
C      1  0.4899500000000  0.5085000000000  0.4759580000000 1.0
C      1  0.4294120000000  0.5270440000000  0.5454590000000 1.0
C      1  0.5718150000000  0.5352070000000  0.5356870000000 1.0
C      1  0.4945060000000  0.5334090000000  0.4207570000000 1.0
C      1  0.5448640000000  0.5800990000000  0.4385130000000 1.0
C      1  0.4304260000000  0.5829570000000  0.4921830000000 1.0
C      1  0.5237390000000  0.5873480000000  0.5595780000000 1.0
C      1  0.4286210000000  0.5027350000000  0.4833340000000 1.0
C      1  0.5190800000000  0.4979490000000  0.5656650000000 1.0
C      1  0.5510670000000  0.5019210000000  0.4493790000000 1.0
C      1  0.4243590000000  0.4307570000000  0.4753070000000 1.0
C      1  0.5181860000000  0.4268380000000  0.5768680000000 1.0
C      1  0.5600240000000  0.4291450000000  0.4411050000000 1.0
C      1  0.5062770000000  0.4431600000000  0.5059030000000 1.0
C      1  0.5139420000000  0.4411990000000  0.4757910000000 1.0
C      1  0.4769380000000  0.4352100000000  0.5037230000000 1.0
C      1  0.5043830000000  0.5645890000000  0.5149790000000 1.0
C      1  0.5255440000000  0.5583760000000  0.4837820000000 1.0
C      1  0.4820910000000  0.5508360000000  0.4973090000000 1.0
C      1  0.4964350000000  0.5728890000000  0.5469800000000 1.0
C      1  0.5541270000000  0.5675580000000  0.4678100000000 1.0
C      1  0.4587550000000  0.5698860000000  0.4815000000000 1.0
C      1  0.4696470000000  0.5692430000000  0.5605420000000 1.0
C      1  0.5762680000000  0.5695510000000  0.4888790000000 1.0
C      1  0.4594110000000  0.5711280000000  0.4507090000000 1.0
C      1  0.4282740000000  0.4653800000000  0.5619580000000 1.0
C      1  0.5908670000000  0.4621940000000  0.5287150000000 1.0
C      1  0.4815320000000  0.4603950000000  0.4085620000000 1.0
C      1  0.5532290000000  0.4624070000000  0.5699750000000 1.0
C      1  0.5380480000000  0.4705660000000  0.4161850000000 1.0
C      1  0.4081670000000  0.4688630000000  0.5053800000000 1.0
C      1  0.5621370000000  0.5781260000000  0.5185920000000 1.0
C      1  0.4885230000000  0.5793810000000  0.4373940000000 1.0
C      1  0.4411420000000  0.5773520000000  0.5439720000000 1.0
C      1  0.6047270000000  0.5214620000000  0.4670230000000 1.0
C      1  0.4163960000000  0.5295900000000  0.4337350000000 1.0
C      1  0.4797560000000  0.5269400000000  0.5923490000000 1.0
C      1  0.5145610000000  0.4120300000000  0.4643370000000 1.0
C      1  0.4567590000000  0.4130340000000  0.5197840000000 1.0
C      1  0.5233360000000  0.4246570000000  0.5262170000000 1.0
C      1  0.4720750000000  0.4225960000000  0.4752130000000 1.0
C      1  0.4870620000000  0.4140650000000  0.5452900000000 1.0
C      1  0.5418110000000  0.4143190000000  0.4846990000000 1.0
C      1  0.4722150000000  0.4442950000000  0.5501420000000 1.0
C      1  0.5549790000000  0.4427540000000  0.4979300000000 1.0
C      1  0.4746660000000  0.4494260000000  0.4544740000000 1.0
C      1  0.4349090000000  0.5406060000000  0.5164210000000 1.0
C      1  0.5416560000000  0.5474620000000  0.5340770000000 1.0
C      1  0.5177930000000  0.5396820000000  0.4447240000000 1.0
C      1  0.3959530000000  0.5335090000000  0.4919540000000 1.0
C      1  0.5434250000000  0.5306990000000  0.5947640000000 1.0
C      1  0.5573920000000  0.5361890000000  0.4110430000000 1.0
C      1  0.5731340000000  0.4163580000000  0.5093720000000 1.0
C      1  0.4736180000000  0.4213630000000  0.4352880000000 1.0
C      1  0.4548420000000  0.4213580000000  0.5682940000000 1.0
C      1  0.3983930000000  0.5138070000000  0.5497980000000 1.0
C      1  0.5799590000000  0.5295970000000  0.5652370000000 1.0
C      1  0.5086370000000  0.5350460000000  0.3922840000000 1.0
C      1  0.5418270000000  0.4939180000000  0.5331280000000 1.0
C      1  0.5081650000000  0.4941870000000  0.4510400000000 1.0
C      1  0.4574250000000  0.4866410000000  0.5180170000000 1.0
C      1  0.5067550000000  0.4600900000000  0.4506590000000 1.0
C      1  0.4554090000000  0.4528910000000  0.5218220000000 1.0
C      1  0.5450590000000  0.4608500000000  0.5256660000000 1.0
C      1  0.4140380000000  0.5389300000000  0.4746350000000 1.0
C      1  0.5233870000000  0.5438490000000  0.5817870000000 1.0
C      1  0.5688140000000  0.5392870000000  0.4337980000000 1.0
C      1  0.4137850000000  0.4407450000000  0.4510240000000 1.0
C      1  0.4982710000000  0.4432620000000  0.5877420000000 1.0
C      1  0.5863860000000  0.4383980000000  0.4454950000000 1.0
C      1  0.5683380000000  0.4805040000000  0.4663370000000 1.0
C      1  0.4375350000000  0.4838130000000  0.4583690000000 1.0
C      1  0.4944700000000  0.4815430000000  0.5770140000000 1.0
C      1  0.4872050000000  0.5045680000000  0.4266840000000 1.0
C      1  0.4465320000000  0.4986820000000  0.5452920000000 1.0
C      1  0.5720820000000  0.5067590000000  0.5257970000000 1.0
C      1  0.5458490000000  0.5773610000000  0.5469400000000 1.0
C      1  0.5187950000000  0.5709080000000  0.4349490000000 1.0
C      1  0.4247020000000  0.5714220000000  0.5168790000000 1.0
C      1  0.5412530000000  0.5369440000000  0.5024990000000 1.0
C      1  0.4913260000000  0.5410210000000  0.4660800000000 1.0
C      1  0.4654950000000  0.5354150000000  0.5304670000000 1.0
C      1  0.5532420000000  0.4072110000000  0.4557830000000 1.0
C      1  0.4433040000000  0.4114960000000  0.4729940000000 1.0
C      1  0.5047520000000  0.4052600000000  0.5642180000000 1.0
C      1  0.5127330000000  0.5111960000000  0.5383500000000 1.0
C      1  0.5296120000000  0.5091680000000  0.4727680000000 1.0
C      1  0.4602550000000  0.5090990000000  0.4926130000000 1.0
C      1  0.4696460000000  0.4997540000000  0.5648210000000 1.0
C      1  0.5709340000000  0.4936820000000  0.4965500000000 1.0
C      1  0.4604880000000  0.4999020000000  0.4418980000000 1.0
C      1  0.5032780000000  0.4156120000000  0.4350960000000 1.0
C      1  0.4410230000000  0.4209960000000  0.5412030000000 1.0
C      1  0.5558940000000  0.4229310000000  0.5326090000000 1.0
C      1  0.4165770000000  0.4914340000000  0.5578780000000 1.0
C      1  0.5955890000000  0.4886260000000  0.5363990000000 1.0
C      1  0.4883080000000  0.4864640000000  0.4012530000000 1.0
C      1  0.4815990000000  0.5306690000000  0.5589790000000 1.0
C      1  0.5662880000000  0.5238330000000  0.4864170000000 1.0
C      1  0.4607960000000  0.5313590000000  0.4546380000000 1.0
C      1  0.5295720000000  0.4454950000000  0.5523530000000 1.0
C      1  0.5381630000000  0.4512200000000  0.4410670000000 1.0
C      1  0.4331070000000  0.4520740000000  0.4961500000000 1.0
C      1  0.5318050000000  0.4971570000000  0.4261270000000 1.0
C      1  0.4097670000000  0.4956760000000  0.5028330000000 1.0
C      1  0.5489530000000  0.4918970000000  0.5663220000000 1.0
C      1  0.4413160000000  0.5494440000000  0.5624230000000 1.0
C      1  0.5873760000000  0.5553060000000  0.5180500000000 1.0
C      1  0.4727230000000  0.5538560000000  0.4238180000000 1.0
C      1  0.5121790000000  0.5429370000000  0.5505540000000 1.0
C      1  0.5477640000000  0.5350230000000  0.4601590000000 1.0
C      1  0.4456300000000  0.5386250000000  0.4842030000000 1.0
C      1  0.4915950000000  0.3980990000000  0.4833790000000 1.0
C      1  0.4875950000000  0.3991630000000  0.5169440000000 1.0
C      1  0.5184590000000  0.4021170000000  0.5028350000000 1.0
C      1  0.4028010000000  0.5203230000000  0.5192630000000 1.0
C      1  0.5617620000000  0.5156140000000  0.5797770000000 1.0
C      1  0.5304260000000  0.5240740000000  0.4124990000000 1.0
C      1  0.4577310000000  0.4673810000000  0.5705030000000 1.0
C      1  0.5832940000000  0.4615810000000  0.4981490000000 1.0
C      1  0.4593110000000  0.4668350000000  0.4296300000000 1.0
END
