TITL C-2622962-9663-743 0.0695957539210842 125000 -56.4196262558126 0 0 12 (C2) n - 1
REM
REM in /nfs/bkarasulu/CARBON/AIRSS/Generating-Clusters/AIREBO/with-SteepDescent/Higher-Symm/SD-CG/HFTN-CG
REM
REM
REM
REM
REM
REM ./C.cell (b20cbc046b6831c77cfcea5457e17084)
REM
REM compiler GCC version 9.2.1 20190827 (Red Hat 9.2.1-1)
REM options -cpp -mtune=generic -march=x86-64 -g -O0 -fpre-include=/usr/include/finclude/math-vector-fortran.h
REM seed -1708745845 1746528037 -1443124127 -1824249418 -1502500058 -725640488 764855305 1170104815 308838684 509791335 1983423014 1691135155 606598180 -1499751100 1289273500 -1990578434 -114289467 2044839791 -484332717 -344701768 -1155182591 -493705569 1137107092 -1777993983 -748758429 -1992272505 -458846387 -969077781 -1732444725 -986723509 -1141429492 1435228354 1808680392
REM
CELL 1.54180   50.00000   50.00000   50.00000   90.00000   90.00000   90.00000
LATT -1
SFAC C  
C      1  0.4762770000000  0.5111020000000  0.5160980000000 1.0
C      1  0.5003800000000  0.5350190000000  0.5142850000000 1.0
C      1  0.5245090000000  0.4938850000000  0.5242760000000 1.0
C      1  0.5100510000000  0.4686840000000  0.5162230000000 1.0
C      1  0.4798300000000  0.4774760000000  0.5197690000000 1.0
C      1  0.4699330000000  0.4817200000000  0.4894270000000 1.0
C      1  0.4995450000000  0.4710590000000  0.4858820000000 1.0
C      1  0.5221930000000  0.4961690000000  0.4895370000000 1.0
C      1  0.5167610000000  0.5296890000000  0.4913370000000 1.0
C      1  0.4730560000000  0.5106020000000  0.4813600000000 1.0
C      1  0.5055570000000  0.5125160000000  0.5350310000000 1.0
C      1  0.4993380000000  0.5145230000000  0.4706000000000 1.0
END
