TITL C-2622956-4641-428 0.000296021006960637 125000 -154.131409483203 0 0 30 (C1) n - 1
REM
REM in /nfs/bkarasulu/CARBON/AIRSS/Generating-Clusters/AIREBO/with-SteepDescent/Higher-Symm/SD-CG/HFTN-CG
REM
REM
REM
REM
REM
REM ./C.cell (b20cbc046b6831c77cfcea5457e17084)
REM
REM compiler GCC version 9.2.1 20190827 (Red Hat 9.2.1-1)
REM options -cpp -mtune=generic -march=x86-64 -g -O0 -fpre-include=/usr/include/finclude/math-vector-fortran.h
REM seed 545753633 1370541824 -781980807 1776256766 1470309523 -1908438315 1314361137 -1600814629 -1566780139 954042770 899962072 -1713937815 1579982223 -11348377 1112879508 1279011810 -1574713187 -226198877 855803015 649772587 -1578398581 465871939 -1373700691 1764400174 -494793504 399784378 -696729072 -1518532220 1743226770 1784097303 1222605769 -229607639 -559509917
REM
CELL 1.54180   50.00000   50.00000   50.00000   90.00000   90.00000   90.00000
LATT -1
SFAC C  
C      1  0.4933810000000  0.5309800000000  0.5106000000000 1.0
C      1  0.4807840000000  0.5026260000000  0.5514360000000 1.0
C      1  0.5530490000000  0.5308880000000  0.4751410000000 1.0
C      1  0.5279230000000  0.4883830000000  0.4979560000000 1.0
C      1  0.4652720000000  0.4805980000000  0.5063330000000 1.0
C      1  0.5260640000000  0.5163250000000  0.4792110000000 1.0
C      1  0.4436250000000  0.5140060000000  0.5079550000000 1.0
C      1  0.5103450000000  0.4439380000000  0.4726490000000 1.0
C      1  0.4816930000000  0.4677590000000  0.4858950000000 1.0
C      1  0.5479050000000  0.5021600000000  0.4351830000000 1.0
C      1  0.5109920000000  0.4640860000000  0.5000760000000 1.0
C      1  0.4271190000000  0.4931000000000  0.5137960000000 1.0
C      1  0.5200380000000  0.5112940000000  0.5183420000000 1.0
C      1  0.5027060000000  0.4550180000000  0.5282290000000 1.0
C      1  0.5071880000000  0.5495820000000  0.5333780000000 1.0
C      1  0.4671160000000  0.5299590000000  0.4902420000000 1.0
C      1  0.4572130000000  0.5452530000000  0.4614670000000 1.0
C      1  0.4396220000000  0.4689050000000  0.5253480000000 1.0
C      1  0.5080780000000  0.5175610000000  0.4568910000000 1.0
C      1  0.4717850000000  0.4668980000000  0.5362830000000 1.0
C      1  0.5470930000000  0.5208450000000  0.5370700000000 1.0
C      1  0.5136880000000  0.5037470000000  0.5508720000000 1.0
C      1  0.4724570000000  0.5090700000000  0.5234490000000 1.0
C      1  0.4989210000000  0.4741170000000  0.5554580000000 1.0
C      1  0.5206110000000  0.5078810000000  0.4332630000000 1.0
C      1  0.4838260000000  0.5287300000000  0.4610700000000 1.0
C      1  0.5550240000000  0.4840470000000  0.4805970000000 1.0
C      1  0.4834950000000  0.4527780000000  0.4603300000000 1.0
C      1  0.5233060000000  0.5349570000000  0.5503590000000 1.0
C      1  0.5596800000000  0.5045110000000  0.4611200000000 1.0
END
