TITL C-2622966-9038-506 0.00223443942462924 125000 -560.222913291717 0 0 100 (C1) n - 1
REM
REM in /nfs/bkarasulu/CARBON/AIRSS/Generating-Clusters/AIREBO/with-SteepDescent/Higher-Symm/SD-CG/HFTN-CG
REM
REM
REM
REM
REM
REM ./C.cell (b20cbc046b6831c77cfcea5457e17084)
REM
REM compiler GCC version 9.2.1 20190827 (Red Hat 9.2.1-1)
REM options -cpp -mtune=generic -march=x86-64 -g -O0 -fpre-include=/usr/include/finclude/math-vector-fortran.h
REM seed 1621925926 -1103703237 1040794207 810473883 -521083709 -719008913 1537569819 373324197 1765933893 -264715502 -1553278409 -1548666308 -326969309 -2026756415 -1396708658 -1575754485 -847864961 474692491 1113388147 -2131192513 -1456646256 1977074533 -1007943564 111403572 1202197187 2078262586 2033789049 -2105386303 1879845578 550196411 1637635158 764123561 909654997
REM
CELL 1.54180   50.00000   50.00000   50.00000   90.00000   90.00000   90.00000
LATT -1
SFAC C  
C      1  0.4347220000000  0.4394320000000  0.5383190000000 1.0
C      1  0.4320080000000  0.4670840000000  0.4440430000000 1.0
C      1  0.4477890000000  0.5515100000000  0.4663190000000 1.0
C      1  0.4356930000000  0.5356890000000  0.5572710000000 1.0
C      1  0.4377710000000  0.4420160000000  0.4629600000000 1.0
C      1  0.4335610000000  0.4567230000000  0.5655770000000 1.0
C      1  0.4372540000000  0.5626220000000  0.5367500000000 1.0
C      1  0.4488880000000  0.5340280000000  0.4367790000000 1.0
C      1  0.5192630000000  0.5967460000000  0.5363710000000 1.0
C      1  0.5057510000000  0.4564740000000  0.5836650000000 1.0
C      1  0.5075810000000  0.4201740000000  0.4591390000000 1.0
C      1  0.5148770000000  0.5304220000000  0.4018070000000 1.0
C      1  0.5043960000000  0.5949120000000  0.4671400000000 1.0
C      1  0.5031200000000  0.4561490000000  0.4127810000000 1.0
C      1  0.5026510000000  0.4116890000000  0.5426280000000 1.0
C      1  0.5015020000000  0.5426390000000  0.5877700000000 1.0
C      1  0.4393220000000  0.4618230000000  0.5131390000000 1.0
C      1  0.4205600000000  0.4890350000000  0.4611210000000 1.0
C      1  0.4407310000000  0.5287690000000  0.4883620000000 1.0
C      1  0.4395730000000  0.5093580000000  0.5384390000000 1.0
C      1  0.4302540000000  0.4677120000000  0.4837850000000 1.0
C      1  0.4339780000000  0.4791140000000  0.5414850000000 1.0
C      1  0.4317850000000  0.5349930000000  0.5177680000000 1.0
C      1  0.4357180000000  0.5140690000000  0.4599440000000 1.0
C      1  0.4924790000000  0.5862030000000  0.5262550000000 1.0
C      1  0.4874230000000  0.4836200000000  0.5888380000000 1.0
C      1  0.4955550000000  0.4182430000000  0.4872060000000 1.0
C      1  0.4899330000000  0.5155940000000  0.4133680000000 1.0
C      1  0.4944170000000  0.5846080000000  0.4950020000000 1.0
C      1  0.4964060000000  0.4863130000000  0.4145580000000 1.0
C      1  0.4861190000000  0.4096400000000  0.5141780000000 1.0
C      1  0.4952690000000  0.5121360000000  0.5872210000000 1.0
C      1  0.5324340000000  0.4599860000000  0.5774800000000 1.0
C      1  0.5341810000000  0.4252410000000  0.4588400000000 1.0
C      1  0.5370090000000  0.5327910000000  0.4136450000000 1.0
C      1  0.5401240000000  0.5828870000000  0.5338530000000 1.0
C      1  0.5303380000000  0.4525330000000  0.4185100000000 1.0
C      1  0.5287510000000  0.4181900000000  0.5412970000000 1.0
C      1  0.5275780000000  0.5481620000000  0.5792920000000 1.0
C      1  0.5307500000000  0.5870930000000  0.4612260000000 1.0
C      1  0.4635920000000  0.4659280000000  0.4818280000000 1.0
C      1  0.4690620000000  0.5135630000000  0.4646000000000 1.0
C      1  0.4656720000000  0.5324650000000  0.5190110000000 1.0
C      1  0.4668690000000  0.4808010000000  0.5348980000000 1.0
C      1  0.4729040000000  0.4628170000000  0.5120020000000 1.0
C      1  0.4735220000000  0.5119390000000  0.5392170000000 1.0
C      1  0.4746030000000  0.5324450000000  0.4888550000000 1.0
C      1  0.4790210000000  0.4856030000000  0.4656350000000 1.0
C      1  0.4537370000000  0.4759390000000  0.4276220000000 1.0
C      1  0.4572470000000  0.5747560000000  0.4846050000000 1.0
C      1  0.4535950000000  0.5132700000000  0.5755430000000 1.0
C      1  0.4571910000000  0.4263120000000  0.5164070000000 1.0
C      1  0.4571140000000  0.4793640000000  0.5749970000000 1.0
C      1  0.4611630000000  0.5767350000000  0.5169800000000 1.0
C      1  0.4585880000000  0.5051900000000  0.4214530000000 1.0
C      1  0.4561770000000  0.4252290000000  0.4822280000000 1.0
C      1  0.4689220000000  0.5612900000000  0.5462760000000 1.0
C      1  0.4763850000000  0.4523760000000  0.5670130000000 1.0
C      1  0.4764840000000  0.4344130000000  0.4564860000000 1.0
C      1  0.4756250000000  0.5546270000000  0.4379650000000 1.0
C      1  0.4796090000000  0.5747490000000  0.4595870000000 1.0
C      1  0.4777080000000  0.4572760000000  0.4342460000000 1.0
C      1  0.4750190000000  0.4315730000000  0.5452530000000 1.0
C      1  0.4739810000000  0.5396750000000  0.5679920000000 1.0
C      1  0.5200300000000  0.4603020000000  0.5174060000000 1.0
C      1  0.5285920000000  0.4877870000000  0.4589280000000 1.0
C      1  0.5223000000000  0.5424500000000  0.4803880000000 1.0
C      1  0.5241440000000  0.5178800000000  0.5367560000000 1.0
C      1  0.5206670000000  0.4666680000000  0.4843820000000 1.0
C      1  0.5175470000000  0.4845310000000  0.5386420000000 1.0
C      1  0.5190770000000  0.5398200000000  0.5141650000000 1.0
C      1  0.5194850000000  0.5206640000000  0.4584500000000 1.0
C      1  0.4936070000000  0.4424670000000  0.5189490000000 1.0
C      1  0.5013220000000  0.4780790000000  0.4461750000000 1.0
C      1  0.4933400000000  0.5542440000000  0.4829810000000 1.0
C      1  0.4982640000000  0.5194980000000  0.5553650000000 1.0
C      1  0.4941060000000  0.4514330000000  0.4800650000000 1.0
C      1  0.4917980000000  0.4801070000000  0.5548360000000 1.0
C      1  0.4921780000000  0.5523790000000  0.5228190000000 1.0
C      1  0.4897910000000  0.5259230000000  0.4439880000000 1.0
C      1  0.5822680000000  0.4838210000000  0.4650910000000 1.0
C      1  0.5831280000000  0.5356110000000  0.4802340000000 1.0
C      1  0.5799250000000  0.5177870000000  0.5326100000000 1.0
C      1  0.5814430000000  0.4657000000000  0.5174310000000 1.0
C      1  0.5707830000000  0.4856150000000  0.5352740000000 1.0
C      1  0.5728600000000  0.5370710000000  0.5126130000000 1.0
C      1  0.5726470000000  0.5159330000000  0.4622670000000 1.0
C      1  0.5729120000000  0.4650890000000  0.4847220000000 1.0
C      1  0.5400150000000  0.5306770000000  0.5633960000000 1.0
C      1  0.5394800000000  0.4366550000000  0.5248690000000 1.0
C      1  0.5426780000000  0.4714480000000  0.4326230000000 1.0
C      1  0.5413450000000  0.5656050000000  0.4736880000000 1.0
C      1  0.5464830000000  0.5213810000000  0.4410160000000 1.0
C      1  0.5456110000000  0.4472930000000  0.4779070000000 1.0
C      1  0.5441170000000  0.4796200000000  0.5555290000000 1.0
C      1  0.5461710000000  0.5576250000000  0.5172550000000 1.0
C      1  0.5607130000000  0.5085190000000  0.5583530000000 1.0
C      1  0.5630770000000  0.4404200000000  0.5061680000000 1.0
C      1  0.5630970000000  0.4930570000000  0.4394290000000 1.0
C      1  0.5665420000000  0.5620840000000  0.4904000000000 1.0
END
