TITL C-2622955-8511-45 -0.000160759911897314 125000 -515.735060688624 0 0 97 (C1) n - 1
REM
REM in /nfs/bkarasulu/CARBON/AIRSS/Generating-Clusters/AIREBO/with-SteepDescent/Higher-Symm/SD-CG/HFTN-CG
REM
REM
REM
REM
REM
REM ./C.cell (b20cbc046b6831c77cfcea5457e17084)
REM
REM compiler GCC version 9.2.1 20190827 (Red Hat 9.2.1-1)
REM options -cpp -mtune=generic -march=x86-64 -g -O0 -fpre-include=/usr/include/finclude/math-vector-fortran.h
REM seed 611953308 -2062006995 391387883 -2097899854 1232834394 516149578 351320919 -1549759059 1560683228 -1093873612 -1157380053 1284477035 -1730543929 -532523562 1421942773 1644720857 -755778000 -347492050 1830729812 -11653114 -2004785552 -656952444 846619847 1132321554 -77819093 -1295383361 1242429953 268117415 679958752 -1935235291 1372778586 -1793867579 -529961459
REM
CELL 1.54180   50.00000   50.00000   50.00000   90.00000   90.00000   90.00000
LATT -1
SFAC C  
C      1  0.4949770000000  0.5206020000000  0.5469660000000 1.0
C      1  0.5244970000000  0.5073670000000  0.5404690000000 1.0
C      1  0.5154340000000  0.4784440000000  0.5458810000000 1.0
C      1  0.4782500000000  0.4914990000000  0.5405350000000 1.0
C      1  0.5014910000000  0.4817010000000  0.4554280000000 1.0
C      1  0.5252850000000  0.4989250000000  0.4409540000000 1.0
C      1  0.5038040000000  0.5206720000000  0.4477150000000 1.0
C      1  0.4804820000000  0.5023010000000  0.4401010000000 1.0
C      1  0.5692440000000  0.4369720000000  0.5136870000000 1.0
C      1  0.4364190000000  0.4254040000000  0.5122590000000 1.0
C      1  0.4194720000000  0.5544880000000  0.5085900000000 1.0
C      1  0.5614450000000  0.5747140000000  0.4997200000000 1.0
C      1  0.5806200000000  0.5562120000000  0.4923320000000 1.0
C      1  0.4378930000000  0.5687740000000  0.4940360000000 1.0
C      1  0.4292580000000  0.4383550000000  0.4922960000000 1.0
C      1  0.5544410000000  0.4227110000000  0.4957890000000 1.0
C      1  0.5548190000000  0.4733000000000  0.5059880000000 1.0
C      1  0.4732250000000  0.4361580000000  0.5011950000000 1.0
C      1  0.4575280000000  0.5169260000000  0.4830630000000 1.0
C      1  0.5140820000000  0.5399660000000  0.4807590000000 1.0
C      1  0.5528610000000  0.5229390000000  0.5172150000000 1.0
C      1  0.4857480000000  0.5547380000000  0.5047770000000 1.0
C      1  0.4542410000000  0.4812530000000  0.5007430000000 1.0
C      1  0.5059300000000  0.4519150000000  0.5174590000000 1.0
C      1  0.4739860000000  0.4995720000000  0.5733280000000 1.0
C      1  0.5020310000000  0.5170330000000  0.5800440000000 1.0
C      1  0.5256360000000  0.4941080000000  0.5839950000000 1.0
C      1  0.4986030000000  0.4778210000000  0.5754200000000 1.0
C      1  0.4753960000000  0.4990260000000  0.4083580000000 1.0
C      1  0.5017070000000  0.4785790000000  0.4057930000000 1.0
C      1  0.5137360000000  0.5094190000000  0.4107390000000 1.0
C      1  0.4871810000000  0.5306480000000  0.4127300000000 1.0
C      1  0.4431340000000  0.5348590000000  0.4452630000000 1.0
C      1  0.5426250000000  0.5538980000000  0.4403240000000 1.0
C      1  0.5555650000000  0.4742100000000  0.4494170000000 1.0
C      1  0.4694210000000  0.4491290000000  0.4436520000000 1.0
C      1  0.4494580000000  0.4654630000000  0.5556020000000 1.0
C      1  0.5371490000000  0.4444790000000  0.5611730000000 1.0
C      1  0.5474780000000  0.5488380000000  0.5596260000000 1.0
C      1  0.4709310000000  0.5611890000000  0.5502720000000 1.0
C      1  0.4660290000000  0.5654450000000  0.4791680000000 1.0
C      1  0.5877780000000  0.5285980000000  0.4919610000000 1.0
C      1  0.5274820000000  0.4165970000000  0.4898830000000 1.0
C      1  0.4361660000000  0.4647110000000  0.4771660000000 1.0
C      1  0.4634370000000  0.4229920000000  0.5306270000000 1.0
C      1  0.5710330000000  0.4645710000000  0.5320940000000 1.0
C      1  0.5338630000000  0.5797460000000  0.5040610000000 1.0
C      1  0.4160730000000  0.5263880000000  0.5109450000000 1.0
C      1  0.4709540000000  0.4421860000000  0.5528450000000 1.0
C      1  0.4548910000000  0.5463090000000  0.5665500000000 1.0
C      1  0.5211520000000  0.5562960000000  0.5625220000000 1.0
C      1  0.5544120000000  0.4658160000000  0.5572320000000 1.0
C      1  0.4626140000000  0.5537810000000  0.4497110000000 1.0
C      1  0.4497410000000  0.4690270000000  0.4502370000000 1.0
C      1  0.5344440000000  0.4596070000000  0.4431640000000 1.0
C      1  0.5539480000000  0.5296090000000  0.4340960000000 1.0
C      1  0.4744660000000  0.4645490000000  0.5200780000000 1.0
C      1  0.4540870000000  0.5115820000000  0.5159510000000 1.0
C      1  0.5208770000000  0.5318330000000  0.5189220000000 1.0
C      1  0.5254280000000  0.4782150000000  0.5133760000000 1.0
C      1  0.4864670000000  0.5246600000000  0.4915400000000 1.0
C      1  0.4826710000000  0.4859530000000  0.4826690000000 1.0
C      1  0.4955300000000  0.4558700000000  0.4853240000000 1.0
C      1  0.5374160000000  0.5182350000000  0.4872690000000 1.0
C      1  0.4861280000000  0.5859260000000  0.5183190000000 1.0
C      1  0.5831910000000  0.5145970000000  0.5172540000000 1.0
C      1  0.5105140000000  0.4204010000000  0.5123860000000 1.0
C      1  0.4245260000000  0.4790440000000  0.5171430000000 1.0
C      1  0.4823370000000  0.4199210000000  0.4739460000000 1.0
C      1  0.5702690000000  0.4821980000000  0.4854480000000 1.0
C      1  0.5165380000000  0.5714170000000  0.4831300000000 1.0
C      1  0.4258480000000  0.5128320000000  0.4876800000000 1.0
C      1  0.4157960000000  0.4890910000000  0.4794700000000 1.0
C      1  0.4927980000000  0.5837850000000  0.4782410000000 1.0
C      1  0.5822930000000  0.5079600000000  0.4729170000000 1.0
C      1  0.5110470000000  0.4181760000000  0.4666880000000 1.0
C      1  0.4157050000000  0.5045660000000  0.5302950000000 1.0
C      1  0.4894600000000  0.4059150000000  0.5217180000000 1.0
C      1  0.5893970000000  0.4907200000000  0.5280290000000 1.0
C      1  0.5160600000000  0.5819150000000  0.5263770000000 1.0
C      1  0.4906700000000  0.4477740000000  0.5824340000000 1.0
C      1  0.4498640000000  0.5202350000000  0.5703170000000 1.0
C      1  0.5089080000000  0.5465070000000  0.5850500000000 1.0
C      1  0.5486480000000  0.4912930000000  0.5678480000000 1.0
C      1  0.4850320000000  0.5520460000000  0.4326340000000 1.0
C      1  0.4450370000000  0.4915370000000  0.4217110000000 1.0
C      1  0.5113550000000  0.4578500000000  0.4213960000000 1.0
C      1  0.5446840000000  0.5186330000000  0.4105290000000 1.0
C      1  0.4514190000000  0.5028720000000  0.4531790000000 1.0
C      1  0.5130180000000  0.5513210000000  0.4489410000000 1.0
C      1  0.5527430000000  0.5066680000000  0.4591620000000 1.0
C      1  0.5022020000000  0.4478250000000  0.4525870000000 1.0
C      1  0.4452260000000  0.4977330000000  0.5457250000000 1.0
C      1  0.5046470000000  0.4466750000000  0.5514220000000 1.0
C      1  0.5532250000000  0.5188670000000  0.5509050000000 1.0
C      1  0.5005480000000  0.5531060000000  0.5356500000000 1.0
C      1  0.5102850000000  0.5006930000000  0.4959680000000 1.0
END
