TITL C-2622967-6265-36 0.000767080282086972 125000 -705.94026063319 0 0 134 (C1) n - 1
REM
REM in /nfs/bkarasulu/CARBON/AIRSS/Generating-Clusters/AIREBO/with-SteepDescent/Higher-Symm/SD-CG/HFTN-CG
REM
REM
REM
REM
REM
REM ./C.cell (b20cbc046b6831c77cfcea5457e17084)
REM
REM compiler GCC version 9.2.1 20190827 (Red Hat 9.2.1-1)
REM options -cpp -mtune=generic -march=x86-64 -g -O0 -fpre-include=/usr/include/finclude/math-vector-fortran.h
REM seed -1233959202 -980111072 -1444717392 -1955785190 -1464477025 -1983131902 318723594 -447231846 1966889356 967620803 -367697263 1346152314 246965438 754468912 -883232053 1168962347 1246210962 -169751878 799319058 105880412 -1823226931 831143237 -903488156 -36997990 -306252810 -581630743 1270689412 -44486690 -636160968 911998389 1890484101 -187632264 45968486
REM
CELL 1.54180   50.00000   50.00000   50.00000   90.00000   90.00000   90.00000
LATT -1
SFAC C  
C      1  0.5102560000000  0.5857110000000  0.4441950000000 1.0
C      1  0.4879370000000  0.5845640000000  0.5651090000000 1.0
C      1  0.5086720000000  0.4091440000000  0.4358850000000 1.0
C      1  0.4830940000000  0.4112570000000  0.5539850000000 1.0
C      1  0.5473810000000  0.4777700000000  0.5114230000000 1.0
C      1  0.4378050000000  0.4637720000000  0.4830290000000 1.0
C      1  0.5544710000000  0.5322740000000  0.5075550000000 1.0
C      1  0.4446390000000  0.5262460000000  0.5029940000000 1.0
C      1  0.4557300000000  0.5523440000000  0.4886730000000 1.0
C      1  0.5373100000000  0.5568800000000  0.5071750000000 1.0
C      1  0.4602490000000  0.4408380000000  0.4942970000000 1.0
C      1  0.5405260000000  0.4452370000000  0.5065130000000 1.0
C      1  0.4958190000000  0.5659580000000  0.4217980000000 1.0
C      1  0.5040750000000  0.5626330000000  0.5818750000000 1.0
C      1  0.4792320000000  0.4356890000000  0.4031780000000 1.0
C      1  0.5119330000000  0.4470610000000  0.5776720000000 1.0
C      1  0.5608720000000  0.5347810000000  0.5725910000000 1.0
C      1  0.4482080000000  0.5315340000000  0.4144610000000 1.0
C      1  0.5612400000000  0.4819830000000  0.5637960000000 1.0
C      1  0.4365000000000  0.4765790000000  0.4288470000000 1.0
C      1  0.5732060000000  0.5168570000000  0.4236320000000 1.0
C      1  0.4395540000000  0.5179890000000  0.5729470000000 1.0
C      1  0.5657760000000  0.4867440000000  0.4375630000000 1.0
C      1  0.4311350000000  0.4865760000000  0.5736450000000 1.0
C      1  0.4840010000000  0.4858870000000  0.4803900000000 1.0
C      1  0.5085450000000  0.4724830000000  0.5190090000000 1.0
C      1  0.4899640000000  0.5326830000000  0.4823040000000 1.0
C      1  0.5116610000000  0.5057570000000  0.5253000000000 1.0
C      1  0.5461140000000  0.5741220000000  0.5473180000000 1.0
C      1  0.4510220000000  0.5775580000000  0.4552550000000 1.0
C      1  0.5442240000000  0.4181210000000  0.5356180000000 1.0
C      1  0.4577760000000  0.4189060000000  0.4610750000000 1.0
C      1  0.4767920000000  0.5533200000000  0.5637730000000 1.0
C      1  0.5263870000000  0.5585170000000  0.4334160000000 1.0
C      1  0.4823440000000  0.4400850000000  0.5671400000000 1.0
C      1  0.5085020000000  0.4351560000000  0.4184680000000 1.0
C      1  0.4669090000000  0.5759020000000  0.5323700000000 1.0
C      1  0.5254770000000  0.5723590000000  0.4793110000000 1.0
C      1  0.4670130000000  0.4261590000000  0.5205960000000 1.0
C      1  0.5292180000000  0.4330870000000  0.4768300000000 1.0
C      1  0.5262380000000  0.4051290000000  0.5196220000000 1.0
C      1  0.4748930000000  0.4017090000000  0.4750960000000 1.0
C      1  0.5293760000000  0.5928440000000  0.5319100000000 1.0
C      1  0.4652410000000  0.5891080000000  0.4761090000000 1.0
C      1  0.5095050000000  0.5153130000000  0.4156910000000 1.0
C      1  0.4938490000000  0.5204310000000  0.5784120000000 1.0
C      1  0.5024550000000  0.4666410000000  0.4278350000000 1.0
C      1  0.4952530000000  0.4763770000000  0.5774460000000 1.0
C      1  0.4636810000000  0.4880680000000  0.5834650000000 1.0
C      1  0.5335930000000  0.4806110000000  0.4280090000000 1.0
C      1  0.4663040000000  0.5211090000000  0.5915660000000 1.0
C      1  0.5408810000000  0.5113130000000  0.4182350000000 1.0
C      1  0.5318070000000  0.4690160000000  0.5404840000000 1.0
C      1  0.4633720000000  0.4720490000000  0.4621500000000 1.0
C      1  0.5293870000000  0.5242870000000  0.5451210000000 1.0
C      1  0.4715500000000  0.5309350000000  0.4559330000000 1.0
C      1  0.5770810000000  0.5399980000000  0.4881740000000 1.0
C      1  0.4215390000000  0.5427610000000  0.5220240000000 1.0
C      1  0.5737080000000  0.4683180000000  0.4920230000000 1.0
C      1  0.4229180000000  0.4642480000000  0.5138360000000 1.0
C      1  0.5330300000000  0.4043400000000  0.4932610000000 1.0
C      1  0.4688860000000  0.3980300000000  0.5015890000000 1.0
C      1  0.5375660000000  0.5913180000000  0.5036500000000 1.0
C      1  0.4560320000000  0.5825330000000  0.5043110000000 1.0
C      1  0.4903350000000  0.5166610000000  0.5482320000000 1.0
C      1  0.5142860000000  0.5107370000000  0.4480310000000 1.0
C      1  0.4867810000000  0.4860570000000  0.5495800000000 1.0
C      1  0.5011840000000  0.4865790000000  0.4525390000000 1.0
C      1  0.5320220000000  0.5499960000000  0.5757860000000 1.0
C      1  0.4782320000000  0.5398010000000  0.4117770000000 1.0
C      1  0.5458710000000  0.4548840000000  0.5788590000000 1.0
C      1  0.4578040000000  0.4475580000000  0.4206000000000 1.0
C      1  0.4342750000000  0.4472290000000  0.5676710000000 1.0
C      1  0.5579020000000  0.4398280000000  0.4405470000000 1.0
C      1  0.4417570000000  0.5691060000000  0.5542190000000 1.0
C      1  0.5746180000000  0.5598350000000  0.4397970000000 1.0
C      1  0.5067750000000  0.4401010000000  0.5087840000000 1.0
C      1  0.4886740000000  0.4387530000000  0.4800320000000 1.0
C      1  0.5060620000000  0.5643710000000  0.5164410000000 1.0
C      1  0.4881480000000  0.5615330000000  0.4935910000000 1.0
C      1  0.4973850000000  0.4119760000000  0.5252640000000 1.0
C      1  0.5046600000000  0.4119670000000  0.4664920000000 1.0
C      1  0.4975500000000  0.5901010000000  0.5365450000000 1.0
C      1  0.4962940000000  0.5855340000000  0.4723210000000 1.0
C      1  0.5333750000000  0.4381790000000  0.5531130000000 1.0
C      1  0.4739260000000  0.4443460000000  0.4498840000000 1.0
C      1  0.5182190000000  0.5558510000000  0.5452650000000 1.0
C      1  0.4681110000000  0.5582970000000  0.4384510000000 1.0
C      1  0.5866420000000  0.4829770000000  0.4641660000000 1.0
C      1  0.4177840000000  0.4846740000000  0.5410530000000 1.0
C      1  0.5894850000000  0.5139530000000  0.4750140000000 1.0
C      1  0.4142200000000  0.5113650000000  0.5240970000000 1.0
C      1  0.5358740000000  0.5146360000000  0.6108490000000 1.0
C      1  0.4902330000000  0.5062370000000  0.3917860000000 1.0
C      1  0.5372430000000  0.4880410000000  0.6038580000000 1.0
C      1  0.4736440000000  0.4875850000000  0.3963570000000 1.0
C      1  0.4432330000000  0.5155000000000  0.5413470000000 1.0
C      1  0.5626640000000  0.5221250000000  0.4556140000000 1.0
C      1  0.4491000000000  0.4813560000000  0.5470830000000 1.0
C      1  0.5491430000000  0.4943420000000  0.4657080000000 1.0
C      1  0.5854760000000  0.4873020000000  0.5176670000000 1.0
C      1  0.4213930000000  0.4892280000000  0.4728340000000 1.0
C      1  0.6015510000000  0.5058490000000  0.5040730000000 1.0
C      1  0.4182010000000  0.5082030000000  0.4924370000000 1.0
C      1  0.4773580000000  0.4746530000000  0.5202770000000 1.0
C      1  0.5131050000000  0.4824690000000  0.4900760000000 1.0
C      1  0.4853080000000  0.5246940000000  0.5151030000000 1.0
C      1  0.5189070000000  0.5255830000000  0.4743350000000 1.0
C      1  0.4634510000000  0.5420370000000  0.5345570000000 1.0
C      1  0.5412950000000  0.5478540000000  0.4618250000000 1.0
C      1  0.4634950000000  0.4512240000000  0.5406560000000 1.0
C      1  0.5333730000000  0.4663010000000  0.4734760000000 1.0
C      1  0.4403230000000  0.5240850000000  0.4443300000000 1.0
C      1  0.5626660000000  0.5256410000000  0.5398790000000 1.0
C      1  0.4271780000000  0.4966930000000  0.4468150000000 1.0
C      1  0.5722790000000  0.4953670000000  0.5412800000000 1.0
C      1  0.5615040000000  0.4529390000000  0.4642360000000 1.0
C      1  0.4299070000000  0.4467960000000  0.5377500000000 1.0
C      1  0.5715960000000  0.5616480000000  0.4687410000000 1.0
C      1  0.4196120000000  0.5624360000000  0.5396180000000 1.0
C      1  0.4331830000000  0.4313440000000  0.4738850000000 1.0
C      1  0.5666290000000  0.4280370000000  0.5198910000000 1.0
C      1  0.4371590000000  0.5501940000000  0.4622540000000 1.0
C      1  0.5683540000000  0.5591160000000  0.5418790000000 1.0
C      1  0.4493020000000  0.5483770000000  0.5801000000000 1.0
C      1  0.5517300000000  0.5432190000000  0.4235060000000 1.0
C      1  0.4576650000000  0.4554220000000  0.5799150000000 1.0
C      1  0.5377990000000  0.4488930000000  0.4236130000000 1.0
C      1  0.5256910000000  0.5166970000000  0.5784720000000 1.0
C      1  0.4788710000000  0.5109640000000  0.4298170000000 1.0
C      1  0.5281120000000  0.4829360000000  0.5715000000000 1.0
C      1  0.4704220000000  0.4780390000000  0.4288370000000 1.0
C      1  0.4664770000000  0.5001750000000  0.5037730000000 1.0
C      1  0.5374040000000  0.5057730000000  0.4948840000000 1.0
END
