TITL C-2622957-9142-188 -0.00499427033320352 125000 -897.642468995789 0 0 163 (C1) n - 1
REM
REM in /nfs/bkarasulu/CARBON/AIRSS/Generating-Clusters/AIREBO/with-SteepDescent/Higher-Symm/SD-CG/HFTN-CG
REM
REM
REM
REM
REM
REM ./C.cell (b20cbc046b6831c77cfcea5457e17084)
REM
REM compiler GCC version 9.2.1 20190827 (Red Hat 9.2.1-1)
REM options -cpp -mtune=generic -march=x86-64 -g -O0 -fpre-include=/usr/include/finclude/math-vector-fortran.h
REM seed 26830791 -1501634297 -1902642560 -138234024 -813837838 1460942830 -1837387916 327761982 1011292619 -1139910508 -988636673 1335633939 -1709079106 -992342373 265381098 -1055309293 -198325117 -236761134 -618313698 -451541671 -1141891103 -264795755 -147009273 -156750365 -1679735541 2026746249 -249613663 768249207 135444586 -1187725375 427789658 589736538 -1619572779
REM
CELL 1.54180   50.00000   50.00000   50.00000   90.00000   90.00000   90.00000
LATT -1
SFAC C  
C      1  0.4767640000000  0.4719790000000  0.4941720000000 1.0
C      1  0.5310020000000  0.4790310000000  0.4704990000000 1.0
C      1  0.4776110000000  0.4964490000000  0.4709840000000 1.0
C      1  0.5230910000000  0.5079160000000  0.4754070000000 1.0
C      1  0.4809360000000  0.5252500000000  0.4848510000000 1.0
C      1  0.5237210000000  0.5318900000000  0.5169280000000 1.0
C      1  0.4803460000000  0.5201240000000  0.5244730000000 1.0
C      1  0.5269570000000  0.5046240000000  0.5357140000000 1.0
C      1  0.4774200000000  0.4864800000000  0.5249190000000 1.0
C      1  0.5208900000000  0.4811510000000  0.5155550000000 1.0
C      1  0.5166020000000  0.5629560000000  0.5814510000000 1.0
C      1  0.4828930000000  0.5070740000000  0.5994590000000 1.0
C      1  0.5199560000000  0.4340640000000  0.5894790000000 1.0
C      1  0.4788490000000  0.3940120000000  0.5363960000000 1.0
C      1  0.5192230000000  0.3994140000000  0.4769590000000 1.0
C      1  0.4801240000000  0.4298230000000  0.4147540000000 1.0
C      1  0.5110200000000  0.5032010000000  0.4071140000000 1.0
C      1  0.4631210000000  0.5619280000000  0.4120700000000 1.0
C      1  0.5053830000000  0.6000970000000  0.4490950000000 1.0
C      1  0.4850550000000  0.6011890000000  0.5217720000000 1.0
C      1  0.5228850000000  0.5560770000000  0.4601850000000 1.0
C      1  0.4905510000000  0.5729880000000  0.4944360000000 1.0
C      1  0.5134330000000  0.5705320000000  0.5431870000000 1.0
C      1  0.4860200000000  0.5326680000000  0.5690620000000 1.0
C      1  0.5089650000000  0.4802830000000  0.5775090000000 1.0
C      1  0.4887510000000  0.4422020000000  0.5487980000000 1.0
C      1  0.5149100000000  0.4264650000000  0.5058780000000 1.0
C      1  0.4860680000000  0.4369260000000  0.4599000000000 1.0
C      1  0.5118140000000  0.4725690000000  0.4326640000000 1.0
C      1  0.4869950000000  0.5264700000000  0.4290350000000 1.0
C      1  0.4467300000000  0.5098010000000  0.4660670000000 1.0
C      1  0.5549780000000  0.5197660000000  0.4754880000000 1.0
C      1  0.4514020000000  0.5344600000000  0.4970140000000 1.0
C      1  0.5550440000000  0.5242410000000  0.5152270000000 1.0
C      1  0.4480880000000  0.5129440000000  0.5303750000000 1.0
C      1  0.5532310000000  0.4960110000000  0.5512330000000 1.0
C      1  0.4466330000000  0.4743410000000  0.5202470000000 1.0
C      1  0.5488610000000  0.4647810000000  0.5052020000000 1.0
C      1  0.4470000000000  0.4723440000000  0.4797900000000 1.0
C      1  0.5632470000000  0.4811610000000  0.4691700000000 1.0
C      1  0.5007910000000  0.4104740000000  0.5466840000000 1.0
C      1  0.4928410000000  0.4036540000000  0.4936540000000 1.0
C      1  0.5060620000000  0.4257960000000  0.4347440000000 1.0
C      1  0.4887470000000  0.4871360000000  0.4035060000000 1.0
C      1  0.5092010000000  0.5334080000000  0.4042290000000 1.0
C      1  0.4795490000000  0.5899550000000  0.4454890000000 1.0
C      1  0.5121570000000  0.5983000000000  0.5014400000000 1.0
C      1  0.4889280000000  0.5752310000000  0.5662960000000 1.0
C      1  0.5073290000000  0.5272210000000  0.5949990000000 1.0
C      1  0.4973770000000  0.4531890000000  0.5901790000000 1.0
C      1  0.5875310000000  0.4300150000000  0.5073940000000 1.0
C      1  0.4169150000000  0.4378340000000  0.4617230000000 1.0
C      1  0.5946960000000  0.4679550000000  0.4317430000000 1.0
C      1  0.4090960000000  0.5203070000000  0.4322800000000 1.0
C      1  0.5904710000000  0.5464370000000  0.4458500000000 1.0
C      1  0.4116560000000  0.5695630000000  0.4959360000000 1.0
C      1  0.5714930000000  0.5563240000000  0.5314790000000 1.0
C      1  0.4151340000000  0.5277060000000  0.5661640000000 1.0
C      1  0.5894290000000  0.4866970000000  0.5733660000000 1.0
C      1  0.4132480000000  0.4430900000000  0.5284630000000 1.0
C      1  0.5727930000000  0.5687920000000  0.4813880000000 1.0
C      1  0.4303980000000  0.5601020000000  0.5407990000000 1.0
C      1  0.5767060000000  0.5384880000000  0.5665870000000 1.0
C      1  0.4278840000000  0.4761060000000  0.5685170000000 1.0
C      1  0.5691080000000  0.4459990000000  0.5497800000000 1.0
C      1  0.4270520000000  0.4264740000000  0.5022050000000 1.0
C      1  0.5682230000000  0.4388350000000  0.4613070000000 1.0
C      1  0.4285370000000  0.4785530000000  0.4309070000000 1.0
C      1  0.5743130000000  0.5154670000000  0.4265280000000 1.0
C      1  0.4267690000000  0.5603410000000  0.4579260000000 1.0
C      1  0.4570700000000  0.4342980000000  0.5563080000000 1.0
C      1  0.5449900000000  0.4163910000000  0.5123160000000 1.0
C      1  0.4543590000000  0.4250350000000  0.4552650000000 1.0
C      1  0.5422930000000  0.4654150000000  0.4193550000000 1.0
C      1  0.4549740000000  0.5228420000000  0.4180730000000 1.0
C      1  0.5453000000000  0.5604850000000  0.4377070000000 1.0
C      1  0.4601930000000  0.5852440000000  0.4931680000000 1.0
C      1  0.5415890000000  0.5852020000000  0.5512030000000 1.0
C      1  0.4543430000000  0.5332640000000  0.5783350000000 1.0
C      1  0.5400430000000  0.4853060000000  0.5872260000000 1.0
C      1  0.4768840000000  0.4212030000000  0.5166100000000 1.0
C      1  0.5238130000000  0.4242990000000  0.4637050000000 1.0
C      1  0.4813680000000  0.4612100000000  0.4226450000000 1.0
C      1  0.5271030000000  0.5024050000000  0.4351890000000 1.0
C      1  0.4770410000000  0.5560850000000  0.4424920000000 1.0
C      1  0.5183600000000  0.5881020000000  0.4700000000000 1.0
C      1  0.4754460000000  0.5771350000000  0.5351310000000 1.0
C      1  0.5257850000000  0.5357250000000  0.5676440000000 1.0
C      1  0.4722480000000  0.4957500000000  0.5775550000000 1.0
C      1  0.5209350000000  0.4471880000000  0.5585720000000 1.0
C      1  0.5440590000000  0.4654830000000  0.5528330000000 1.0
C      1  0.4573550000000  0.4465070000000  0.5180880000000 1.0
C      1  0.5440540000000  0.4435630000000  0.4830880000000 1.0
C      1  0.4657070000000  0.4632200000000  0.4528060000000 1.0
C      1  0.5541610000000  0.4957080000000  0.4425970000000 1.0
C      1  0.4509400000000  0.5381130000000  0.4548160000000 1.0
C      1  0.5405560000000  0.5456510000000  0.4833720000000 1.0
C      1  0.4558030000000  0.5551740000000  0.5191370000000 1.0
C      1  0.5497410000000  0.5353240000000  0.5470400000000 1.0
C      1  0.4502420000000  0.4954910000000  0.5539670000000 1.0
C      1  0.3994370000000  0.4870690000000  0.5203710000000 1.0
C      1  0.5973670000000  0.4785850000000  0.5133690000000 1.0
C      1  0.3996100000000  0.4760020000000  0.4938780000000 1.0
C      1  0.6008750000000  0.4813620000000  0.4852440000000 1.0
C      1  0.3999500000000  0.4975390000000  0.4757580000000 1.0
C      1  0.6016950000000  0.5088800000000  0.4793540000000 1.0
C      1  0.4011340000000  0.5212430000000  0.4906590000000 1.0
C      1  0.6007520000000  0.5235510000000  0.5037700000000 1.0
C      1  0.4006640000000  0.5152860000000  0.5180350000000 1.0
C      1  0.5994030000000  0.5046690000000  0.5252210000000 1.0
C      1  0.4886040000000  0.4953400000000  0.4426440000000 1.0
C      1  0.5130740000000  0.5257990000000  0.4508610000000 1.0
C      1  0.4915890000000  0.5514360000000  0.4726430000000 1.0
C      1  0.5163690000000  0.5605470000000  0.5129610000000 1.0
C      1  0.4897570000000  0.5464390000000  0.5391920000000 1.0
C      1  0.5076360000000  0.5079260000000  0.5602960000000 1.0
C      1  0.4853730000000  0.4756890000000  0.5534410000000 1.0
C      1  0.5115360000000  0.4518130000000  0.5254480000000 1.0
C      1  0.4880960000000  0.4432260000000  0.4932500000000 1.0
C      1  0.5140870000000  0.4566870000000  0.4601760000000 1.0
C      1  0.5769470000000  0.4572770000000  0.5209880000000 1.0
C      1  0.4212240000000  0.4561600000000  0.4882180000000 1.0
C      1  0.5889620000000  0.4624570000000  0.4630430000000 1.0
C      1  0.4198060000000  0.4978780000000  0.4533460000000 1.0
C      1  0.5819410000000  0.5187140000000  0.4595090000000 1.0
C      1  0.4217540000000  0.5412010000000  0.4836100000000 1.0
C      1  0.5790990000000  0.5455240000000  0.5040250000000 1.0
C      1  0.4217690000000  0.5291430000000  0.5341750000000 1.0
C      1  0.5845280000000  0.5093650000000  0.5506540000000 1.0
C      1  0.4203640000000  0.4728800000000  0.5370700000000 1.0
C      1  0.4392090000000  0.4225660000000  0.5338720000000 1.0
C      1  0.5667440000000  0.4189080000000  0.4888260000000 1.0
C      1  0.4373540000000  0.4502800000000  0.4401050000000 1.0
C      1  0.5720700000000  0.4821400000000  0.4189330000000 1.0
C      1  0.4297340000000  0.5416220000000  0.4294830000000 1.0
C      1  0.5723920000000  0.5658560000000  0.4532880000000 1.0
C      1  0.4332460000000  0.5795840000000  0.5130400000000 1.0
C      1  0.5653020000000  0.5700980000000  0.5585500000000 1.0
C      1  0.4337340000000  0.5076550000000  0.5803840000000 1.0
C      1  0.5674000000000  0.4681670000000  0.5761890000000 1.0
C      1  0.4724040000000  0.4436530000000  0.5852430000000 1.0
C      1  0.5266400000000  0.4079680000000  0.5393230000000 1.0
C      1  0.4692250000000  0.4023000000000  0.4753180000000 1.0
C      1  0.5301820000000  0.4337060000000  0.4179570000000 1.0
C      1  0.4660440000000  0.5005850000000  0.3954580000000 1.0
C      1  0.5308030000000  0.5496960000000  0.4088640000000 1.0
C      1  0.4615890000000  0.6008840000000  0.4631790000000 1.0
C      1  0.5374310000000  0.5942430000000  0.5219890000000 1.0
C      1  0.4669610000000  0.5645410000000  0.5838990000000 1.0
C      1  0.5346220000000  0.5145080000000  0.6030130000000 1.0
C      1  0.5571190000000  0.4185740000000  0.5439780000000 1.0
C      1  0.4379310000000  0.4096130000000  0.4806240000000 1.0
C      1  0.5573950000000  0.4385520000000  0.4340390000000 1.0
C      1  0.4400390000000  0.4928740000000  0.4102470000000 1.0
C      1  0.5604500000000  0.5394220000000  0.4157280000000 1.0
C      1  0.4355320000000  0.5862020000000  0.4687820000000 1.0
C      1  0.5461870000000  0.5717330000000  0.5010280000000 1.0
C      1  0.4382550000000  0.5610200000000  0.5690300000000 1.0
C      1  0.5579300000000  0.5133900000000  0.5798030000000 1.0
C      1  0.4414520000000  0.4520990000000  0.5798010000000 1.0
C      1  0.5538880000000  0.4962940000000  0.4981450000000 1.0
C      1  0.4493040000000  0.5005440000000  0.4987140000000 1.0
C      1  0.5040570000000  0.5082890000000  0.5031530000000 1.0
END
