TITL C-2622967-6265-32 0.00170437495136538 125000 -149.935385384599 0 0 27 (C3) n - 1
REM
REM in /nfs/bkarasulu/CARBON/AIRSS/Generating-Clusters/AIREBO/with-SteepDescent/Higher-Symm/SD-CG/HFTN-CG
REM
REM
REM
REM
REM
REM ./C.cell (b20cbc046b6831c77cfcea5457e17084)
REM
REM compiler GCC version 9.2.1 20190827 (Red Hat 9.2.1-1)
REM options -cpp -mtune=generic -march=x86-64 -g -O0 -fpre-include=/usr/include/finclude/math-vector-fortran.h
REM seed 649772617 -1267439766 139807354 -1559850358 794363028 -745809628 -218821212 1087032600 -914740210 1091833598 1459770987 -1726824 -1010137265 -91683602 -1145145159 628877100 -1062951906 1832005899 -335000113 -210284414 1226936130 -566231405 206046279 1984299855 -1707886811 -501094108 -482805765 1499932895 686477278 -501188814 -1263378812 662592600 1584451775
REM
CELL 1.54180   50.00000   50.00000   50.00000   90.00000   90.00000   90.00000
LATT -1
SFAC C  
C      1  0.4671240000000  0.5038490000000  0.4721220000000 1.0
C      1  0.5197860000000  0.5265190000000  0.4721050000000 1.0
C      1  0.5130870000000  0.4695770000000  0.4721430000000 1.0
C      1  0.4714780000000  0.5013030000000  0.5240680000000 1.0
C      1  0.5153770000000  0.5240740000000  0.5240510000000 1.0
C      1  0.5131480000000  0.4746710000000  0.5240840000000 1.0
C      1  0.5037930000000  0.5187490000000  0.5505480000000 1.0
C      1  0.5143140000000  0.4873940000000  0.5505680000000 1.0
C      1  0.4818990000000  0.4939600000000  0.5505650000000 1.0
C      1  0.5082840000000  0.5167130000000  0.4480320000000 1.0
C      1  0.5103590000000  0.4844150000000  0.4480540000000 1.0
C      1  0.4813510000000  0.4987670000000  0.4480450000000 1.0
C      1  0.4802760000000  0.4362660000000  0.5186090000000 1.0
C      1  0.4546570000000  0.5489680000000  0.5185340000000 1.0
C      1  0.5650690000000  0.5148040000000  0.5185540000000 1.0
C      1  0.4819770000000  0.4330660000000  0.4901840000000 1.0
C      1  0.4510500000000  0.5490650000000  0.4901070000000 1.0
C      1  0.5669720000000  0.5178490000000  0.4901240000000 1.0
C      1  0.4703870000000  0.5306810000000  0.4799580000000 1.0
C      1  0.5413880000000  0.5102850000000  0.4799690000000 1.0
C      1  0.4882240000000  0.4589940000000  0.4800060000000 1.0
C      1  0.4759510000000  0.5288000000000  0.5194020000000 1.0
C      1  0.5369560000000  0.5064470000000  0.5194150000000 1.0
C      1  0.4870950000000  0.4647920000000  0.5194450000000 1.0
C      1  0.5294420000000  0.4828350000000  0.4961110000000 1.0
C      1  0.5001420000000  0.5340760000000  0.4960780000000 1.0
C      1  0.4704150000000  0.4830810000000  0.4961130000000 1.0
END
