TITL C-2622965-4321-116 0.00207516563462051 125000 -529.876940908142 0 0 96 (C1) n - 1
REM
REM in /nfs/bkarasulu/CARBON/AIRSS/Generating-Clusters/AIREBO/with-SteepDescent/Higher-Symm/SD-CG/HFTN-CG
REM
REM
REM
REM
REM
REM ./C.cell (b20cbc046b6831c77cfcea5457e17084)
REM
REM compiler GCC version 9.2.1 20190827 (Red Hat 9.2.1-1)
REM options -cpp -mtune=generic -march=x86-64 -g -O0 -fpre-include=/usr/include/finclude/math-vector-fortran.h
REM seed 589051970 -1590120511 -2033824060 552638722 424302701 35549687 -543983381 495195106 -260446101 1958583574 709060775 1626100343 1024713049 120224489 1596082969 -771142602 -2008488675 2058098872 793634852 1504256915 1236843568 67860779 -987888306 -1470580736 274848368 -296535710 -712824375 -1430772703 -1671053272 1288633530 -422265765 -1065106947 759743976
REM
CELL 1.54180   50.00000   50.00000   50.00000   90.00000   90.00000   90.00000
LATT -1
SFAC C  
C      1  0.4225950000000  0.4881300000000  0.5556050000000 1.0
C      1  0.4288560000000  0.4470860000000  0.5064110000000 1.0
C      1  0.4321790000000  0.4769740000000  0.4537770000000 1.0
C      1  0.4251870000000  0.5361840000000  0.4621950000000 1.0
C      1  0.4274140000000  0.5410450000000  0.5211440000000 1.0
C      1  0.5656560000000  0.5345880000000  0.5564060000000 1.0
C      1  0.5751010000000  0.5561390000000  0.5116190000000 1.0
C      1  0.5702830000000  0.5275860000000  0.4588530000000 1.0
C      1  0.5797390000000  0.4395100000000  0.4479150000000 1.0
C      1  0.5610610000000  0.4458590000000  0.5343270000000 1.0
C      1  0.5258060000000  0.4780850000000  0.4956790000000 1.0
C      1  0.5208380000000  0.4742270000000  0.4622660000000 1.0
C      1  0.5283640000000  0.5066760000000  0.4686710000000 1.0
C      1  0.5189380000000  0.5296670000000  0.5193330000000 1.0
C      1  0.5249960000000  0.4964050000000  0.5233240000000 1.0
C      1  0.4815770000000  0.5184520000000  0.5135850000000 1.0
C      1  0.4889960000000  0.5116740000000  0.4654190000000 1.0
C      1  0.4812390000000  0.4812860000000  0.4732330000000 1.0
C      1  0.4857600000000  0.4681600000000  0.5035700000000 1.0
C      1  0.4743560000000  0.5153400000000  0.5432640000000 1.0
C      1  0.4519810000000  0.4823520000000  0.4880660000000 1.0
C      1  0.4553880000000  0.5114570000000  0.4705970000000 1.0
C      1  0.4580880000000  0.5310780000000  0.4977210000000 1.0
C      1  0.4513670000000  0.5014960000000  0.5323580000000 1.0
C      1  0.4568390000000  0.4727130000000  0.5207050000000 1.0
C      1  0.5428500000000  0.5262710000000  0.4875810000000 1.0
C      1  0.5535380000000  0.4735060000000  0.4529800000000 1.0
C      1  0.5502100000000  0.4579980000000  0.4831490000000 1.0
C      1  0.5524600000000  0.4961440000000  0.5393580000000 1.0
C      1  0.5525390000000  0.5242580000000  0.5201410000000 1.0
C      1  0.5242690000000  0.5756520000000  0.4991730000000 1.0
C      1  0.5285490000000  0.5397570000000  0.5887790000000 1.0
C      1  0.5114070000000  0.4277450000000  0.5462180000000 1.0
C      1  0.5277900000000  0.4342140000000  0.4208620000000 1.0
C      1  0.5203610000000  0.5340560000000  0.4282150000000 1.0
C      1  0.4820050000000  0.4221260000000  0.5004200000000 1.0
C      1  0.4824220000000  0.4893940000000  0.5783420000000 1.0
C      1  0.4768610000000  0.5809590000000  0.5350500000000 1.0
C      1  0.4745870000000  0.5624380000000  0.4605020000000 1.0
C      1  0.4868520000000  0.4682410000000  0.4274670000000 1.0
C      1  0.5127050000000  0.5492140000000  0.5464490000000 1.0
C      1  0.5054420000000  0.4759250000000  0.5640520000000 1.0
C      1  0.5027350000000  0.4345940000000  0.4870510000000 1.0
C      1  0.5090250000000  0.4856950000000  0.4258880000000 1.0
C      1  0.4944860000000  0.5437650000000  0.4701870000000 1.0
C      1  0.4976660000000  0.4528980000000  0.5516160000000 1.0
C      1  0.5019300000000  0.5387050000000  0.5729360000000 1.0
C      1  0.5070430000000  0.5522230000000  0.5001380000000 1.0
C      1  0.5100740000000  0.5103980000000  0.4416850000000 1.0
C      1  0.4958130000000  0.4523360000000  0.4629540000000 1.0
C      1  0.5725810000000  0.5421950000000  0.4873630000000 1.0
C      1  0.5848060000000  0.5450550000000  0.5364410000000 1.0
C      1  0.5680370000000  0.4696170000000  0.5364330000000 1.0
C      1  0.5780110000000  0.4480540000000  0.4719260000000 1.0
C      1  0.5706440000000  0.5005950000000  0.4548310000000 1.0
C      1  0.4299400000000  0.4616280000000  0.4807000000000 1.0
C      1  0.4254700000000  0.4673960000000  0.5316310000000 1.0
C      1  0.4254990000000  0.5162070000000  0.5365040000000 1.0
C      1  0.4267440000000  0.5385010000000  0.4902630000000 1.0
C      1  0.4254730000000  0.5062550000000  0.4552730000000 1.0
C      1  0.5346130000000  0.4733770000000  0.4247330000000 1.0
C      1  0.5264040000000  0.5464830000000  0.4657360000000 1.0
C      1  0.5455250000000  0.5522590000000  0.5381090000000 1.0
C      1  0.5334190000000  0.4917200000000  0.5668020000000 1.0
C      1  0.5292900000000  0.4376090000000  0.4962980000000 1.0
C      1  0.4594080000000  0.5279170000000  0.4417170000000 1.0
C      1  0.4661990000000  0.4422640000000  0.4496210000000 1.0
C      1  0.4712800000000  0.4510600000000  0.5423320000000 1.0
C      1  0.4700830000000  0.5268070000000  0.5723920000000 1.0
C      1  0.4763450000000  0.5567390000000  0.5033710000000 1.0
C      1  0.4605290000000  0.5866120000000  0.5070580000000 1.0
C      1  0.4662620000000  0.5088840000000  0.6010370000000 1.0
C      1  0.4639940000000  0.4245500000000  0.5355720000000 1.0
C      1  0.4740640000000  0.4186300000000  0.4326700000000 1.0
C      1  0.4705060000000  0.5511490000000  0.4225890000000 1.0
C      1  0.5240490000000  0.3991560000000  0.5326160000000 1.0
C      1  0.5282270000000  0.5013450000000  0.5989950000000 1.0
C      1  0.5255620000000  0.5931410000000  0.5349980000000 1.0
C      1  0.5242660000000  0.5663220000000  0.4382020000000 1.0
C      1  0.5440080000000  0.4544820000000  0.4003930000000 1.0
C      1  0.5510040000000  0.5779310000000  0.5183350000000 1.0
C      1  0.5495840000000  0.5203050000000  0.5756250000000 1.0
C      1  0.5372850000000  0.4292530000000  0.5242170000000 1.0
C      1  0.5584090000000  0.4440650000000  0.4291330000000 1.0
C      1  0.5503760000000  0.5435530000000  0.4410640000000 1.0
C      1  0.4490600000000  0.4259180000000  0.5086160000000 1.0
C      1  0.4503570000000  0.4988640000000  0.5721250000000 1.0
C      1  0.4513340000000  0.5596260000000  0.5262290000000 1.0
C      1  0.4448950000000  0.5576310000000  0.4446220000000 1.0
C      1  0.4547010000000  0.4679180000000  0.4378040000000 1.0
C      1  0.5014220000000  0.4387960000000  0.4316470000000 1.0
C      1  0.4998240000000  0.5126680000000  0.5947200000000 1.0
C      1  0.5033890000000  0.5776400000000  0.5400280000000 1.0
C      1  0.4972710000000  0.5565980000000  0.4198050000000 1.0
C      1  0.4911910000000  0.4070770000000  0.5283420000000 1.0
C      1  0.4992620000000  0.4972220000000  0.5051690000000 1.0
END
