TITL C-2622957-9142-787 -0.00148809593774872 125000 -601.558552554598 0 0 115 (C1) n - 1
REM
REM in /nfs/bkarasulu/CARBON/AIRSS/Generating-Clusters/AIREBO/with-SteepDescent/Higher-Symm/SD-CG/HFTN-CG
REM
REM
REM
REM
REM
REM ./C.cell (b20cbc046b6831c77cfcea5457e17084)
REM
REM compiler GCC version 9.2.1 20190827 (Red Hat 9.2.1-1)
REM options -cpp -mtune=generic -march=x86-64 -g -O0 -fpre-include=/usr/include/finclude/math-vector-fortran.h
REM seed -1415931121 -1164208082 1614999716 1532408759 1726579371 -576970812 1850236065 -529724279 -1273080714 1876509635 -2077855167 -561606010 -1277043308 304275229 516613793 1566200611 -126426414 -1815649571 -162019486 -235887477 -305005547 1994523198 -2108386702 -1507438641 -239433382 -1860655003 471748545 558276008 -1725220815 -543901640 -1616958918 152304695 1498287112
REM
CELL 1.54180   50.00000   50.00000   50.00000   90.00000   90.00000   90.00000
LATT -1
SFAC C  
C      1  0.4251620000000  0.4758730000000  0.5028610000000 1.0
C      1  0.4049290000000  0.4658510000000  0.4774380000000 1.0
C      1  0.5289850000000  0.5764600000000  0.4505670000000 1.0
C      1  0.5324930000000  0.5742160000000  0.5409210000000 1.0
C      1  0.4999200000000  0.4642690000000  0.5555620000000 1.0
C      1  0.5055250000000  0.4590570000000  0.4443670000000 1.0
C      1  0.4716440000000  0.4698100000000  0.4264410000000 1.0
C      1  0.4595930000000  0.4631200000000  0.5859550000000 1.0
C      1  0.4722560000000  0.5443540000000  0.5669930000000 1.0
C      1  0.4667470000000  0.5371840000000  0.4372530000000 1.0
C      1  0.4290530000000  0.5519940000000  0.5437920000000 1.0
C      1  0.4270890000000  0.5253560000000  0.4381900000000 1.0
C      1  0.5324590000000  0.4733160000000  0.4075490000000 1.0
C      1  0.5112090000000  0.4692860000000  0.6050360000000 1.0
C      1  0.4460460000000  0.4314940000000  0.4512080000000 1.0
C      1  0.4251820000000  0.4388090000000  0.5464180000000 1.0
C      1  0.4939650000000  0.5334040000000  0.4663060000000 1.0
C      1  0.4905930000000  0.5362960000000  0.5257710000000 1.0
C      1  0.4513090000000  0.5117830000000  0.5472210000000 1.0
C      1  0.4470590000000  0.5065920000000  0.4536820000000 1.0
C      1  0.5149100000000  0.5347390000000  0.4224290000000 1.0
C      1  0.5223140000000  0.5362280000000  0.5742350000000 1.0
C      1  0.4799420000000  0.4145430000000  0.5467540000000 1.0
C      1  0.4746150000000  0.4177720000000  0.4492410000000 1.0
C      1  0.4338150000000  0.4269210000000  0.5194710000000 1.0
C      1  0.4375750000000  0.4275280000000  0.4856100000000 1.0
C      1  0.4653730000000  0.4112620000000  0.4797000000000 1.0
C      1  0.4638960000000  0.4110940000000  0.5203390000000 1.0
C      1  0.4467350000000  0.4596500000000  0.4321870000000 1.0
C      1  0.4406240000000  0.4626970000000  0.5602370000000 1.0
C      1  0.5463090000000  0.5312730000000  0.4152000000000 1.0
C      1  0.5556380000000  0.5353510000000  0.5701050000000 1.0
C      1  0.4445940000000  0.4596360000000  0.5184360000000 1.0
C      1  0.4334910000000  0.4554900000000  0.4695770000000 1.0
C      1  0.5638950000000  0.4671610000000  0.5518440000000 1.0
C      1  0.5784750000000  0.4795940000000  0.4521590000000 1.0
C      1  0.4301670000000  0.4812310000000  0.4385500000000 1.0
C      1  0.4265480000000  0.4928790000000  0.5575390000000 1.0
C      1  0.5788280000000  0.5837260000000  0.4996900000000 1.0
C      1  0.6014890000000  0.5967630000000  0.4978900000000 1.0
C      1  0.4884500000000  0.4813320000000  0.5318030000000 1.0
C      1  0.4875570000000  0.4720350000000  0.4701590000000 1.0
C      1  0.5257940000000  0.5443240000000  0.4614160000000 1.0
C      1  0.5232970000000  0.5424730000000  0.5328750000000 1.0
C      1  0.4998650000000  0.5747910000000  0.5313760000000 1.0
C      1  0.5010000000000  0.5750610000000  0.4675840000000 1.0
C      1  0.4903820000000  0.5347470000000  0.5858570000000 1.0
C      1  0.4820210000000  0.5307610000000  0.4147730000000 1.0
C      1  0.4759080000000  0.4966400000000  0.4386840000000 1.0
C      1  0.4767040000000  0.5047880000000  0.5631720000000 1.0
C      1  0.5376800000000  0.4744830000000  0.6008920000000 1.0
C      1  0.5535530000000  0.4827390000000  0.4210900000000 1.0
C      1  0.4602060000000  0.5331470000000  0.4704170000000 1.0
C      1  0.4587810000000  0.5429180000000  0.5357850000000 1.0
C      1  0.4156560000000  0.5771400000000  0.5162460000000 1.0
C      1  0.4697920000000  0.5750540000000  0.5342720000000 1.0
C      1  0.5804760000000  0.5240430000000  0.5186620000000 1.0
C      1  0.5834520000000  0.5133610000000  0.4579860000000 1.0
C      1  0.5629590000000  0.5200030000000  0.4339210000000 1.0
C      1  0.5684690000000  0.5265170000000  0.5436670000000 1.0
C      1  0.5020860000000  0.5629040000000  0.4356690000000 1.0
C      1  0.5098550000000  0.5640270000000  0.5625230000000 1.0
C      1  0.5021340000000  0.4759950000000  0.4150200000000 1.0
C      1  0.4886670000000  0.4803120000000  0.5835270000000 1.0
C      1  0.5820790000000  0.4773330000000  0.4181200000000 1.0
C      1  0.5513210000000  0.4793380000000  0.5792790000000 1.0
C      1  0.5213500000000  0.4587010000000  0.5296780000000 1.0
C      1  0.5296240000000  0.4610660000000  0.4683160000000 1.0
C      1  0.4948070000000  0.4327450000000  0.5544910000000 1.0
C      1  0.4970090000000  0.4293730000000  0.4396730000000 1.0
C      1  0.5495300000000  0.4200870000000  0.5422680000000 1.0
C      1  0.5651610000000  0.4288340000000  0.4574080000000 1.0
C      1  0.5542350000000  0.5555910000000  0.4487180000000 1.0
C      1  0.5552230000000  0.5925900000000  0.5397390000000 1.0
C      1  0.5349460000000  0.5105260000000  0.5288330000000 1.0
C      1  0.5336150000000  0.5130620000000  0.4731720000000 1.0
C      1  0.6035160000000  0.4680830000000  0.4635140000000 1.0
C      1  0.5903620000000  0.4657240000000  0.5371880000000 1.0
C      1  0.4824400000000  0.4406370000000  0.4811130000000 1.0
C      1  0.4688010000000  0.4399180000000  0.5073210000000 1.0
C      1  0.5450730000000  0.4469790000000  0.5403710000000 1.0
C      1  0.5566240000000  0.4548690000000  0.4604010000000 1.0
C      1  0.4882650000000  0.5040690000000  0.4016500000000 1.0
C      1  0.4878580000000  0.5097860000000  0.6005140000000 1.0
C      1  0.4584280000000  0.4805020000000  0.5373750000000 1.0
C      1  0.4540210000000  0.4778320000000  0.4704420000000 1.0
C      1  0.5524700000000  0.4993100000000  0.5531310000000 1.0
C      1  0.5484170000000  0.4954810000000  0.4513870000000 1.0
C      1  0.5023810000000  0.5005190000000  0.4683510000000 1.0
C      1  0.5033610000000  0.5079900000000  0.5339260000000 1.0
C      1  0.5048360000000  0.5082270000000  0.4377500000000 1.0
C      1  0.5105280000000  0.5079860000000  0.5647940000000 1.0
C      1  0.4058490000000  0.5322270000000  0.4906000000000 1.0
C      1  0.4424240000000  0.4988130000000  0.4926070000000 1.0
C      1  0.5732590000000  0.4962110000000  0.5034670000000 1.0
C      1  0.5277180000000  0.5593090000000  0.5042900000000 1.0
C      1  0.4875070000000  0.5229600000000  0.4977160000000 1.0
C      1  0.5552480000000  0.5723570000000  0.5032220000000 1.0
C      1  0.5740270000000  0.4041750000000  0.4570380000000 1.0
C      1  0.4939890000000  0.4716670000000  0.5035490000000 1.0
C      1  0.5426100000000  0.4968410000000  0.5016750000000 1.0
C      1  0.4692220000000  0.3622930000000  0.4999010000000 1.0
C      1  0.4694090000000  0.3878840000000  0.4998860000000 1.0
C      1  0.4738060000000  0.4974310000000  0.4983550000000 1.0
C      1  0.5256220000000  0.4704730000000  0.4980590000000 1.0
C      1  0.4303420000000  0.5249860000000  0.4955340000000 1.0
C      1  0.5042600000000  0.5792640000000  0.4978630000000 1.0
C      1  0.3910670000000  0.4757340000000  0.5042140000000 1.0
C      1  0.5183430000000  0.5287540000000  0.4972530000000 1.0
C      1  0.4532200000000  0.5448310000000  0.5016490000000 1.0
C      1  0.4845300000000  0.6027310000000  0.5058210000000 1.0
C      1  0.5909300000000  0.4735370000000  0.5132850000000 1.0
C      1  0.4596360000000  0.6002510000000  0.5050710000000 1.0
C      1  0.5854240000000  0.5199100000000  0.4851360000000 1.0
C      1  0.4430150000000  0.5738600000000  0.5133540000000 1.0
END
