TITL C-2622960-5345-111 0.000130723002772867 125000 -284.46184770854 0 0 53 (C1) n - 1
REM
REM in /nfs/bkarasulu/CARBON/AIRSS/Generating-Clusters/AIREBO/with-SteepDescent/Higher-Symm/SD-CG/HFTN-CG
REM
REM
REM
REM
REM
REM ./C.cell (b20cbc046b6831c77cfcea5457e17084)
REM
REM compiler GCC version 9.2.1 20190827 (Red Hat 9.2.1-1)
REM options -cpp -mtune=generic -march=x86-64 -g -O0 -fpre-include=/usr/include/finclude/math-vector-fortran.h
REM seed 1227452600 1668443454 932887640 1083436164 -889487675 -1673382786 60372729 -1601835967 -466643257 1652506584 -634931288 245740971 -886702518 407628466 -1555758841 -233380060 -891421146 -952398583 1105477560 331950292 -712555255 -521351768 -2140053070 -1314162337 -980081631 967594103 1605425483 601713667 842267020 29455470 1295788222 -229975032 -926529591
REM
CELL 1.54180   50.00000   50.00000   50.00000   90.00000   90.00000   90.00000
LATT -1
SFAC C  
C      1  0.4967770000000  0.5479570000000  0.5333370000000 1.0
C      1  0.5452220000000  0.4765590000000  0.5335080000000 1.0
C      1  0.4575230000000  0.4716160000000  0.5332830000000 1.0
C      1  0.4966370000000  0.4506830000000  0.4682550000000 1.0
C      1  0.5397280000000  0.5219230000000  0.4605180000000 1.0
C      1  0.4574330000000  0.5242540000000  0.4696430000000 1.0
C      1  0.5728210000000  0.5500880000000  0.5213020000000 1.0
C      1  0.5034870000000  0.4068000000000  0.5275970000000 1.0
C      1  0.4157050000000  0.5386570000000  0.5291970000000 1.0
C      1  0.5772990000000  0.4496040000000  0.4729410000000 1.0
C      1  0.5006860000000  0.5939440000000  0.4748080000000 1.0
C      1  0.4191140000000  0.4639970000000  0.4655410000000 1.0
C      1  0.4926570000000  0.4830410000000  0.4724860000000 1.0
C      1  0.4891870000000  0.5147960000000  0.4752620000000 1.0
C      1  0.5173230000000  0.5003680000000  0.4677480000000 1.0
C      1  0.4869100000000  0.5111110000000  0.5213910000000 1.0
C      1  0.5014120000000  0.4832130000000  0.5204970000000 1.0
C      1  0.5185410000000  0.5109510000000  0.5197880000000 1.0
C      1  0.4535410000000  0.4879850000000  0.5550230000000 1.0
C      1  0.5143370000000  0.5440850000000  0.5539090000000 1.0
C      1  0.5323160000000  0.4636870000000  0.5541140000000 1.0
C      1  0.4712070000000  0.5174290000000  0.4396870000000 1.0
C      1  0.5172590000000  0.4487370000000  0.4451400000000 1.0
C      1  0.5189580000000  0.5205580000000  0.4335400000000 1.0
C      1  0.5447400000000  0.5073930000000  0.5380860000000 1.0
C      1  0.4859420000000  0.4583990000000  0.5353280000000 1.0
C      1  0.4692770000000  0.5323820000000  0.5381680000000 1.0
C      1  0.5459320000000  0.4869730000000  0.4590780000000 1.0
C      1  0.4851620000000  0.5461180000000  0.4634900000000 1.0
C      1  0.4688280000000  0.4678090000000  0.4573920000000 1.0
C      1  0.5050910000000  0.4710900000000  0.5582900000000 1.0
C      1  0.4733450000000  0.5080860000000  0.5588530000000 1.0
C      1  0.5218720000000  0.5171510000000  0.5590530000000 1.0
C      1  0.4951010000000  0.5365630000000  0.4345270000000 1.0
C      1  0.4804640000000  0.4908940000000  0.4353080000000 1.0
C      1  0.5272270000000  0.4733590000000  0.4378750000000 1.0
C      1  0.5071520000000  0.5489590000000  0.5021460000000 1.0
C      1  0.5381150000000  0.4662310000000  0.5030370000000 1.0
C      1  0.4490510000000  0.4847660000000  0.5033440000000 1.0
C      1  0.5055770000000  0.4563010000000  0.5005830000000 1.0
C      1  0.5320120000000  0.5273450000000  0.4932160000000 1.0
C      1  0.4602710000000  0.5164430000000  0.5026210000000 1.0
C      1  0.5546130000000  0.5320360000000  0.5183040000000 1.0
C      1  0.4992430000000  0.4314790000000  0.5230340000000 1.0
C      1  0.4399680000000  0.5320640000000  0.5251960000000 1.0
C      1  0.5573540000000  0.4656710000000  0.4770640000000 1.0
C      1  0.4978940000000  0.5686540000000  0.4785190000000 1.0
C      1  0.4429920000000  0.4709480000000  0.4733360000000 1.0
C      1  0.4731600000000  0.5478970000000  0.5015220000000 1.0
C      1  0.5487650000000  0.4980590000000  0.4975470000000 1.0
C      1  0.4719150000000  0.4604470000000  0.4980710000000 1.0
C      1  0.5001510000000  0.4988970000000  0.5630580000000 1.0
C      1  0.5092550000000  0.4927130000000  0.4284640000000 1.0
END
