TITL C-2622957-9142-106 0.000523994645343685 125000 -477.540277169111 0 0 83 (C1) n - 1
REM
REM in /nfs/bkarasulu/CARBON/AIRSS/Generating-Clusters/AIREBO/with-SteepDescent/Higher-Symm/SD-CG/HFTN-CG
REM
REM
REM
REM
REM
REM ./C.cell (b20cbc046b6831c77cfcea5457e17084)
REM
REM compiler GCC version 9.2.1 20190827 (Red Hat 9.2.1-1)
REM options -cpp -mtune=generic -march=x86-64 -g -O0 -fpre-include=/usr/include/finclude/math-vector-fortran.h
REM seed 1848213809 1912347606 1005039720 330010626 -578840595 -96994060 -1735461910 45122870 75864342 -315786184 1086850090 960273467 -643892253 -485409034 -180770134 605069348 1895783362 -1360711605 350243962 1928761586 1568318870 -1488990962 -1806515291 1049249591 154694260 -871888576 594519100 1938819725 750614450 -1672725051 1214795366 -1024528453 -1624710381
REM
CELL 1.54180   50.00000   50.00000   50.00000   90.00000   90.00000   90.00000
LATT -1
SFAC C  
C      1  0.5138400000000  0.4670260000000  0.5344830000000 1.0
C      1  0.5189300000000  0.4502670000000  0.4955050000000 1.0
C      1  0.5153480000000  0.4985710000000  0.4624060000000 1.0
C      1  0.5174510000000  0.5443850000000  0.4838540000000 1.0
C      1  0.5257460000000  0.5540670000000  0.5332280000000 1.0
C      1  0.4858470000000  0.5248440000000  0.5376390000000 1.0
C      1  0.4793360000000  0.5356070000000  0.4898950000000 1.0
C      1  0.4598520000000  0.5135130000000  0.4392840000000 1.0
C      1  0.4807780000000  0.4648390000000  0.4833180000000 1.0
C      1  0.4744810000000  0.4736670000000  0.5339900000000 1.0
C      1  0.4299370000000  0.4794460000000  0.4852720000000 1.0
C      1  0.4263750000000  0.5073810000000  0.4771720000000 1.0
C      1  0.4289490000000  0.5246270000000  0.5005830000000 1.0
C      1  0.4317490000000  0.5072210000000  0.5242590000000 1.0
C      1  0.4303730000000  0.4792420000000  0.5146140000000 1.0
C      1  0.5747930000000  0.5240870000000  0.4883690000000 1.0
C      1  0.5611360000000  0.4976040000000  0.4816830000000 1.0
C      1  0.5717080000000  0.4751130000000  0.4992400000000 1.0
C      1  0.5745850000000  0.4907320000000  0.5240020000000 1.0
C      1  0.5764270000000  0.5196340000000  0.5174690000000 1.0
C      1  0.4578030000000  0.4937880000000  0.5641640000000 1.0
C      1  0.4510510000000  0.4348530000000  0.5144180000000 1.0
C      1  0.4676510000000  0.4658190000000  0.4519530000000 1.0
C      1  0.4521400000000  0.5449750000000  0.4477570000000 1.0
C      1  0.4646860000000  0.5528900000000  0.5188990000000 1.0
C      1  0.5556150000000  0.5045440000000  0.5657510000000 1.0
C      1  0.5497140000000  0.5612770000000  0.5182210000000 1.0
C      1  0.5574370000000  0.5374540000000  0.4458810000000 1.0
C      1  0.5454100000000  0.4650040000000  0.4507800000000 1.0
C      1  0.5417700000000  0.4437310000000  0.5182720000000 1.0
C      1  0.4609740000000  0.5419360000000  0.5495160000000 1.0
C      1  0.4522650000000  0.4623950000000  0.5571300000000 1.0
C      1  0.4543560000000  0.4351700000000  0.4857150000000 1.0
C      1  0.4654580000000  0.4843080000000  0.4288180000000 1.0
C      1  0.4538800000000  0.5614350000000  0.4737000000000 1.0
C      1  0.5425380000000  0.4589350000000  0.5467250000000 1.0
C      1  0.5478170000000  0.5304490000000  0.5567390000000 1.0
C      1  0.5439580000000  0.5622840000000  0.4878840000000 1.0
C      1  0.5445170000000  0.5124730000000  0.4388910000000 1.0
C      1  0.5479080000000  0.4411950000000  0.4697870000000 1.0
C      1  0.4462970000000  0.5133140000000  0.5477910000000 1.0
C      1  0.4389860000000  0.4563600000000  0.5284030000000 1.0
C      1  0.4433070000000  0.4582890000000  0.4715790000000 1.0
C      1  0.4308530000000  0.5193220000000  0.4524450000000 1.0
C      1  0.4429140000000  0.5495850000000  0.4978920000000 1.0
C      1  0.5608020000000  0.4832010000000  0.5476390000000 1.0
C      1  0.5627480000000  0.5390040000000  0.5332930000000 1.0
C      1  0.5643440000000  0.5450580000000  0.4727980000000 1.0
C      1  0.5566640000000  0.4902610000000  0.4523120000000 1.0
C      1  0.5591660000000  0.4500230000000  0.4956080000000 1.0
C      1  0.5207490000000  0.5464630000000  0.5616340000000 1.0
C      1  0.5135830000000  0.4508080000000  0.5632640000000 1.0
C      1  0.5176750000000  0.4258310000000  0.4723340000000 1.0
C      1  0.5143030000000  0.5091910000000  0.4311800000000 1.0
C      1  0.5141620000000  0.5765300000000  0.4782830000000 1.0
C      1  0.4857470000000  0.4558310000000  0.5606590000000 1.0
C      1  0.4920610000000  0.5413890000000  0.5647260000000 1.0
C      1  0.4849580000000  0.5668420000000  0.4776710000000 1.0
C      1  0.4883690000000  0.5069680000000  0.4228610000000 1.0
C      1  0.4873920000000  0.4317020000000  0.4795160000000 1.0
C      1  0.4945860000000  0.5965720000000  0.5249170000000 1.0
C      1  0.4861900000000  0.4019630000000  0.5349880000000 1.0
C      1  0.4966710000000  0.5001770000000  0.5958090000000 1.0
C      1  0.4987170000000  0.4380100000000  0.4248370000000 1.0
C      1  0.4938610000000  0.5597250000000  0.4209260000000 1.0
C      1  0.5064460000000  0.5056070000000  0.6195180000000 1.0
C      1  0.5034360000000  0.5764160000000  0.4031320000000 1.0
C      1  0.4989130000000  0.6219820000000  0.5296600000000 1.0
C      1  0.5014020000000  0.4213500000000  0.4047830000000 1.0
C      1  0.4944320000000  0.3803450000000  0.5472970000000 1.0
C      1  0.4842540000000  0.5447980000000  0.4406910000000 1.0
C      1  0.4900880000000  0.5718750000000  0.5177170000000 1.0
C      1  0.4954310000000  0.4528730000000  0.4466930000000 1.0
C      1  0.4772900000000  0.4253520000000  0.5246980000000 1.0
C      1  0.4860640000000  0.4970840000000  0.5707510000000 1.0
C      1  0.4995490000000  0.4961780000000  0.5395480000000 1.0
C      1  0.4914530000000  0.4527350000000  0.5132550000000 1.0
C      1  0.5162460000000  0.4649930000000  0.4648800000000 1.0
C      1  0.4988890000000  0.5283310000000  0.4626900000000 1.0
C      1  0.5023530000000  0.5403630000000  0.5140590000000 1.0
C      1  0.4867160000000  0.4907980000000  0.5021150000000 1.0
C      1  0.5316740000000  0.5026560000000  0.4881890000000 1.0
C      1  0.5132650000000  0.5083220000000  0.5107760000000 1.0
END
