TITL C-2622953-3516-130 9.00530344849009e-05 125000 -621.484305355974 0 0 116 (C1) n - 1
REM
REM in /nfs/bkarasulu/CARBON/AIRSS/Generating-Clusters/AIREBO/with-SteepDescent/Higher-Symm/SD-CG/HFTN-CG
REM
REM
REM
REM
REM
REM ./C.cell (b20cbc046b6831c77cfcea5457e17084)
REM
REM compiler GCC version 9.2.1 20190827 (Red Hat 9.2.1-1)
REM options -cpp -mtune=generic -march=x86-64 -g -O0 -fpre-include=/usr/include/finclude/math-vector-fortran.h
REM seed -1589159628 -109203890 668237815 1465792973 -1248721132 -1964822576 1584418415 -196740352 580576804 668634156 -1230619611 1660658414 -724026096 568003975 -86980374 -1456352458 -1756346821 -1466071404 -1055001321 1938921788 -1489828457 2098991870 1706587790 809784850 -1900659059 2069884917 1916382004 -1074057955 420988385 2070424134 2140006150 -417997041 -625601359
REM
CELL 1.54180   50.00000   50.00000   50.00000   90.00000   90.00000   90.00000
LATT -1
SFAC C  
C      1  0.5748700000000  0.5472970000000  0.4490560000000 1.0
C      1  0.4532290000000  0.4509780000000  0.4603750000000 1.0
C      1  0.5199190000000  0.5197980000000  0.5321720000000 1.0
C      1  0.5896200000000  0.5210270000000  0.4955410000000 1.0
C      1  0.5071810000000  0.4505720000000  0.4201010000000 1.0
C      1  0.5063460000000  0.4150330000000  0.4966650000000 1.0
C      1  0.5115620000000  0.4007790000000  0.5247720000000 1.0
C      1  0.5711340000000  0.4980610000000  0.5572420000000 1.0
C      1  0.4204350000000  0.4663300000000  0.5361480000000 1.0
C      1  0.4998500000000  0.4933090000000  0.5397850000000 1.0
C      1  0.5328120000000  0.4882560000000  0.4872310000000 1.0
C      1  0.4461800000000  0.5275940000000  0.5701560000000 1.0
C      1  0.5049410000000  0.4560880000000  0.4673110000000 1.0
C      1  0.5723690000000  0.5242160000000  0.4698550000000 1.0
C      1  0.5121990000000  0.5081930000000  0.4524940000000 1.0
C      1  0.5737350000000  0.4651020000000  0.5490100000000 1.0
C      1  0.5344460000000  0.5047830000000  0.4301860000000 1.0
C      1  0.4707150000000  0.5854600000000  0.4963520000000 1.0
C      1  0.5081390000000  0.5495100000000  0.5437750000000 1.0
C      1  0.5516610000000  0.4475080000000  0.4470810000000 1.0
C      1  0.4540090000000  0.4898550000000  0.5116860000000 1.0
C      1  0.4333940000000  0.5610070000000  0.5222020000000 1.0
C      1  0.4863770000000  0.5513130000000  0.4723180000000 1.0
C      1  0.5257820000000  0.5438110000000  0.4290940000000 1.0
C      1  0.5114100000000  0.5489060000000  0.4508760000000 1.0
C      1  0.5518570000000  0.5825370000000  0.4824150000000 1.0
C      1  0.4859100000000  0.4371110000000  0.5132190000000 1.0
C      1  0.5062260000000  0.4821400000000  0.5082930000000 1.0
C      1  0.4337460000000  0.4599490000000  0.5625970000000 1.0
C      1  0.5535980000000  0.5485800000000  0.4828830000000 1.0
C      1  0.4964160000000  0.5207100000000  0.5109970000000 1.0
C      1  0.4796700000000  0.4355320000000  0.4575550000000 1.0
C      1  0.4989270000000  0.5123300000000  0.6026570000000 1.0
C      1  0.4779800000000  0.5027300000000  0.4011420000000 1.0
C      1  0.4604160000000  0.4733300000000  0.5891920000000 1.0
C      1  0.4369190000000  0.4522290000000  0.5153990000000 1.0
C      1  0.5303100000000  0.4563540000000  0.4899490000000 1.0
C      1  0.4780270000000  0.4276640000000  0.5470450000000 1.0
C      1  0.5075350000000  0.4773710000000  0.4409660000000 1.0
C      1  0.5599630000000  0.5756120000000  0.4542110000000 1.0
C      1  0.5174250000000  0.5262960000000  0.5815200000000 1.0
C      1  0.4555370000000  0.4641380000000  0.4894910000000 1.0
C      1  0.5511440000000  0.4770210000000  0.4363200000000 1.0
C      1  0.5034720000000  0.5243000000000  0.4812470000000 1.0
C      1  0.5109790000000  0.5216370000000  0.4122390000000 1.0
C      1  0.5341570000000  0.4796440000000  0.5692480000000 1.0
C      1  0.4899440000000  0.4316020000000  0.4279870000000 1.0
C      1  0.4261430000000  0.4972630000000  0.4734490000000 1.0
C      1  0.4801210000000  0.4152960000000  0.4800340000000 1.0
C      1  0.5366950000000  0.5435630000000  0.5612910000000 1.0
C      1  0.4929590000000  0.5075190000000  0.5699060000000 1.0
C      1  0.4754270000000  0.5616490000000  0.4236650000000 1.0
C      1  0.4524760000000  0.5700490000000  0.5433310000000 1.0
C      1  0.4202430000000  0.4436850000000  0.4567870000000 1.0
C      1  0.4297900000000  0.4960420000000  0.4441060000000 1.0
C      1  0.4670500000000  0.5438180000000  0.4968540000000 1.0
C      1  0.5563430000000  0.4185460000000  0.4857340000000 1.0
C      1  0.4517600000000  0.4253630000000  0.5302450000000 1.0
C      1  0.4784330000000  0.5540320000000  0.5273990000000 1.0
C      1  0.5707590000000  0.4402430000000  0.4668330000000 1.0
C      1  0.5266100000000  0.4346050000000  0.4535120000000 1.0
C      1  0.4839270000000  0.4776460000000  0.4831170000000 1.0
C      1  0.5321640000000  0.4698450000000  0.4108650000000 1.0
C      1  0.5218310000000  0.5883350000000  0.5311490000000 1.0
C      1  0.4466510000000  0.4702680000000  0.4369470000000 1.0
C      1  0.5793950000000  0.5345990000000  0.5199640000000 1.0
C      1  0.4227440000000  0.5068370000000  0.5589580000000 1.0
C      1  0.4566130000000  0.5307520000000  0.5391900000000 1.0
C      1  0.4867320000000  0.5910830000000  0.4696100000000 1.0
C      1  0.4475310000000  0.5597930000000  0.5684710000000 1.0
C      1  0.5063570000000  0.4158840000000  0.5472690000000 1.0
C      1  0.5236760000000  0.5599820000000  0.5153880000000 1.0
C      1  0.5803890000000  0.5268690000000  0.5476530000000 1.0
C      1  0.5428460000000  0.4547280000000  0.5392090000000 1.0
C      1  0.5437020000000  0.4887380000000  0.5394310000000 1.0
C      1  0.5257920000000  0.4328970000000  0.5574250000000 1.0
C      1  0.5466700000000  0.5104930000000  0.5166870000000 1.0
C      1  0.4163720000000  0.4659580000000  0.4821860000000 1.0
C      1  0.4306950000000  0.5573580000000  0.4694300000000 1.0
C      1  0.4509200000000  0.5148180000000  0.4888020000000 1.0
C      1  0.5664430000000  0.5498340000000  0.5584950000000 1.0
C      1  0.4544790000000  0.4808160000000  0.5505830000000 1.0
C      1  0.4284530000000  0.5314750000000  0.5239150000000 1.0
C      1  0.5564860000000  0.5580960000000  0.5136660000000 1.0
C      1  0.4804120000000  0.5735140000000  0.4472630000000 1.0
C      1  0.5443130000000  0.5116940000000  0.5721640000000 1.0
C      1  0.4647380000000  0.4471180000000  0.5690840000000 1.0
C      1  0.4558460000000  0.4984350000000  0.4223800000000 1.0
C      1  0.4728700000000  0.5093880000000  0.5272620000000 1.0
C      1  0.4634080000000  0.5173020000000  0.4474710000000 1.0
C      1  0.5554810000000  0.4964440000000  0.4630080000000 1.0
C      1  0.4819700000000  0.5026950000000  0.4661830000000 1.0
C      1  0.5164500000000  0.4584370000000  0.5689280000000 1.0
C      1  0.4791210000000  0.5307810000000  0.4204940000000 1.0
C      1  0.5051060000000  0.4885560000000  0.4087320000000 1.0
C      1  0.4290390000000  0.4344310000000  0.4875720000000 1.0
C      1  0.4444490000000  0.5691570000000  0.4950710000000 1.0
C      1  0.4406560000000  0.5328000000000  0.4622190000000 1.0
C      1  0.4242980000000  0.4977970000000  0.5262110000000 1.0
C      1  0.5158160000000  0.4523240000000  0.5188070000000 1.0
C      1  0.4729460000000  0.4657010000000  0.5263520000000 1.0
C      1  0.4903470000000  0.4647140000000  0.5555510000000 1.0
C      1  0.5342490000000  0.5950740000000  0.5002060000000 1.0
C      1  0.5360960000000  0.5221060000000  0.4865240000000 1.0
C      1  0.5039510000000  0.5811720000000  0.4969940000000 1.0
C      1  0.4059980000000  0.4923440000000  0.4997560000000 1.0
C      1  0.5623390000000  0.4489310000000  0.4981180000000 1.0
C      1  0.5697960000000  0.5711800000000  0.5404350000000 1.0
C      1  0.5295340000000  0.4158660000000  0.4766680000000 1.0
C      1  0.5790270000000  0.4860720000000  0.4797730000000 1.0
C      1  0.4633560000000  0.5015790000000  0.5723740000000 1.0
C      1  0.5508520000000  0.5552220000000  0.4296560000000 1.0
C      1  0.5749000000000  0.4659710000000  0.5181880000000 1.0
C      1  0.5756370000000  0.4958940000000  0.5108430000000 1.0
C      1  0.4582440000000  0.4233850000000  0.4989710000000 1.0
C      1  0.5106070000000  0.5815450000000  0.5571270000000 1.0
END
