TITL C-2622958-629-391 -0.000137998560293718 125000 -589.136630486779 0 0 109 (C1) n - 1
REM
REM in /nfs/bkarasulu/CARBON/AIRSS/Generating-Clusters/AIREBO/with-SteepDescent/Higher-Symm/SD-CG/HFTN-CG
REM
REM
REM
REM
REM
REM ./C.cell (b20cbc046b6831c77cfcea5457e17084)
REM
REM compiler GCC version 9.2.1 20190827 (Red Hat 9.2.1-1)
REM options -cpp -mtune=generic -march=x86-64 -g -O0 -fpre-include=/usr/include/finclude/math-vector-fortran.h
REM seed -92359887 252036980 1381701612 1543208996 -278950229 1747071917 1516634438 1600981184 -1531164653 -1581236583 -1411442432 -114383697 -404809702 994152805 -45737101 -340024903 2130377028 1680169335 987985493 1794147261 -1945775806 1475170747 -367450958 -62128802 -1480402108 -1176184332 -434045302 -1969452346 -48852569 -1131064203 -1116480641 163860485 1605448462
REM
CELL 1.54180   50.00000   50.00000   50.00000   90.00000   90.00000   90.00000
LATT -1
SFAC C  
C      1  0.4273670000000  0.4847030000000  0.4700090000000 1.0
C      1  0.5278700000000  0.4894220000000  0.4232510000000 1.0
C      1  0.5739730000000  0.4834930000000  0.5236630000000 1.0
C      1  0.4779210000000  0.4812490000000  0.5658950000000 1.0
C      1  0.4366160000000  0.4646270000000  0.5178930000000 1.0
C      1  0.4810310000000  0.4676430000000  0.4407820000000 1.0
C      1  0.5614290000000  0.4649510000000  0.4737300000000 1.0
C      1  0.5264500000000  0.4659940000000  0.5712720000000 1.0
C      1  0.5149520000000  0.4292860000000  0.4752640000000 1.0
C      1  0.5316790000000  0.4236660000000  0.5249370000000 1.0
C      1  0.4781830000000  0.4284970000000  0.5328720000000 1.0
C      1  0.4772990000000  0.4326530000000  0.4860920000000 1.0
C      1  0.5804440000000  0.5033040000000  0.4772210000000 1.0
C      1  0.5286980000000  0.5058740000000  0.5773560000000 1.0
C      1  0.4205870000000  0.5019400000000  0.5218260000000 1.0
C      1  0.4808500000000  0.5030190000000  0.4190980000000 1.0
C      1  0.5522890000000  0.5782020000000  0.5363030000000 1.0
C      1  0.4620590000000  0.5716570000000  0.5614410000000 1.0
C      1  0.4387130000000  0.5765920000000  0.4593710000000 1.0
C      1  0.5420600000000  0.5755270000000  0.4429350000000 1.0
C      1  0.5471230000000  0.5741260000000  0.5024260000000 1.0
C      1  0.5089480000000  0.5685210000000  0.5546380000000 1.0
C      1  0.4441200000000  0.5729620000000  0.5064880000000 1.0
C      1  0.4951820000000  0.5734110000000  0.4449930000000 1.0
C      1  0.4770850000000  0.5739150000000  0.5084210000000 1.0
C      1  0.4866340000000  0.5741730000000  0.4769010000000 1.0
C      1  0.5145060000000  0.5787250000000  0.4957290000000 1.0
C      1  0.5031860000000  0.5797720000000  0.5262810000000 1.0
C      1  0.5346880000000  0.4846450000000  0.4664350000000 1.0
C      1  0.5403130000000  0.4767250000000  0.5438000000000 1.0
C      1  0.4632760000000  0.4831720000000  0.5280100000000 1.0
C      1  0.4684280000000  0.4892220000000  0.4638440000000 1.0
C      1  0.4580660000000  0.5107240000000  0.5479350000000 1.0
C      1  0.4481410000000  0.5151510000000  0.4552220000000 1.0
C      1  0.5413660000000  0.5143740000000  0.4512940000000 1.0
C      1  0.5514230000000  0.5090640000000  0.5440760000000 1.0
C      1  0.5056850000000  0.4896490000000  0.5582940000000 1.0
C      1  0.4400740000000  0.4904410000000  0.4964440000000 1.0
C      1  0.5024110000000  0.4937410000000  0.4450140000000 1.0
C      1  0.5584170000000  0.4886270000000  0.4979530000000 1.0
C      1  0.4921100000000  0.5265250000000  0.5348280000000 1.0
C      1  0.4607780000000  0.5316280000000  0.4892340000000 1.0
C      1  0.5059570000000  0.5307820000000  0.4595390000000 1.0
C      1  0.5381020000000  0.5292130000000  0.5060360000000 1.0
C      1  0.5209090000000  0.5310240000000  0.4316930000000 1.0
C      1  0.5653000000000  0.5281680000000  0.5201000000000 1.0
C      1  0.4828010000000  0.5262450000000  0.5654310000000 1.0
C      1  0.4303460000000  0.5309530000000  0.4795170000000 1.0
C      1  0.5466650000000  0.5373370000000  0.5607600000000 1.0
C      1  0.4385960000000  0.5312530000000  0.5418650000000 1.0
C      1  0.4560410000000  0.5351880000000  0.4353880000000 1.0
C      1  0.5576730000000  0.5336870000000  0.4647490000000 1.0
C      1  0.4128280000000  0.4606820000000  0.5416730000000 1.0
C      1  0.4644390000000  0.4599220000000  0.4121190000000 1.0
C      1  0.5909350000000  0.4629570000000  0.4566960000000 1.0
C      1  0.5496010000000  0.4688840000000  0.5960070000000 1.0
C      1  0.4110640000000  0.5177320000000  0.4994130000000 1.0
C      1  0.5084220000000  0.5125200000000  0.4105760000000 1.0
C      1  0.5872190000000  0.5159780000000  0.5021110000000 1.0
C      1  0.5036280000000  0.5174180000000  0.5867890000000 1.0
C      1  0.4855820000000  0.5581840000000  0.5657470000000 1.0
C      1  0.4329840000000  0.5632220000000  0.4826980000000 1.0
C      1  0.5188580000000  0.5631800000000  0.4346440000000 1.0
C      1  0.5703600000000  0.5581690000000  0.5207300000000 1.0
C      1  0.4369390000000  0.4910050000000  0.4379210000000 1.0
C      1  0.5594100000000  0.4924940000000  0.4354000000000 1.0
C      1  0.5751760000000  0.4909780000000  0.5571520000000 1.0
C      1  0.4447290000000  0.4889760000000  0.5672300000000 1.0
C      1  0.5132150000000  0.5477100000000  0.5208910000000 1.0
C      1  0.4680990000000  0.5431650000000  0.5177650000000 1.0
C      1  0.4784180000000  0.5445720000000  0.4670320000000 1.0
C      1  0.5235950000000  0.5488200000000  0.4823470000000 1.0
C      1  0.5611730000000  0.4269560000000  0.5069050000000 1.0
C      1  0.4843800000000  0.4302860000000  0.5655120000000 1.0
C      1  0.4289350000000  0.4291800000000  0.4793970000000 1.0
C      1  0.5018250000000  0.4356140000000  0.4387580000000 1.0
C      1  0.5175410000000  0.4618140000000  0.4849230000000 1.0
C      1  0.5203270000000  0.4673740000000  0.5183160000000 1.0
C      1  0.4887460000000  0.4678640000000  0.5114830000000 1.0
C      1  0.4835770000000  0.4635830000000  0.4803290000000 1.0
C      1  0.4686260000000  0.4383360000000  0.4477290000000 1.0
C      1  0.5539480000000  0.4344650000000  0.4744080000000 1.0
C      1  0.5158150000000  0.4382620000000  0.5706740000000 1.0
C      1  0.4387550000000  0.4368720000000  0.5048740000000 1.0
C      1  0.5345850000000  0.4132580000000  0.4926310000000 1.0
C      1  0.5093210000000  0.4194070000000  0.5435300000000 1.0
C      1  0.4636280000000  0.4257140000000  0.5088060000000 1.0
C      1  0.4885490000000  0.4150560000000  0.4619960000000 1.0
C      1  0.5453680000000  0.4622880000000  0.4301720000000 1.0
C      1  0.5786610000000  0.4603350000000  0.5459080000000 1.0
C      1  0.4631750000000  0.4850320000000  0.5951280000000 1.0
C      1  0.4262620000000  0.4619950000000  0.4474370000000 1.0
C      1  0.5251190000000  0.4996190000000  0.4954360000000 1.0
C      1  0.5094530000000  0.4987450000000  0.5256430000000 1.0
C      1  0.4717130000000  0.5021530000000  0.5007720000000 1.0
C      1  0.4964360000000  0.5029940000000  0.4773810000000 1.0
C      1  0.4214070000000  0.4882300000000  0.5461930000000 1.0
C      1  0.4576290000000  0.4883380000000  0.4160510000000 1.0
C      1  0.5834760000000  0.4908250000000  0.4528960000000 1.0
C      1  0.5533870000000  0.4937260000000  0.5809170000000 1.0
C      1  0.5318270000000  0.4462630000000  0.4511170000000 1.0
C      1  0.5531770000000  0.4478010000000  0.5313870000000 1.0
C      1  0.4734770000000  0.4569820000000  0.5471710000000 1.0
C      1  0.4386730000000  0.4384520000000  0.4541610000000 1.0
C      1  0.4467320000000  0.5614550000000  0.5368770000000 1.0
C      1  0.4631780000000  0.5649800000000  0.4446670000000 1.0
C      1  0.5514000000000  0.5642670000000  0.4702120000000 1.0
C      1  0.5367980000000  0.5638090000000  0.5559940000000 1.0
C      1  0.4994960000000  0.5302280000000  0.4975100000000 1.0
END
