TITL C-2622966-9038-150 -2.71659355072297e-07 125000 -49.342241240188 0 0 9 (Cs) n - 1
REM
REM in /nfs/bkarasulu/CARBON/AIRSS/Generating-Clusters/AIREBO/with-SteepDescent/Higher-Symm/SD-CG/HFTN-CG
REM
REM
REM
REM
REM
REM ./C.cell (b20cbc046b6831c77cfcea5457e17084)
REM
REM compiler GCC version 9.2.1 20190827 (Red Hat 9.2.1-1)
REM options -cpp -mtune=generic -march=x86-64 -g -O0 -fpre-include=/usr/include/finclude/math-vector-fortran.h
REM seed 874330922 -479896166 -75107684 -618192506 -1974042237 2137145501 -1841734311 720507061 333428675 -525555074 637395444 -111442796 -1402218128 -208444359 289951561 414342408 430849549 2049486359 -1915921241 1165896608 2057770735 -128876562 152191744 1546221032 526437285 961738016 256789874 -200582222 1897344003 -1152523506 1458521800 1750990070 48885337
REM
CELL 1.54180   50.00000   50.00000   50.00000   90.00000   90.00000   90.00000
LATT -1
SFAC C  
C      1  0.4641880000000  0.5139750000000  0.4849850000000 1.0
C      1  0.5252720000000  0.4878410000000  0.5068370000000 1.0
C      1  0.5252300000000  0.5134010000000  0.5185870000000 1.0
C      1  0.4637700000000  0.4866820000000  0.4825060000000 1.0
C      1  0.5074180000000  0.4689940000000  0.4986170000000 1.0
C      1  0.4796510000000  0.5302750000000  0.5005350000000 1.0
C      1  0.5057800000000  0.5308610000000  0.5081830000000 1.0
C      1  0.4846080000000  0.4689100000000  0.4835750000000 1.0
C      1  0.5423270000000  0.5205360000000  0.5381200000000 1.0
END
