TITL C-2622961-1971-550 0.0023804904908737 125000 -438.032473453597 0 0 76 (C1) n - 1
REM
REM in /nfs/bkarasulu/CARBON/AIRSS/Generating-Clusters/AIREBO/with-SteepDescent/Higher-Symm/SD-CG/HFTN-CG
REM
REM
REM
REM
REM
REM ./C.cell (b20cbc046b6831c77cfcea5457e17084)
REM
REM compiler GCC version 9.2.1 20190827 (Red Hat 9.2.1-1)
REM options -cpp -mtune=generic -march=x86-64 -g -O0 -fpre-include=/usr/include/finclude/math-vector-fortran.h
REM seed -240990365 -100475269 439880669 1946557019 -96120154 1878228994 -1327144415 -174173675 -86987529 226529254 -1553385205 -784604478 39993499 -665979339 -549549472 -932095018 -745461410 -1364720051 -729600861 826932025 581947725 -1033732601 33759763 -779978977 -375407314 -1827924045 -412189938 -411096888 -40376714 -1493697963 -440519960 734382180 580173496
REM
CELL 1.54180   50.00000   50.00000   50.00000   90.00000   90.00000   90.00000
LATT -1
SFAC C  
C      1  0.5301980000000  0.5010950000000  0.4486090000000 1.0
C      1  0.4834680000000  0.4638110000000  0.4846480000000 1.0
C      1  0.5143540000000  0.4827080000000  0.5616800000000 1.0
C      1  0.4855940000000  0.5473570000000  0.5047680000000 1.0
C      1  0.5115730000000  0.5516880000000  0.5678710000000 1.0
C      1  0.4921870000000  0.5686270000000  0.4548630000000 1.0
C      1  0.5185480000000  0.4605310000000  0.4210420000000 1.0
C      1  0.4861080000000  0.4310080000000  0.5363560000000 1.0
C      1  0.5552370000000  0.5046000000000  0.4794320000000 1.0
C      1  0.4439290000000  0.4669230000000  0.5165260000000 1.0
C      1  0.5547550000000  0.5156750000000  0.5367950000000 1.0
C      1  0.4486100000000  0.5233050000000  0.4877170000000 1.0
C      1  0.5789220000000  0.5414100000000  0.4977090000000 1.0
C      1  0.4327270000000  0.4812160000000  0.4692620000000 1.0
C      1  0.5691710000000  0.4725970000000  0.5215270000000 1.0
C      1  0.4324430000000  0.5156950000000  0.5318880000000 1.0
C      1  0.5340660000000  0.5523400000000  0.5227680000000 1.0
C      1  0.4542460000000  0.5284760000000  0.4486760000000 1.0
C      1  0.5419140000000  0.4510560000000  0.4708790000000 1.0
C      1  0.4627770000000  0.4719690000000  0.5609550000000 1.0
C      1  0.4881890000000  0.5292900000000  0.4467110000000 1.0
C      1  0.5109770000000  0.4637920000000  0.4646610000000 1.0
C      1  0.4879290000000  0.4729700000000  0.5775870000000 1.0
C      1  0.5087020000000  0.5675520000000  0.5152600000000 1.0
C      1  0.5403390000000  0.4816010000000  0.4843520000000 1.0
C      1  0.4703670000000  0.4832020000000  0.5306450000000 1.0
C      1  0.5260320000000  0.5192090000000  0.5212520000000 1.0
C      1  0.4652240000000  0.5042860000000  0.4699080000000 1.0
C      1  0.5072740000000  0.5520930000000  0.4355570000000 1.0
C      1  0.4792140000000  0.4221170000000  0.4509000000000 1.0
C      1  0.5083620000000  0.4351940000000  0.5571760000000 1.0
C      1  0.4921700000000  0.5644690000000  0.5515210000000 1.0
C      1  0.5328380000000  0.5643640000000  0.4836020000000 1.0
C      1  0.4798970000000  0.4870400000000  0.4200260000000 1.0
C      1  0.5097560000000  0.4342270000000  0.4926350000000 1.0
C      1  0.4863220000000  0.5119770000000  0.5852780000000 1.0
C      1  0.4770150000000  0.5143950000000  0.4191460000000 1.0
C      1  0.4999790000000  0.4326870000000  0.4657590000000 1.0
C      1  0.4845280000000  0.4875320000000  0.6026050000000 1.0
C      1  0.5013170000000  0.5879580000000  0.5351550000000 1.0
C      1  0.4717610000000  0.4478290000000  0.5104140000000 1.0
C      1  0.5230250000000  0.5136100000000  0.5695690000000 1.0
C      1  0.4608990000000  0.5483570000000  0.4868610000000 1.0
C      1  0.5392690000000  0.4820270000000  0.4316490000000 1.0
C      1  0.4753020000000  0.5486520000000  0.5350730000000 1.0
C      1  0.5340460000000  0.5480410000000  0.4384520000000 1.0
C      1  0.4550850000000  0.4354220000000  0.4514960000000 1.0
C      1  0.5265060000000  0.4560930000000  0.5534990000000 1.0
C      1  0.4614200000000  0.5247040000000  0.5440440000000 1.0
C      1  0.5427310000000  0.5273210000000  0.4599290000000 1.0
C      1  0.4568710000000  0.4638520000000  0.4634620000000 1.0
C      1  0.5406500000000  0.4562690000000  0.5276520000000 1.0
C      1  0.5114480000000  0.5798640000000  0.4733280000000 1.0
C      1  0.4965180000000  0.4687540000000  0.4063570000000 1.0
C      1  0.4984120000000  0.4175570000000  0.5107330000000 1.0
C      1  0.5062750000000  0.5326440000000  0.5905090000000 1.0
C      1  0.4960730000000  0.4793580000000  0.5121460000000 1.0
C      1  0.5063640000000  0.5001080000000  0.5335740000000 1.0
C      1  0.4963040000000  0.5269330000000  0.4796600000000 1.0
C      1  0.5037160000000  0.4970820000000  0.4650480000000 1.0
C      1  0.4302970000000  0.5044300000000  0.4517000000000 1.0
C      1  0.5589370000000  0.4503600000000  0.4993870000000 1.0
C      1  0.4436470000000  0.4984810000000  0.5565380000000 1.0
C      1  0.5571920000000  0.5584990000000  0.5021250000000 1.0
C      1  0.4826770000000  0.5062160000000  0.5559950000000 1.0
C      1  0.5266210000000  0.5316400000000  0.4895610000000 1.0
C      1  0.4789240000000  0.4822670000000  0.4495520000000 1.0
C      1  0.5207350000000  0.4611900000000  0.5032380000000 1.0
C      1  0.5752640000000  0.5131170000000  0.4967950000000 1.0
C      1  0.4286690000000  0.4835890000000  0.4970750000000 1.0
C      1  0.5726340000000  0.5002600000000  0.5222000000000 1.0
C      1  0.4308220000000  0.5103800000000  0.5049370000000 1.0
C      1  0.5434950000000  0.4512390000000  0.4392370000000 1.0
C      1  0.4568550000000  0.4471270000000  0.5409660000000 1.0
C      1  0.5377860000000  0.5396170000000  0.5532970000000 1.0
C      1  0.4655140000000  0.5590700000000  0.4602340000000 1.0
END
