TITL C-2622966-9038-242 0.00131705474083026 125000 -691.754456383311 0 0 123 (C1) n - 1
REM
REM in /nfs/bkarasulu/CARBON/AIRSS/Generating-Clusters/AIREBO/with-SteepDescent/Higher-Symm/SD-CG/HFTN-CG
REM
REM
REM
REM
REM
REM ./C.cell (b20cbc046b6831c77cfcea5457e17084)
REM
REM compiler GCC version 9.2.1 20190827 (Red Hat 9.2.1-1)
REM options -cpp -mtune=generic -march=x86-64 -g -O0 -fpre-include=/usr/include/finclude/math-vector-fortran.h
REM seed 1115990652 -1152383143 -52197362 1081868053 419965764 258846221 -1006040479 322206276 1777232079 -739272077 -1979375153 989122365 699614614 1331528995 1354493291 1820455450 1704989236 -747594193 902798209 269390404 16771760 763888562 1592401940 -352710254 -74349490 1818401239 -634165641 1917328371 -988154628 1481600593 962952703 858400169 860201903
REM
CELL 1.54180   50.00000   50.00000   50.00000   90.00000   90.00000   90.00000
LATT -1
SFAC C  
C      1  0.4375180000000  0.5358340000000  0.5562460000000 1.0
C      1  0.4147930000000  0.4780430000000  0.4825380000000 1.0
C      1  0.4232920000000  0.5099420000000  0.5484410000000 1.0
C      1  0.5081360000000  0.5136220000000  0.4155360000000 1.0
C      1  0.5382760000000  0.5487460000000  0.4854280000000 1.0
C      1  0.5010800000000  0.4245360000000  0.4454460000000 1.0
C      1  0.5093400000000  0.5723320000000  0.4343920000000 1.0
C      1  0.4153800000000  0.4967260000000  0.4660670000000 1.0
C      1  0.5896790000000  0.5246820000000  0.4920100000000 1.0
C      1  0.4865210000000  0.4365890000000  0.4245600000000 1.0
C      1  0.5228000000000  0.4713970000000  0.4476400000000 1.0
C      1  0.4758410000000  0.5304180000000  0.4522870000000 1.0
C      1  0.4669780000000  0.4931230000000  0.5759710000000 1.0
C      1  0.5111800000000  0.5382790000000  0.4692200000000 1.0
C      1  0.5575790000000  0.5245700000000  0.5624220000000 1.0
C      1  0.4832920000000  0.5047360000000  0.4367420000000 1.0
C      1  0.5355600000000  0.5236150000000  0.5365270000000 1.0
C      1  0.4827960000000  0.6262190000000  0.5342190000000 1.0
C      1  0.4915750000000  0.4641950000000  0.6013410000000 1.0
C      1  0.4281940000000  0.4677950000000  0.5120660000000 1.0
C      1  0.5117820000000  0.4723620000000  0.5376680000000 1.0
C      1  0.4622830000000  0.5112270000000  0.5373730000000 1.0
C      1  0.5354470000000  0.4181170000000  0.5358730000000 1.0
C      1  0.4944770000000  0.4636710000000  0.4198420000000 1.0
C      1  0.4896390000000  0.4702100000000  0.5126300000000 1.0
C      1  0.4175570000000  0.4994540000000  0.5184990000000 1.0
C      1  0.4945310000000  0.4797610000000  0.5611830000000 1.0
C      1  0.5560120000000  0.4697120000000  0.5006070000000 1.0
C      1  0.5303080000000  0.5524620000000  0.5537580000000 1.0
C      1  0.4882060000000  0.5588210000000  0.4569050000000 1.0
C      1  0.5793770000000  0.4466520000000  0.4676090000000 1.0
C      1  0.4493050000000  0.4582140000000  0.4444690000000 1.0
C      1  0.4564240000000  0.4984440000000  0.4188470000000 1.0
C      1  0.5677650000000  0.5658530000000  0.5065750000000 1.0
C      1  0.4944000000000  0.3984210000000  0.4870700000000 1.0
C      1  0.5597450000000  0.5263820000000  0.4480510000000 1.0
C      1  0.4583680000000  0.4357540000000  0.4295070000000 1.0
C      1  0.4429320000000  0.4844000000000  0.5453090000000 1.0
C      1  0.5370190000000  0.4896530000000  0.5395210000000 1.0
C      1  0.5968450000000  0.4967760000000  0.5005410000000 1.0
C      1  0.5649320000000  0.4761040000000  0.5295670000000 1.0
C      1  0.5193360000000  0.5754110000000  0.4855060000000 1.0
C      1  0.4633430000000  0.5461530000000  0.4995270000000 1.0
C      1  0.5807620000000  0.4238210000000  0.4887100000000 1.0
C      1  0.5505270000000  0.4775090000000  0.5666510000000 1.0
C      1  0.4372140000000  0.4673040000000  0.5703670000000 1.0
C      1  0.5709520000000  0.4977220000000  0.4591360000000 1.0
C      1  0.4321150000000  0.5584590000000  0.5050330000000 1.0
C      1  0.4383490000000  0.4347740000000  0.5339990000000 1.0
C      1  0.4757020000000  0.4419760000000  0.4849910000000 1.0
C      1  0.5490700000000  0.5703100000000  0.5583680000000 1.0
C      1  0.4919380000000  0.4772690000000  0.4486120000000 1.0
C      1  0.4888050000000  0.5784540000000  0.5569870000000 1.0
C      1  0.4446920000000  0.5368270000000  0.4430630000000 1.0
C      1  0.5646780000000  0.4202310000000  0.5184780000000 1.0
C      1  0.4589570000000  0.5425400000000  0.5307170000000 1.0
C      1  0.4936190000000  0.5615030000000  0.4965720000000 1.0
C      1  0.5051670000000  0.5073420000000  0.5772960000000 1.0
C      1  0.5467280000000  0.4628490000000  0.4272710000000 1.0
C      1  0.5081330000000  0.4024360000000  0.5369360000000 1.0
C      1  0.5120370000000  0.4809750000000  0.5969300000000 1.0
C      1  0.4853460000000  0.4262700000000  0.5427720000000 1.0
C      1  0.5033980000000  0.5563550000000  0.5685110000000 1.0
C      1  0.5366110000000  0.5039350000000  0.3996730000000 1.0
C      1  0.4847250000000  0.5372950000000  0.4080790000000 1.0
C      1  0.4739500000000  0.5840970000000  0.5063030000000 1.0
C      1  0.3996620000000  0.5207200000000  0.5050570000000 1.0
C      1  0.4576650000000  0.4262660000000  0.5072460000000 1.0
C      1  0.5277810000000  0.4391040000000  0.4530790000000 1.0
C      1  0.5114550000000  0.4413770000000  0.5295880000000 1.0
C      1  0.5151380000000  0.5344350000000  0.5917010000000 1.0
C      1  0.4669120000000  0.4595050000000  0.5811390000000 1.0
C      1  0.4120060000000  0.4520860000000  0.5375140000000 1.0
C      1  0.4788900000000  0.5993440000000  0.5333740000000 1.0
C      1  0.5836170000000  0.5509950000000  0.4849650000000 1.0
C      1  0.5624480000000  0.5490070000000  0.4648630000000 1.0
C      1  0.4133800000000  0.5396380000000  0.4898410000000 1.0
C      1  0.4985450000000  0.5279020000000  0.4982550000000 1.0
C      1  0.4486420000000  0.5821420000000  0.4910270000000 1.0
C      1  0.5667710000000  0.4555100000000  0.5551600000000 1.0
C      1  0.5521700000000  0.4403120000000  0.4961700000000 1.0
C      1  0.4278830000000  0.5252220000000  0.4676510000000 1.0
C      1  0.4989160000000  0.4838600000000  0.4018940000000 1.0
C      1  0.5394600000000  0.4902960000000  0.5890580000000 1.0
C      1  0.5279360000000  0.4313220000000  0.4828710000000 1.0
C      1  0.5608780000000  0.4440060000000  0.4468210000000 1.0
C      1  0.5815080000000  0.4753870000000  0.4809320000000 1.0
C      1  0.4693560000000  0.4667530000000  0.4682510000000 1.0
C      1  0.5343580000000  0.5543260000000  0.4310110000000 1.0
C      1  0.5426640000000  0.5183230000000  0.5858410000000 1.0
C      1  0.5022910000000  0.4959030000000  0.4967830000000 1.0
C      1  0.4281410000000  0.4365490000000  0.4986470000000 1.0
C      1  0.5488420000000  0.4798630000000  0.4052590000000 1.0
C      1  0.4821300000000  0.4048480000000  0.5152680000000 1.0
C      1  0.5557710000000  0.5343070000000  0.5107800000000 1.0
C      1  0.4659470000000  0.5816690000000  0.4672000000000 1.0
C      1  0.5754550000000  0.5223840000000  0.5358180000000 1.0
C      1  0.5370160000000  0.4956480000000  0.4596100000000 1.0
C      1  0.5049990000000  0.4434570000000  0.4983240000000 1.0
C      1  0.4816500000000  0.5383190000000  0.5857390000000 1.0
C      1  0.5860290000000  0.4971150000000  0.5274400000000 1.0
C      1  0.4241320000000  0.5603780000000  0.5368140000000 1.0
C      1  0.4927270000000  0.5633870000000  0.4088800000000 1.0
C      1  0.5477410000000  0.5840280000000  0.5016070000000 1.0
C      1  0.4862920000000  0.6028790000000  0.4636830000000 1.0
C      1  0.5633620000000  0.4289170000000  0.5498000000000 1.0
C      1  0.4584810000000  0.5285240000000  0.4163880000000 1.0
C      1  0.5314050000000  0.4910820000000  0.4909090000000 1.0
C      1  0.4591190000000  0.5233460000000  0.4778190000000 1.0
C      1  0.4612940000000  0.5216010000000  0.5759840000000 1.0
C      1  0.4697760000000  0.4936880000000  0.4870630000000 1.0
C      1  0.4895350000000  0.5091100000000  0.5470970000000 1.0
C      1  0.5112310000000  0.5911850000000  0.4603540000000 1.0
C      1  0.4490300000000  0.5017790000000  0.5098790000000 1.0
C      1  0.4852580000000  0.4172670000000  0.4679070000000 1.0
C      1  0.4623510000000  0.5708610000000  0.5419830000000 1.0
C      1  0.4389810000000  0.4795130000000  0.4292380000000 1.0
C      1  0.4603860000000  0.4663470000000  0.5237370000000 1.0
C      1  0.5601680000000  0.5079170000000  0.4897910000000 1.0
C      1  0.5065930000000  0.5217330000000  0.5269900000000 1.0
C      1  0.5222640000000  0.4001030000000  0.4860320000000 1.0
C      1  0.4639230000000  0.4454130000000  0.5503070000000 1.0
C      1  0.5263230000000  0.5233750000000  0.4425740000000 1.0
END
