TITL C-2622962-9663-231 -0.00058426732516994 125000 -755.893933378336 0 0 132 (C1) n - 1
REM
REM in /nfs/bkarasulu/CARBON/AIRSS/Generating-Clusters/AIREBO/with-SteepDescent/Higher-Symm/SD-CG/HFTN-CG
REM
REM
REM
REM
REM
REM ./C.cell (b20cbc046b6831c77cfcea5457e17084)
REM
REM compiler GCC version 9.2.1 20190827 (Red Hat 9.2.1-1)
REM options -cpp -mtune=generic -march=x86-64 -g -O0 -fpre-include=/usr/include/finclude/math-vector-fortran.h
REM seed -818662605 16438267 388092298 -1537609761 -697010635 1884477784 392106550 -1277986727 360733212 -1786966288 852822031 1450018947 -1236978131 -629621303 1180939435 1974797938 1706272112 675386553 -674995726 1296400957 258461522 -706118137 112691567 1276048110 909867374 -1646757858 1717251514 -491989074 -694971170 -581239202 827048680 1794951627 1478218616
REM
CELL 1.54180   50.00000   50.00000   50.00000   90.00000   90.00000   90.00000
LATT -1
SFAC C  
C      1  0.4308290000000  0.5113310000000  0.4748080000000 1.0
C      1  0.5452970000000  0.5627080000000  0.4625120000000 1.0
C      1  0.5271820000000  0.4360450000000  0.4602940000000 1.0
C      1  0.5819560000000  0.5282760000000  0.4574970000000 1.0
C      1  0.4601990000000  0.5496040000000  0.4728750000000 1.0
C      1  0.4797610000000  0.4346760000000  0.4701070000000 1.0
C      1  0.4289350000000  0.5635270000000  0.5549790000000 1.0
C      1  0.5817030000000  0.5176950000000  0.5526960000000 1.0
C      1  0.4849180000000  0.4178210000000  0.5552090000000 1.0
C      1  0.5702970000000  0.5439170000000  0.5506580000000 1.0
C      1  0.4190630000000  0.5356350000000  0.5485480000000 1.0
C      1  0.5057440000000  0.4201810000000  0.5726530000000 1.0
C      1  0.5206030000000  0.4209210000000  0.4864070000000 1.0
C      1  0.4317810000000  0.5228700000000  0.5036340000000 1.0
C      1  0.5499170000000  0.5454750000000  0.4904860000000 1.0
C      1  0.4925510000000  0.4273980000000  0.4970050000000 1.0
C      1  0.5682530000000  0.5180710000000  0.4869640000000 1.0
C      1  0.4476420000000  0.5482780000000  0.5000740000000 1.0
C      1  0.5591580000000  0.5053260000000  0.4255880000000 1.0
C      1  0.4652700000000  0.4449230000000  0.4281040000000 1.0
C      1  0.4628530000000  0.5565380000000  0.4284680000000 1.0
C      1  0.4341110000000  0.4970650000000  0.4300280000000 1.0
C      1  0.5360290000000  0.4455560000000  0.4224830000000 1.0
C      1  0.5230260000000  0.5579690000000  0.4216520000000 1.0
C      1  0.4728360000000  0.5872720000000  0.4732970000000 1.0
C      1  0.5881720000000  0.4833740000000  0.4728240000000 1.0
C      1  0.4401570000000  0.4297820000000  0.4728360000000 1.0
C      1  0.5329260000000  0.5905900000000  0.4911020000000 1.0
C      1  0.4110790000000  0.4771090000000  0.4713770000000 1.0
C      1  0.5655680000000  0.4376140000000  0.4692490000000 1.0
C      1  0.4779090000000  0.5785960000000  0.4401680000000 1.0
C      1  0.5884870000000  0.4608370000000  0.4469930000000 1.0
C      1  0.4402060000000  0.4462000000000  0.4428970000000 1.0
C      1  0.5063510000000  0.5765680000000  0.4367510000000 1.0
C      1  0.4260080000000  0.4716640000000  0.4424240000000 1.0
C      1  0.5620230000000  0.4428520000000  0.4354810000000 1.0
C      1  0.4647120000000  0.5052850000000  0.5974200000000 1.0
C      1  0.5120920000000  0.5312030000000  0.5968270000000 1.0
C      1  0.5079670000000  0.4764930000000  0.6032610000000 1.0
C      1  0.5241150000000  0.5029320000000  0.5998200000000 1.0
C      1  0.4809570000000  0.5320460000000  0.5923350000000 1.0
C      1  0.4790380000000  0.4785500000000  0.5930570000000 1.0
C      1  0.5337510000000  0.3952570000000  0.5046470000000 1.0
C      1  0.3994950000000  0.5198220000000  0.4999910000000 1.0
C      1  0.5772720000000  0.5627650000000  0.4996940000000 1.0
C      1  0.4720190000000  0.4049260000000  0.5074140000000 1.0
C      1  0.5978090000000  0.5364680000000  0.5062870000000 1.0
C      1  0.4329640000000  0.5738520000000  0.5051800000000 1.0
C      1  0.5540870000000  0.4440580000000  0.5021010000000 1.0
C      1  0.4189720000000  0.4597080000000  0.4960340000000 1.0
C      1  0.5166230000000  0.5794330000000  0.5138590000000 1.0
C      1  0.4412160000000  0.4363530000000  0.5062180000000 1.0
C      1  0.5762370000000  0.4697220000000  0.4996920000000 1.0
C      1  0.4834890000000  0.5802880000000  0.5049240000000 1.0
C      1  0.5268700000000  0.4424520000000  0.5640460000000 1.0
C      1  0.4377150000000  0.5124970000000  0.5546190000000 1.0
C      1  0.5396670000000  0.5448820000000  0.5498710000000 1.0
C      1  0.4692140000000  0.4440010000000  0.5519510000000 1.0
C      1  0.5781410000000  0.5034390000000  0.5763970000000 1.0
C      1  0.4555720000000  0.5686820000000  0.5617410000000 1.0
C      1  0.5478770000000  0.5524820000000  0.4361560000000 1.0
C      1  0.5122770000000  0.4293720000000  0.4359980000000 1.0
C      1  0.4319280000000  0.5205220000000  0.4482130000000 1.0
C      1  0.4464430000000  0.5453980000000  0.4486170000000 1.0
C      1  0.4843660000000  0.4299010000000  0.4430280000000 1.0
C      1  0.5673560000000  0.5311600000000  0.4342730000000 1.0
C      1  0.4876780000000  0.4715340000000  0.5135530000000 1.0
C      1  0.4896610000000  0.5239840000000  0.5119620000000 1.0
C      1  0.5324450000000  0.4952900000000  0.5148040000000 1.0
C      1  0.5171410000000  0.4706290000000  0.5244400000000 1.0
C      1  0.5184510000000  0.5226330000000  0.5242870000000 1.0
C      1  0.4744190000000  0.4985070000000  0.5213600000000 1.0
C      1  0.4837950000000  0.4730430000000  0.4495820000000 1.0
C      1  0.4849540000000  0.5285870000000  0.4464710000000 1.0
C      1  0.5288400000000  0.4999060000000  0.4501240000000 1.0
C      1  0.5147230000000  0.4732800000000  0.4408490000000 1.0
C      1  0.5162900000000  0.5285210000000  0.4475230000000 1.0
C      1  0.4722080000000  0.5004040000000  0.4406400000000 1.0
C      1  0.5142070000000  0.4711040000000  0.5555080000000 1.0
C      1  0.4696970000000  0.5008430000000  0.5524830000000 1.0
C      1  0.5167620000000  0.5202570000000  0.5551730000000 1.0
C      1  0.4838320000000  0.4729700000000  0.5608410000000 1.0
C      1  0.5277800000000  0.4947330000000  0.5671120000000 1.0
C      1  0.4886170000000  0.5214630000000  0.5640700000000 1.0
C      1  0.5636720000000  0.4964510000000  0.5093080000000 1.0
C      1  0.4713710000000  0.4433370000000  0.5184290000000 1.0
C      1  0.4737970000000  0.5496620000000  0.5160670000000 1.0
C      1  0.4415710000000  0.5015230000000  0.5243190000000 1.0
C      1  0.5357210000000  0.4428470000000  0.5307430000000 1.0
C      1  0.5311620000000  0.5519310000000  0.5181060000000 1.0
C      1  0.5256630000000  0.5271620000000  0.4786760000000 1.0
C      1  0.5153910000000  0.4713600000000  0.4740350000000 1.0
C      1  0.4707920000000  0.5025240000000  0.4732280000000 1.0
C      1  0.4925990000000  0.5273330000000  0.4797000000000 1.0
C      1  0.4859560000000  0.4718740000000  0.4833820000000 1.0
C      1  0.5327770000000  0.4969990000000  0.4839520000000 1.0
C      1  0.5279130000000  0.5014220000000  0.4161620000000 1.0
C      1  0.4826620000000  0.4713450000000  0.4156360000000 1.0
C      1  0.4764620000000  0.5293680000000  0.4135410000000 1.0
C      1  0.4619120000000  0.4984480000000  0.4104610000000 1.0
C      1  0.5163820000000  0.4699190000000  0.4090120000000 1.0
C      1  0.5088670000000  0.5296580000000  0.4143630000000 1.0
C      1  0.5224290000000  0.4541220000000  0.5950160000000 1.0
C      1  0.4395520000000  0.5058840000000  0.5856180000000 1.0
C      1  0.5271180000000  0.5487370000000  0.5810820000000 1.0
C      1  0.4587590000000  0.4530880000000  0.5831530000000 1.0
C      1  0.5540180000000  0.4987880000000  0.5856280000000 1.0
C      1  0.4664700000000  0.5591280000000  0.5850670000000 1.0
C      1  0.5855170000000  0.5121760000000  0.5250900000000 1.0
C      1  0.4926110000000  0.4064440000000  0.5309160000000 1.0
C      1  0.4148440000000  0.5682770000000  0.5263160000000 1.0
C      1  0.4009880000000  0.5383280000000  0.5238590000000 1.0
C      1  0.5202300000000  0.4127010000000  0.5254190000000 1.0
C      1  0.5848200000000  0.5574220000000  0.5306400000000 1.0
C      1  0.4237770000000  0.4475990000000  0.5332210000000 1.0
C      1  0.4730520000000  0.5731050000000  0.5383950000000 1.0
C      1  0.5855380000000  0.4521850000000  0.5253550000000 1.0
C      1  0.5679740000000  0.4434680000000  0.5414950000000 1.0
C      1  0.4999740000000  0.5900670000000  0.5394620000000 1.0
C      1  0.4256330000000  0.4761960000000  0.5220680000000 1.0
C      1  0.4442300000000  0.4831040000000  0.4760310000000 1.0
C      1  0.5193860000000  0.5799330000000  0.4656130000000 1.0
C      1  0.5455970000000  0.4643410000000  0.4645210000000 1.0
C      1  0.5654790000000  0.4848190000000  0.4475400000000 1.0
C      1  0.4925740000000  0.5600330000000  0.4720790000000 1.0
C      1  0.4579210000000  0.4568450000000  0.4768360000000 1.0
C      1  0.6013580000000  0.5139260000000  0.4807120000000 1.0
C      1  0.4515910000000  0.4020810000000  0.4889710000000 1.0
C      1  0.4466650000000  0.5942890000000  0.4928610000000 1.0
C      1  0.3922430000000  0.5002150000000  0.4827430000000 1.0
C      1  0.5538960000000  0.4143200000000  0.4884890000000 1.0
C      1  0.5605430000000  0.5893170000000  0.4931040000000 1.0
END
