TITL C-2622959-7779-283 -0.00120249020165974 125000 -372.267209561457 0 0 71 (C1) n - 1
REM
REM in /nfs/bkarasulu/CARBON/AIRSS/Generating-Clusters/AIREBO/with-SteepDescent/Higher-Symm/SD-CG/HFTN-CG
REM
REM
REM
REM
REM
REM ./C.cell (b20cbc046b6831c77cfcea5457e17084)
REM
REM compiler GCC version 9.2.1 20190827 (Red Hat 9.2.1-1)
REM options -cpp -mtune=generic -march=x86-64 -g -O0 -fpre-include=/usr/include/finclude/math-vector-fortran.h
REM seed -416135276 -1516850676 -2117165784 -1642425562 -2024046920 -839792684 2067762338 833540883 401529521 -1458802936 -825865651 -2012184394 -269588392 -1042484506 728466271 726147769 1581016844 428032201 809934436 416768187 770439370 -1426056503 1382196329 858798542 2010869518 -1025305963 977868792 -2057386099 1617328261 -1555462275 -656828293 -287619214 -1548898602
REM
CELL 1.54180   50.00000   50.00000   50.00000   90.00000   90.00000   90.00000
LATT -1
SFAC C  
C      1  0.4949320000000  0.5712630000000  0.5278750000000 1.0
C      1  0.5218160000000  0.5656950000000  0.5102520000000 1.0
C      1  0.5214610000000  0.5781020000000  0.4797310000000 1.0
C      1  0.4873440000000  0.5758540000000  0.4748160000000 1.0
C      1  0.4715060000000  0.5757820000000  0.5039930000000 1.0
C      1  0.4942130000000  0.4244300000000  0.5296640000000 1.0
C      1  0.5249580000000  0.4244830000000  0.5150570000000 1.0
C      1  0.5203640000000  0.4243870000000  0.4817630000000 1.0
C      1  0.4871690000000  0.4257310000000  0.4751050000000 1.0
C      1  0.4717870000000  0.4266430000000  0.5047160000000 1.0
C      1  0.5765140000000  0.4894250000000  0.5235170000000 1.0
C      1  0.5466610000000  0.4913890000000  0.4419950000000 1.0
C      1  0.4536090000000  0.4875650000000  0.4346290000000 1.0
C      1  0.4259120000000  0.4853850000000  0.5233020000000 1.0
C      1  0.4955490000000  0.4876580000000  0.5767990000000 1.0
C      1  0.5766000000000  0.5144890000000  0.5258450000000 1.0
C      1  0.5449360000000  0.5164090000000  0.4457560000000 1.0
C      1  0.4541650000000  0.5128710000000  0.4337810000000 1.0
C      1  0.4254850000000  0.5107220000000  0.5230370000000 1.0
C      1  0.4983910000000  0.5129420000000  0.5769850000000 1.0
C      1  0.5519110000000  0.4731520000000  0.5101700000000 1.0
C      1  0.5255310000000  0.4739730000000  0.4583230000000 1.0
C      1  0.4625890000000  0.4724190000000  0.4612220000000 1.0
C      1  0.4549860000000  0.4710560000000  0.5220720000000 1.0
C      1  0.5064310000000  0.4722380000000  0.5509460000000 1.0
C      1  0.5616180000000  0.5336010000000  0.5080550000000 1.0
C      1  0.5189730000000  0.5277420000000  0.4645280000000 1.0
C      1  0.4613570000000  0.5287960000000  0.4596320000000 1.0
C      1  0.4542640000000  0.5263410000000  0.5203510000000 1.0
C      1  0.5062890000000  0.5266210000000  0.5481620000000 1.0
C      1  0.5294370000000  0.4877680000000  0.4892550000000 1.0
C      1  0.4937390000000  0.4841140000000  0.4648400000000 1.0
C      1  0.4653860000000  0.4848200000000  0.4927710000000 1.0
C      1  0.4859040000000  0.4842860000000  0.5271020000000 1.0
C      1  0.5291150000000  0.4851730000000  0.5296810000000 1.0
C      1  0.5333610000000  0.5204500000000  0.4944590000000 1.0
C      1  0.4907880000000  0.5142190000000  0.4711520000000 1.0
C      1  0.4634870000000  0.5165560000000  0.4912940000000 1.0
C      1  0.4819460000000  0.5136880000000  0.5324350000000 1.0
C      1  0.5240890000000  0.5113470000000  0.5238640000000 1.0
C      1  0.5385730000000  0.5307050000000  0.5580510000000 1.0
C      1  0.5666230000000  0.5325330000000  0.4759090000000 1.0
C      1  0.5075520000000  0.5342320000000  0.4331430000000 1.0
C      1  0.4322320000000  0.5360020000000  0.4756470000000 1.0
C      1  0.4519460000000  0.5352440000000  0.5531030000000 1.0
C      1  0.5365930000000  0.4628440000000  0.5635500000000 1.0
C      1  0.5678950000000  0.4638310000000  0.4816350000000 1.0
C      1  0.5071820000000  0.4652860000000  0.4310320000000 1.0
C      1  0.4323530000000  0.4651290000000  0.4749780000000 1.0
C      1  0.4587070000000  0.4672510000000  0.5556600000000 1.0
C      1  0.5191550000000  0.4418440000000  0.5425720000000 1.0
C      1  0.5437800000000  0.4435930000000  0.4954600000000 1.0
C      1  0.5091780000000  0.4441560000000  0.4580010000000 1.0
C      1  0.4592830000000  0.4441750000000  0.4798680000000 1.0
C      1  0.4654020000000  0.4410800000000  0.5343120000000 1.0
C      1  0.5219130000000  0.5562510000000  0.5422380000000 1.0
C      1  0.5470090000000  0.5574870000000  0.4889060000000 1.0
C      1  0.5082550000000  0.5590140000000  0.4567270000000 1.0
C      1  0.4598000000000  0.5563290000000  0.4795350000000 1.0
C      1  0.4661790000000  0.5565330000000  0.5302980000000 1.0
C      1  0.5799390000000  0.4837990000000  0.4680250000000 1.0
C      1  0.4996100000000  0.4863210000000  0.4160260000000 1.0
C      1  0.4160130000000  0.4864990000000  0.4780770000000 1.0
C      1  0.4509620000000  0.4870150000000  0.5718490000000 1.0
C      1  0.5520360000000  0.4837650000000  0.5711190000000 1.0
C      1  0.5795410000000  0.5116040000000  0.4651040000000 1.0
C      1  0.5029720000000  0.5138730000000  0.4165320000000 1.0
C      1  0.4161000000000  0.5144910000000  0.4793440000000 1.0
C      1  0.4512310000000  0.5147830000000  0.5705530000000 1.0
C      1  0.5506210000000  0.5117150000000  0.5725780000000 1.0
C      1  0.4989770000000  0.4792180000000  0.4980780000000 1.0
END
