TITL C-2622964-2985-301 0.00100715578256742 125000 -822.35662744513 0 0 159 (C1) n - 1
REM
REM in /nfs/bkarasulu/CARBON/AIRSS/Generating-Clusters/AIREBO/with-SteepDescent/Higher-Symm/SD-CG/HFTN-CG
REM
REM
REM
REM
REM
REM ./C.cell (b20cbc046b6831c77cfcea5457e17084)
REM
REM compiler GCC version 9.2.1 20190827 (Red Hat 9.2.1-1)
REM options -cpp -mtune=generic -march=x86-64 -g -O0 -fpre-include=/usr/include/finclude/math-vector-fortran.h
REM seed -871646213 994598767 -228209568 1612466362 1408536880 1369125294 219834323 1170149492 -1497911832 -1705784213 -1750469357 103427130 863675461 -986728317 721791313 -1377599700 -971249745 -321145039 1062341598 -985690745 -314376770 1179503109 374231995 391048365 232678073 1773782235 -1192702079 1744351877 2052790351 -834437172 -1994237534 -2116345963 1886777890
REM
CELL 1.54180   50.00000   50.00000   50.00000   90.00000   90.00000   90.00000
LATT -1
SFAC C  
C      1  0.5873260000000  0.5335890000000  0.5566410000000 1.0
C      1  0.5831970000000  0.4496670000000  0.5540970000000 1.0
C      1  0.5769000000000  0.4418780000000  0.4747150000000 1.0
C      1  0.5845850000000  0.5115050000000  0.4249920000000 1.0
C      1  0.5800950000000  0.5695600000000  0.4883160000000 1.0
C      1  0.5697910000000  0.5587610000000  0.5427430000000 1.0
C      1  0.5677590000000  0.4734810000000  0.5728680000000 1.0
C      1  0.5662840000000  0.4216110000000  0.4987960000000 1.0
C      1  0.5685140000000  0.4854320000000  0.4303310000000 1.0
C      1  0.5656250000000  0.5574480000000  0.4598380000000 1.0
C      1  0.4232260000000  0.4649010000000  0.4396040000000 1.0
C      1  0.4190090000000  0.5441260000000  0.4440450000000 1.0
C      1  0.4167590000000  0.5651520000000  0.5207570000000 1.0
C      1  0.4257580000000  0.4970020000000  0.5608960000000 1.0
C      1  0.4124710000000  0.4371480000000  0.5173030000000 1.0
C      1  0.4358900000000  0.4118470000000  0.4815700000000 1.0
C      1  0.4330870000000  0.4705590000000  0.3870790000000 1.0
C      1  0.4409620000000  0.5839580000000  0.4640340000000 1.0
C      1  0.4359890000000  0.5663910000000  0.5656460000000 1.0
C      1  0.4358670000000  0.4499780000000  0.5804040000000 1.0
C      1  0.5340880000000  0.5615080000000  0.4684430000000 1.0
C      1  0.5376120000000  0.5500820000000  0.5500060000000 1.0
C      1  0.5399850000000  0.4747330000000  0.5889150000000 1.0
C      1  0.5327420000000  0.4210550000000  0.5049850000000 1.0
C      1  0.5357400000000  0.4807940000000  0.4247290000000 1.0
C      1  0.4817500000000  0.4923220000000  0.4047350000000 1.0
C      1  0.4971070000000  0.5832060000000  0.4679960000000 1.0
C      1  0.4816480000000  0.5423080000000  0.5698510000000 1.0
C      1  0.4932670000000  0.4549820000000  0.5732210000000 1.0
C      1  0.4893200000000  0.4226940000000  0.4820270000000 1.0
C      1  0.4579930000000  0.4090020000000  0.5025990000000 1.0
C      1  0.4451910000000  0.4733250000000  0.4149560000000 1.0
C      1  0.4649670000000  0.5713260000000  0.4476060000000 1.0
C      1  0.4446300000000  0.5887880000000  0.5506980000000 1.0
C      1  0.4596430000000  0.4678270000000  0.5895090000000 1.0
C      1  0.5342130000000  0.4581320000000  0.4583570000000 1.0
C      1  0.5353890000000  0.5111050000000  0.4401480000000 1.0
C      1  0.5317540000000  0.5647180000000  0.5022860000000 1.0
C      1  0.5343510000000  0.5225660000000  0.5668200000000 1.0
C      1  0.5406450000000  0.4464250000000  0.5368680000000 1.0
C      1  0.4209500000000  0.4906590000000  0.5277770000000 1.0
C      1  0.4177180000000  0.4757720000000  0.4975810000000 1.0
C      1  0.4221950000000  0.4959210000000  0.4746850000000 1.0
C      1  0.4203490000000  0.5224170000000  0.4867310000000 1.0
C      1  0.4193210000000  0.5199150000000  0.5172390000000 1.0
C      1  0.4704520000000  0.5259070000000  0.4617910000000 1.0
C      1  0.4644330000000  0.5410790000000  0.5151140000000 1.0
C      1  0.4660350000000  0.4981870000000  0.5487980000000 1.0
C      1  0.4638860000000  0.4544300000000  0.5147990000000 1.0
C      1  0.4620310000000  0.4681130000000  0.4595430000000 1.0
C      1  0.4634800000000  0.4176920000000  0.4675700000000 1.0
C      1  0.4748060000000  0.5230270000000  0.3990350000000 1.0
C      1  0.4684580000000  0.5785940000000  0.4807740000000 1.0
C      1  0.4541340000000  0.5560040000000  0.5827470000000 1.0
C      1  0.4655930000000  0.4414470000000  0.5669910000000 1.0
C      1  0.5360260000000  0.4609040000000  0.6183690000000 1.0
C      1  0.5297050000000  0.3879260000000  0.5085980000000 1.0
C      1  0.5230120000000  0.4661920000000  0.3985480000000 1.0
C      1  0.5279030000000  0.5948980000000  0.4245310000000 1.0
C      1  0.5205310000000  0.5737130000000  0.5612560000000 1.0
C      1  0.4030480000000  0.4574570000000  0.4651880000000 1.0
C      1  0.4173500000000  0.5157720000000  0.4405070000000 1.0
C      1  0.4065100000000  0.5587910000000  0.4957120000000 1.0
C      1  0.4021140000000  0.5177390000000  0.5530700000000 1.0
C      1  0.3997170000000  0.4572310000000  0.5327930000000 1.0
C      1  0.4931770000000  0.5718670000000  0.5581490000000 1.0
C      1  0.5096590000000  0.4646500000000  0.6006260000000 1.0
C      1  0.5032080000000  0.4043890000000  0.5024330000000 1.0
C      1  0.4951710000000  0.4650190000000  0.3946640000000 1.0
C      1  0.5155650000000  0.5745750000000  0.4429710000000 1.0
C      1  0.4906050000000  0.4507630000000  0.4950560000000 1.0
C      1  0.4810240000000  0.4846710000000  0.4362200000000 1.0
C      1  0.4935760000000  0.5494440000000  0.4700280000000 1.0
C      1  0.4890880000000  0.5340730000000  0.5374990000000 1.0
C      1  0.4949510000000  0.4818890000000  0.5577150000000 1.0
C      1  0.5131890000000  0.5311450000000  0.4909240000000 1.0
C      1  0.4886800000000  0.5039060000000  0.5251630000000 1.0
C      1  0.5086200000000  0.4787170000000  0.5290260000000 1.0
C      1  0.4920700000000  0.4729380000000  0.4727810000000 1.0
C      1  0.4948930000000  0.5066770000000  0.4759930000000 1.0
C      1  0.4427540000000  0.5077660000000  0.5798510000000 1.0
C      1  0.4312250000000  0.4226550000000  0.5317660000000 1.0
C      1  0.4342780000000  0.4380740000000  0.4302320000000 1.0
C      1  0.4379850000000  0.5523350000000  0.4251790000000 1.0
C      1  0.4382300000000  0.5836760000000  0.5222520000000 1.0
C      1  0.5417530000000  0.4808290000000  0.5297640000000 1.0
C      1  0.5383310000000  0.4640400000000  0.4897290000000 1.0
C      1  0.5259420000000  0.4957220000000  0.4689680000000 1.0
C      1  0.5452630000000  0.5266020000000  0.4843660000000 1.0
C      1  0.5462270000000  0.5199580000000  0.5235880000000 1.0
C      1  0.4645590000000  0.5720470000000  0.5088920000000 1.0
C      1  0.4723370000000  0.5109760000000  0.5796650000000 1.0
C      1  0.4619330000000  0.4305580000000  0.5376030000000 1.0
C      1  0.4603880000000  0.4374390000000  0.4449620000000 1.0
C      1  0.4648650000000  0.5335140000000  0.4288620000000 1.0
C      1  0.5088240000000  0.4711340000000  0.4432310000000 1.0
C      1  0.5182420000000  0.5363320000000  0.4519720000000 1.0
C      1  0.5191910000000  0.5405810000000  0.5230390000000 1.0
C      1  0.5161910000000  0.4952940000000  0.5759350000000 1.0
C      1  0.5183830000000  0.4511820000000  0.5116130000000 1.0
C      1  0.5122620000000  0.6034510000000  0.4848330000000 1.0
C      1  0.5029970000000  0.5482110000000  0.5946260000000 1.0
C      1  0.5175200000000  0.4343700000000  0.5764290000000 1.0
C      1  0.5134430000000  0.4142140000000  0.4638450000000 1.0
C      1  0.5105770000000  0.5055410000000  0.3955790000000 1.0
C      1  0.3915170000000  0.4859010000000  0.5441530000000 1.0
C      1  0.3902670000000  0.4614150000000  0.4944710000000 1.0
C      1  0.4029440000000  0.4882510000000  0.4493470000000 1.0
C      1  0.3892750000000  0.5352620000000  0.4963180000000 1.0
C      1  0.3864360000000  0.5245080000000  0.5245780000000 1.0
C      1  0.5503530000000  0.4966930000000  0.5557800000000 1.0
C      1  0.5605730000000  0.4520490000000  0.5097510000000 1.0
C      1  0.5558000000000  0.4826460000000  0.4592790000000 1.0
C      1  0.5626610000000  0.5237730000000  0.4560360000000 1.0
C      1  0.5571520000000  0.5492020000000  0.5150950000000 1.0
C      1  0.5231000000000  0.5234750000000  0.4115000000000 1.0
C      1  0.5203660000000  0.5922130000000  0.5082040000000 1.0
C      1  0.5218530000000  0.5288260000000  0.5963270000000 1.0
C      1  0.5268750000000  0.4252430000000  0.5529670000000 1.0
C      1  0.5195890000000  0.4327810000000  0.4452970000000 1.0
C      1  0.4208890000000  0.4376240000000  0.4863220000000 1.0
C      1  0.4471350000000  0.5044850000000  0.4285740000000 1.0
C      1  0.4250890000000  0.5585840000000  0.4711490000000 1.0
C      1  0.4217730000000  0.5449910000000  0.5476840000000 1.0
C      1  0.4222140000000  0.4640000000000  0.5572380000000 1.0
C      1  0.6048940000000  0.5468280000000  0.4747390000000 1.0
C      1  0.6119020000000  0.5282320000000  0.5344770000000 1.0
C      1  0.5935390000000  0.4746780000000  0.5424170000000 1.0
C      1  0.6055760000000  0.4592190000000  0.4689680000000 1.0
C      1  0.6098360000000  0.5093410000000  0.4419450000000 1.0
C      1  0.4457220000000  0.4597940000000  0.4884050000000 1.0
C      1  0.4495540000000  0.4990790000000  0.4613610000000 1.0
C      1  0.4489920000000  0.5386680000000  0.4849070000000 1.0
C      1  0.4464960000000  0.5238610000000  0.5373210000000 1.0
C      1  0.4483400000000  0.4729500000000  0.5373910000000 1.0
C      1  0.4879910000000  0.5583200000000  0.4314880000000 1.0
C      1  0.4748570000000  0.5871190000000  0.5375860000000 1.0
C      1  0.4840480000000  0.4861260000000  0.5978280000000 1.0
C      1  0.4815300000000  0.4065470000000  0.5262450000000 1.0
C      1  0.4741310000000  0.4562180000000  0.4201650000000 1.0
C      1  0.5111020000000  0.4065320000000  0.5413600000000 1.0
C      1  0.5013370000000  0.4363970000000  0.4250590000000 1.0
C      1  0.5128540000000  0.5484700000000  0.4129320000000 1.0
C      1  0.5051060000000  0.5974180000000  0.5298870000000 1.0
C      1  0.5110790000000  0.5034300000000  0.6090620000000 1.0
C      1  0.5778810000000  0.4759090000000  0.4794880000000 1.0
C      1  0.5914150000000  0.5101320000000  0.4643280000000 1.0
C      1  0.5772750000000  0.5357940000000  0.4912210000000 1.0
C      1  0.5801350000000  0.5188470000000  0.5270860000000 1.0
C      1  0.5740100000000  0.4804410000000  0.5189550000000 1.0
C      1  0.5825070000000  0.4574870000000  0.4440750000000 1.0
C      1  0.5733040000000  0.5422840000000  0.4295700000000 1.0
C      1  0.5824890000000  0.5793260000000  0.5186880000000 1.0
C      1  0.5793960000000  0.5053110000000  0.5690630000000 1.0
C      1  0.5781480000000  0.4315560000000  0.5304310000000 1.0
C      1  0.6190430000000  0.4996070000000  0.5034010000000 1.0
C      1  0.5407360000000  0.4965050000000  0.4995810000000 1.0
C      1  0.4767780000000  0.5041740000000  0.5001670000000 1.0
C      1  0.5864000000000  0.5035860000000  0.4973320000000 1.0
END
