TITL C-2622958-629-395 0.00095667436019557 125000 -200.635458571791 0 0 36 (C1) n - 1
REM
REM in /nfs/bkarasulu/CARBON/AIRSS/Generating-Clusters/AIREBO/with-SteepDescent/Higher-Symm/SD-CG/HFTN-CG
REM
REM
REM
REM
REM
REM ./C.cell (b20cbc046b6831c77cfcea5457e17084)
REM
REM compiler GCC version 9.2.1 20190827 (Red Hat 9.2.1-1)
REM options -cpp -mtune=generic -march=x86-64 -g -O0 -fpre-include=/usr/include/finclude/math-vector-fortran.h
REM seed 1065688038 -1975366337 894036676 -1531550504 -808081188 465010168 -1671197696 343496382 878190382 -989486903 961973577 -189291579 -988638218 403792173 -1423491190 -1151203617 802492523 -384536467 43761316 -1098841085 -512420992 136766817 -545153366 -715032393 1130466116 516651077 -827096035 1256509613 -1703932415 -1819903285 -715706861 -153182716 1012017622
REM
CELL 1.54180   50.00000   50.00000   50.00000   90.00000   90.00000   90.00000
LATT -1
SFAC C  
C      1  0.5325080000000  0.4797920000000  0.5417620000000 1.0
C      1  0.4674890000000  0.4839010000000  0.4682380000000 1.0
C      1  0.5300450000000  0.4842760000000  0.4628260000000 1.0
C      1  0.4693810000000  0.4838220000000  0.5323940000000 1.0
C      1  0.5182680000000  0.4445300000000  0.4935740000000 1.0
C      1  0.4810750000000  0.4422020000000  0.5074220000000 1.0
C      1  0.5080850000000  0.4409390000000  0.5236340000000 1.0
C      1  0.4913720000000  0.4413700000000  0.4780350000000 1.0
C      1  0.4711130000000  0.5533770000000  0.5185190000000 1.0
C      1  0.5086310000000  0.5670940000000  0.4861880000000 1.0
C      1  0.4803480000000  0.5552330000000  0.4922860000000 1.0
C      1  0.5291340000000  0.5653840000000  0.5092540000000 1.0
C      1  0.5145830000000  0.5096470000000  0.4717760000000 1.0
C      1  0.4898960000000  0.5029750000000  0.5151460000000 1.0
C      1  0.5207010000000  0.5044880000000  0.5215040000000 1.0
C      1  0.4844560000000  0.5057020000000  0.4833450000000 1.0
C      1  0.4870270000000  0.4695610000000  0.5539120000000 1.0
C      1  0.5083530000000  0.4696940000000  0.4453810000000 1.0
C      1  0.4864350000000  0.4615590000000  0.4593080000000 1.0
C      1  0.5105020000000  0.4595200000000  0.5444990000000 1.0
C      1  0.5413650000000  0.4813690000000  0.5104580000000 1.0
C      1  0.4489410000000  0.4711900000000  0.4900350000000 1.0
C      1  0.5340390000000  0.4671420000000  0.4880580000000 1.0
C      1  0.4618120000000  0.4620670000000  0.5122310000000 1.0
C      1  0.4527890000000  0.4948210000000  0.4466520000000 1.0
C      1  0.5486140000000  0.4843600000000  0.5636590000000 1.0
C      1  0.4472600000000  0.4975180000000  0.5431630000000 1.0
C      1  0.5537400000000  0.4896460000000  0.4485800000000 1.0
C      1  0.4918610000000  0.5509320000000  0.5430020000000 1.0
C      1  0.5135100000000  0.5533450000000  0.4566940000000 1.0
C      1  0.4888810000000  0.5418650000000  0.4486660000000 1.0
C      1  0.5188980000000  0.5534750000000  0.5369440000000 1.0
C      1  0.5304350000000  0.5315700000000  0.5144770000000 1.0
C      1  0.4756470000000  0.5343750000000  0.4734330000000 1.0
C      1  0.5276760000000  0.5363080000000  0.4820890000000 1.0
C      1  0.4751310000000  0.5249500000000  0.5328550000000 1.0
END
