TITL C-2622959-7779-234 -0.00294304309933213 125000 -470.533631232825 0 0 84 (C1) n - 1
REM
REM in /nfs/bkarasulu/CARBON/AIRSS/Generating-Clusters/AIREBO/with-SteepDescent/Higher-Symm/SD-CG/HFTN-CG
REM
REM
REM
REM
REM
REM ./C.cell (b20cbc046b6831c77cfcea5457e17084)
REM
REM compiler GCC version 9.2.1 20190827 (Red Hat 9.2.1-1)
REM options -cpp -mtune=generic -march=x86-64 -g -O0 -fpre-include=/usr/include/finclude/math-vector-fortran.h
REM seed 769391060 -700665447 2118619296 -983409085 952551650 -647765004 275471470 319206280 352038348 587495910 -911436683 1448223174 -2009966864 -697367412 -391062316 -942298114 1943664614 146519417 1405466483 -349259017 59455923 -1207817919 1076343209 -1844111756 -793153810 -661910903 -1029030301 771188754 -804198462 -1255388976 -1930913324 -895583848 1738805175
REM
CELL 1.54180   50.00000   50.00000   50.00000   90.00000   90.00000   90.00000
LATT -1
SFAC C  
C      1  0.5474450000000  0.4599240000000  0.4581460000000 1.0
C      1  0.5479360000000  0.5516310000000  0.5382750000000 1.0
C      1  0.4467950000000  0.4439610000000  0.4578000000000 1.0
C      1  0.4507770000000  0.5480110000000  0.5403980000000 1.0
C      1  0.5531910000000  0.5495420000000  0.4636320000000 1.0
C      1  0.5434460000000  0.4519030000000  0.5396830000000 1.0
C      1  0.4529110000000  0.5459150000000  0.4659060000000 1.0
C      1  0.4496350000000  0.4505840000000  0.5426230000000 1.0
C      1  0.5098700000000  0.5220330000000  0.4246680000000 1.0
C      1  0.5110850000000  0.4671090000000  0.5720760000000 1.0
C      1  0.4801510000000  0.5285330000000  0.4214550000000 1.0
C      1  0.4800900000000  0.4660810000000  0.5795880000000 1.0
C      1  0.5108460000000  0.4628770000000  0.4144440000000 1.0
C      1  0.5158580000000  0.5239690000000  0.5753250000000 1.0
C      1  0.4812280000000  0.4646150000000  0.4179450000000 1.0
C      1  0.4848420000000  0.5292900000000  0.5718400000000 1.0
C      1  0.4873820000000  0.5678420000000  0.5129990000000 1.0
C      1  0.4887950000000  0.4297940000000  0.4882330000000 1.0
C      1  0.5198400000000  0.5748770000000  0.5092790000000 1.0
C      1  0.5204400000000  0.4209580000000  0.4794420000000 1.0
C      1  0.4793360000000  0.4368190000000  0.5196410000000 1.0
C      1  0.4857440000000  0.5796850000000  0.4811690000000 1.0
C      1  0.5246030000000  0.4393900000000  0.5067260000000 1.0
C      1  0.5191590000000  0.5843800000000  0.4769030000000 1.0
C      1  0.4860480000000  0.4888670000000  0.4918120000000 1.0
C      1  0.4887500000000  0.5343310000000  0.5120660000000 1.0
C      1  0.5190770000000  0.4854390000000  0.4841750000000 1.0
C      1  0.5204050000000  0.5408830000000  0.5101630000000 1.0
C      1  0.4976310000000  0.5190080000000  0.4856380000000 1.0
C      1  0.4831160000000  0.4683480000000  0.5171090000000 1.0
C      1  0.5302750000000  0.5242560000000  0.4844390000000 1.0
C      1  0.5146620000000  0.4672490000000  0.5093550000000 1.0
C      1  0.4532260000000  0.5639350000000  0.5167330000000 1.0
C      1  0.4564450000000  0.4338170000000  0.4874500000000 1.0
C      1  0.5517470000000  0.5654950000000  0.5135000000000 1.0
C      1  0.5519130000000  0.4338380000000  0.4787850000000 1.0
C      1  0.4461360000000  0.4287280000000  0.5177690000000 1.0
C      1  0.4578430000000  0.5640250000000  0.4865310000000 1.0
C      1  0.5566890000000  0.4358070000000  0.5128200000000 1.0
C      1  0.5488870000000  0.5691020000000  0.4832070000000 1.0
C      1  0.5322230000000  0.5574340000000  0.4422230000000 1.0
C      1  0.5188280000000  0.4418290000000  0.5543270000000 1.0
C      1  0.4726370000000  0.5534210000000  0.4411920000000 1.0
C      1  0.4701670000000  0.4414210000000  0.5622110000000 1.0
C      1  0.5218670000000  0.4549890000000  0.4419780000000 1.0
C      1  0.5205370000000  0.5616740000000  0.5515630000000 1.0
C      1  0.4716240000000  0.4421700000000  0.4387110000000 1.0
C      1  0.4720820000000  0.5551860000000  0.5588610000000 1.0
C      1  0.5236640000000  0.4818740000000  0.4000330000000 1.0
C      1  0.5290380000000  0.5085170000000  0.5921660000000 1.0
C      1  0.4664100000000  0.4844620000000  0.4023630000000 1.0
C      1  0.4692860000000  0.5123200000000  0.5922180000000 1.0
C      1  0.5239130000000  0.5084430000000  0.4064740000000 1.0
C      1  0.5287660000000  0.4812610000000  0.5924790000000 1.0
C      1  0.4647860000000  0.5096290000000  0.4048380000000 1.0
C      1  0.4693780000000  0.4879390000000  0.5977520000000 1.0
C      1  0.4508210000000  0.4841980000000  0.5376340000000 1.0
C      1  0.4434860000000  0.5203140000000  0.4722750000000 1.0
C      1  0.5447830000000  0.4869290000000  0.5377100000000 1.0
C      1  0.5610090000000  0.5199200000000  0.4750180000000 1.0
C      1  0.4496590000000  0.5143260000000  0.5353660000000 1.0
C      1  0.4594370000000  0.4947920000000  0.4714840000000 1.0
C      1  0.5470350000000  0.5176350000000  0.5388150000000 1.0
C      1  0.5483420000000  0.4904650000000  0.4730690000000 1.0
C      1  0.5807950000000  0.5215910000000  0.4986860000000 1.0
C      1  0.5654010000000  0.4681350000000  0.5187450000000 1.0
C      1  0.4226180000000  0.5199180000000  0.4911980000000 1.0
C      1  0.4409140000000  0.4637450000000  0.5123440000000 1.0
C      1  0.5647150000000  0.4652350000000  0.4872380000000 1.0
C      1  0.5737930000000  0.5255490000000  0.5224480000000 1.0
C      1  0.4484370000000  0.4668560000000  0.4820840000000 1.0
C      1  0.4244010000000  0.5236440000000  0.5181730000000 1.0
C      1  0.5043750000000  0.4741820000000  0.4595680000000 1.0
C      1  0.5150500000000  0.5295680000000  0.5417940000000 1.0
C      1  0.4760660000000  0.4723590000000  0.4537140000000 1.0
C      1  0.4807950000000  0.5218240000000  0.5389160000000 1.0
C      1  0.5197790000000  0.5298060000000  0.4541800000000 1.0
C      1  0.5138720000000  0.4787260000000  0.5402240000000 1.0
C      1  0.4874290000000  0.5280750000000  0.4570950000000 1.0
C      1  0.4807490000000  0.4772050000000  0.5482830000000 1.0
C      1  0.4935690000000  0.4293030000000  0.5473380000000 1.0
C      1  0.4927250000000  0.5701270000000  0.5458390000000 1.0
C      1  0.4989930000000  0.4347890000000  0.4569730000000 1.0
C      1  0.5014890000000  0.5653650000000  0.4546540000000 1.0
END
