TITL C-2622964-2985-470 -0.00423114089342842 125000 -178.320564170069 0 0 34 (C1) n - 1
REM
REM in /nfs/bkarasulu/CARBON/AIRSS/Generating-Clusters/AIREBO/with-SteepDescent/Higher-Symm/SD-CG/HFTN-CG
REM
REM
REM
REM
REM
REM ./C.cell (b20cbc046b6831c77cfcea5457e17084)
REM
REM compiler GCC version 9.2.1 20190827 (Red Hat 9.2.1-1)
REM options -cpp -mtune=generic -march=x86-64 -g -O0 -fpre-include=/usr/include/finclude/math-vector-fortran.h
REM seed 2114225442 229774268 1903300830 113332728 1218788994 1797642974 -1914961155 -2073978105 -607583776 963182368 -1591748284 -289374271 -424821399 -1715372387 1972148585 -835202935 920757990 -876647802 44107692 2121038210 2057389616 1802401200 -475421645 -1109421550 -1634562409 -758115344 1237498038 -1275395487 -487181776 -523066229 -1763525462 607805367 -2069820336
REM
CELL 1.54180   50.00000   50.00000   50.00000   90.00000   90.00000   90.00000
LATT -1
SFAC C  
C      1  0.4539550000000  0.4953100000000  0.5262630000000 1.0
C      1  0.4983600000000  0.4954370000000  0.4775260000000 1.0
C      1  0.5345190000000  0.4923090000000  0.5197120000000 1.0
C      1  0.4538680000000  0.4953600000000  0.4704710000000 1.0
C      1  0.5004190000000  0.4979080000000  0.5397910000000 1.0
C      1  0.5440160000000  0.4961780000000  0.4707810000000 1.0
C      1  0.5290370000000  0.5251460000000  0.5128030000000 1.0
C      1  0.4684980000000  0.5193750000000  0.5133610000000 1.0
C      1  0.4970870000000  0.5273370000000  0.4686660000000 1.0
C      1  0.5278180000000  0.5222300000000  0.4784800000000 1.0
C      1  0.4672710000000  0.5197940000000  0.4833950000000 1.0
C      1  0.4993960000000  0.5280920000000  0.5251900000000 1.0
C      1  0.5040790000000  0.4684240000000  0.4576800000000 1.0
C      1  0.5388740000000  0.4609690000000  0.5293320000000 1.0
C      1  0.4585870000000  0.4708800000000  0.5135260000000 1.0
C      1  0.5071850000000  0.4671560000000  0.5342170000000 1.0
C      1  0.5300730000000  0.4714320000000  0.4746920000000 1.0
C      1  0.4590780000000  0.4706790000000  0.4840070000000 1.0
C      1  0.4892320000000  0.5570430000000  0.5391360000000 1.0
C      1  0.4633990000000  0.5486610000000  0.4689440000000 1.0
C      1  0.5448410000000  0.5493150000000  0.4853190000000 1.0
C      1  0.4859270000000  0.5556530000000  0.4544380000000 1.0
C      1  0.4652010000000  0.5483060000000  0.5283290000000 1.0
C      1  0.5484500000000  0.5526470000000  0.5126240000000 1.0
C      1  0.4545790000000  0.4959840000000  0.5545360000000 1.0
C      1  0.4893740000000  0.4940380000000  0.4441600000000 1.0
C      1  0.5649370000000  0.5012870000000  0.5114160000000 1.0
C      1  0.4617410000000  0.4951250000000  0.4427530000000 1.0
C      1  0.4805740000000  0.4973140000000  0.5638450000000 1.0
C      1  0.5691570000000  0.4977240000000  0.4841940000000 1.0
C      1  0.4898730000000  0.4573180000000  0.5083020000000 1.0
C      1  0.4824700000000  0.4540220000000  0.4752790000000 1.0
C      1  0.5237660000000  0.4595930000000  0.4995790000000 1.0
C      1  0.5048290000000  0.4942990000000  0.5062500000000 1.0
END
