TITL C-2622960-5345-229 0.000679136802349674 125000 -654.677824603104 0 0 119 (C1) n - 1
REM
REM in /nfs/bkarasulu/CARBON/AIRSS/Generating-Clusters/AIREBO/with-SteepDescent/Higher-Symm/SD-CG/HFTN-CG
REM
REM
REM
REM
REM
REM ./C.cell (b20cbc046b6831c77cfcea5457e17084)
REM
REM compiler GCC version 9.2.1 20190827 (Red Hat 9.2.1-1)
REM options -cpp -mtune=generic -march=x86-64 -g -O0 -fpre-include=/usr/include/finclude/math-vector-fortran.h
REM seed 1971779571 2104863916 -12982000 692198547 2087406833 1673049415 -1669514041 -364750061 1331768707 873974951 7669314 -2064927968 -256247555 -743389355 -650606428 -2077666214 -433353358 -487659852 1420172501 -1455684451 -1908921465 1366137031 428743947 -1668338089 -462336613 -1141157888 -1469291345 -455912839 10942460 -469977684 -372785779 1894148176 -432010381
REM
CELL 1.54180   50.00000   50.00000   50.00000   90.00000   90.00000   90.00000
LATT -1
SFAC C  
C      1  0.5200690000000  0.4805580000000  0.5596740000000 1.0
C      1  0.5581930000000  0.4920670000000  0.5097750000000 1.0
C      1  0.5275600000000  0.4894820000000  0.4528250000000 1.0
C      1  0.4606310000000  0.4980940000000  0.4586330000000 1.0
C      1  0.4540910000000  0.4883880000000  0.5333740000000 1.0
C      1  0.5238880000000  0.5017130000000  0.5837090000000 1.0
C      1  0.5877130000000  0.5081940000000  0.5118440000000 1.0
C      1  0.5355060000000  0.4998110000000  0.4223890000000 1.0
C      1  0.4329140000000  0.5045650000000  0.4408030000000 1.0
C      1  0.4357590000000  0.5092930000000  0.5529640000000 1.0
C      1  0.5230430000000  0.4251950000000  0.5059530000000 1.0
C      1  0.5161400000000  0.4244370000000  0.4666580000000 1.0
C      1  0.4668750000000  0.4394340000000  0.4729690000000 1.0
C      1  0.4691400000000  0.4261450000000  0.5163400000000 1.0
C      1  0.5090030000000  0.4196100000000  0.5530970000000 1.0
C      1  0.5185480000000  0.5911620000000  0.4785480000000 1.0
C      1  0.4901100000000  0.5961460000000  0.4684580000000 1.0
C      1  0.4711290000000  0.6035430000000  0.4871760000000 1.0
C      1  0.4819750000000  0.6040990000000  0.5165610000000 1.0
C      1  0.5105530000000  0.5890930000000  0.5094560000000 1.0
C      1  0.4264300000000  0.4058220000000  0.4926670000000 1.0
C      1  0.4867050000000  0.3990700000000  0.5533010000000 1.0
C      1  0.5530210000000  0.3977130000000  0.5382560000000 1.0
C      1  0.5512190000000  0.3835130000000  0.4819050000000 1.0
C      1  0.4715380000000  0.4125320000000  0.4527040000000 1.0
C      1  0.4412710000000  0.4490020000000  0.4527400000000 1.0
C      1  0.4602180000000  0.4494160000000  0.5394740000000 1.0
C      1  0.5337090000000  0.4427680000000  0.5574770000000 1.0
C      1  0.5658620000000  0.4493530000000  0.4875900000000 1.0
C      1  0.5158810000000  0.4452790000000  0.4395020000000 1.0
C      1  0.4597510000000  0.4637810000000  0.5702950000000 1.0
C      1  0.5578990000000  0.4609350000000  0.5647750000000 1.0
C      1  0.5838650000000  0.4647210000000  0.4719180000000 1.0
C      1  0.5023820000000  0.4641640000000  0.4139900000000 1.0
C      1  0.4191160000000  0.4611300000000  0.4678740000000 1.0
C      1  0.5352160000000  0.5283390000000  0.5657280000000 1.0
C      1  0.5821650000000  0.5294630000000  0.4857620000000 1.0
C      1  0.5150210000000  0.5231070000000  0.4301900000000 1.0
C      1  0.4295270000000  0.5242280000000  0.4658520000000 1.0
C      1  0.4459130000000  0.5378450000000  0.5609720000000 1.0
C      1  0.5367140000000  0.4778860000000  0.4897850000000 1.0
C      1  0.4996420000000  0.4823290000000  0.4702310000000 1.0
C      1  0.4678320000000  0.4727000000000  0.4800800000000 1.0
C      1  0.4852240000000  0.4804460000000  0.5403390000000 1.0
C      1  0.5171220000000  0.4779350000000  0.5286660000000 1.0
C      1  0.5789760000000  0.4975390000000  0.5430990000000 1.0
C      1  0.5644290000000  0.4947600000000  0.4367440000000 1.0
C      1  0.4523750000000  0.5090270000000  0.4169910000000 1.0
C      1  0.4091940000000  0.4998720000000  0.5389710000000 1.0
C      1  0.4915650000000  0.4958600000000  0.5875520000000 1.0
C      1  0.4941460000000  0.4476270000000  0.5408320000000 1.0
C      1  0.5326280000000  0.4499980000000  0.5242700000000 1.0
C      1  0.5367760000000  0.4503230000000  0.4744100000000 1.0
C      1  0.4913170000000  0.4641830000000  0.4461410000000 1.0
C      1  0.4379950000000  0.4604640000000  0.4908890000000 1.0
C      1  0.5700840000000  0.5566090000000  0.4977830000000 1.0
C      1  0.5283460000000  0.5518160000000  0.4275400000000 1.0
C      1  0.4410730000000  0.5528860000000  0.4555290000000 1.0
C      1  0.4414460000000  0.5550810000000  0.5363100000000 1.0
C      1  0.5131520000000  0.5527290000000  0.5712880000000 1.0
C      1  0.5281030000000  0.5066310000000  0.5160100000000 1.0
C      1  0.5390700000000  0.5096020000000  0.4777200000000 1.0
C      1  0.4890410000000  0.5145250000000  0.4675360000000 1.0
C      1  0.4540480000000  0.4955560000000  0.5011620000000 1.0
C      1  0.4845320000000  0.5133020000000  0.5400040000000 1.0
C      1  0.4498970000000  0.4901930000000  0.5730710000000 1.0
C      1  0.5528070000000  0.4839390000000  0.5816330000000 1.0
C      1  0.5874740000000  0.4907610000000  0.4825870000000 1.0
C      1  0.5247250000000  0.4789350000000  0.4020700000000 1.0
C      1  0.4129680000000  0.4886420000000  0.4625690000000 1.0
C      1  0.4712360000000  0.3997060000000  0.5333470000000 1.0
C      1  0.5313930000000  0.4110910000000  0.5332150000000 1.0
C      1  0.5359210000000  0.4037350000000  0.4840900000000 1.0
C      1  0.4955390000000  0.4044600000000  0.4513050000000 1.0
C      1  0.4467590000000  0.4216450000000  0.4938270000000 1.0
C      1  0.4491830000000  0.5875510000000  0.5000560000000 1.0
C      1  0.4843750000000  0.5806600000000  0.5404580000000 1.0
C      1  0.5329760000000  0.5782480000000  0.5276480000000 1.0
C      1  0.5279910000000  0.5607530000000  0.4664360000000 1.0
C      1  0.4855970000000  0.5746440000000  0.4489940000000 1.0
C      1  0.4610660000000  0.5521650000000  0.5859150000000 1.0
C      1  0.5592480000000  0.5475030000000  0.5531930000000 1.0
C      1  0.5758730000000  0.5493650000000  0.4588950000000 1.0
C      1  0.4774430000000  0.5701000000000  0.4162070000000 1.0
C      1  0.4274930000000  0.5440390000000  0.4916590000000 1.0
C      1  0.4777500000000  0.5464370000000  0.4641090000000 1.0
C      1  0.4677030000000  0.5209050000000  0.5145130000000 1.0
C      1  0.5148110000000  0.5202160000000  0.5412400000000 1.0
C      1  0.5461740000000  0.5321300000000  0.5026180000000 1.0
C      1  0.5181850000000  0.5310000000000  0.4615350000000 1.0
C      1  0.4528800000000  0.5793170000000  0.5282350000000 1.0
C      1  0.5119360000000  0.5720810000000  0.5503960000000 1.0
C      1  0.5426340000000  0.5725250000000  0.4930030000000 1.0
C      1  0.5087760000000  0.5710750000000  0.4246670000000 1.0
C      1  0.4340420000000  0.5717190000000  0.4813610000000 1.0
C      1  0.5066800000000  0.4552310000000  0.5709800000000 1.0
C      1  0.5610080000000  0.4594960000000  0.5156460000000 1.0
C      1  0.5436600000000  0.4615160000000  0.4445180000000 1.0
C      1  0.4604850000000  0.4693560000000  0.4404620000000 1.0
C      1  0.4360850000000  0.4620700000000  0.5215700000000 1.0
C      1  0.5532770000000  0.5549470000000  0.5268110000000 1.0
C      1  0.5524250000000  0.5552760000000  0.4462990000000 1.0
C      1  0.4649100000000  0.5447830000000  0.4326670000000 1.0
C      1  0.4410380000000  0.5375170000000  0.5147360000000 1.0
C      1  0.4891930000000  0.5440060000000  0.5818630000000 1.0
C      1  0.4775510000000  0.4871960000000  0.4169910000000 1.0
C      1  0.4154410000000  0.4863040000000  0.5153870000000 1.0
C      1  0.4838550000000  0.4667080000000  0.5855740000000 1.0
C      1  0.5737850000000  0.4689670000000  0.5424510000000 1.0
C      1  0.5744910000000  0.4664790000000  0.4439780000000 1.0
C      1  0.4248350000000  0.5035190000000  0.4908390000000 1.0
C      1  0.4709390000000  0.5167790000000  0.5703930000000 1.0
C      1  0.5620450000000  0.5074950000000  0.5642930000000 1.0
C      1  0.5686660000000  0.5102410000000  0.4628180000000 1.0
C      1  0.4848560000000  0.5192440000000  0.4223080000000 1.0
C      1  0.4829390000000  0.5423790000000  0.4955670000000 1.0
C      1  0.4932790000000  0.4301320000000  0.4927220000000 1.0
C      1  0.5037350000000  0.5166030000000  0.4981280000000 1.0
C      1  0.4856640000000  0.5682810000000  0.5087910000000 1.0
END
