TITL C-2622965-4321-663 0.000852026731869989 125000 -856.857365615716 0 0 155 (C1) n - 1
REM
REM in /nfs/bkarasulu/CARBON/AIRSS/Generating-Clusters/AIREBO/with-SteepDescent/Higher-Symm/SD-CG/HFTN-CG
REM
REM
REM
REM
REM
REM ./C.cell (b20cbc046b6831c77cfcea5457e17084)
REM
REM compiler GCC version 9.2.1 20190827 (Red Hat 9.2.1-1)
REM options -cpp -mtune=generic -march=x86-64 -g -O0 -fpre-include=/usr/include/finclude/math-vector-fortran.h
REM seed 16847254 1200962789 351166942 1054692472 -119119388 -258813985 -404454852 -34022890 -1282142210 -468005660 -320142549 2046776092 -1455873371 -162321415 753198550 -1232489368 479618557 692438880 472030545 201138656 1016182485 1191861172 -1333175358 -918666074 496738852 1664457205 781138086 -1414487692 -160216567 -768662321 1296731865 -1034718905 58209068
REM
CELL 1.54180   50.00000   50.00000   50.00000   90.00000   90.00000   90.00000
LATT -1
SFAC C  
C      1  0.5324380000000  0.5635000000000  0.5390950000000 1.0
C      1  0.5737640000000  0.4791000000000  0.5487750000000 1.0
C      1  0.5118050000000  0.4249810000000  0.5460480000000 1.0
C      1  0.4445600000000  0.4725830000000  0.5415870000000 1.0
C      1  0.4462520000000  0.5561250000000  0.5469090000000 1.0
C      1  0.5309050000000  0.5656870000000  0.4570770000000 1.0
C      1  0.5722700000000  0.4891960000000  0.4575410000000 1.0
C      1  0.5123090000000  0.4263880000000  0.4506010000000 1.0
C      1  0.4320940000000  0.4725130000000  0.4584980000000 1.0
C      1  0.4437640000000  0.5546340000000  0.4521450000000 1.0
C      1  0.5584280000000  0.5428000000000  0.4265210000000 1.0
C      1  0.5600050000000  0.4583000000000  0.4254910000000 1.0
C      1  0.4846960000000  0.4326140000000  0.4182930000000 1.0
C      1  0.4286150000000  0.4972200000000  0.4274570000000 1.0
C      1  0.4765500000000  0.5684330000000  0.4239110000000 1.0
C      1  0.5584340000000  0.5381200000000  0.5755340000000 1.0
C      1  0.5568350000000  0.4549550000000  0.5755620000000 1.0
C      1  0.4744650000000  0.4320150000000  0.5768510000000 1.0
C      1  0.4278820000000  0.5036630000000  0.5799690000000 1.0
C      1  0.4808210000000  0.5687080000000  0.5735740000000 1.0
C      1  0.5877510000000  0.4577700000000  0.4383330000000 1.0
C      1  0.4719570000000  0.4229630000000  0.4416530000000 1.0
C      1  0.4011440000000  0.4858260000000  0.4380230000000 1.0
C      1  0.4572050000000  0.5889040000000  0.4369520000000 1.0
C      1  0.5664630000000  0.5694700000000  0.4391860000000 1.0
C      1  0.5888350000000  0.4531110000000  0.5641430000000 1.0
C      1  0.4844840000000  0.4023920000000  0.5643690000000 1.0
C      1  0.4049190000000  0.4911540000000  0.5627990000000 1.0
C      1  0.4612490000000  0.5898570000000  0.5618390000000 1.0
C      1  0.5702280000000  0.5651220000000  0.5598260000000 1.0
C      1  0.5290980000000  0.4593710000000  0.4121920000000 1.0
C      1  0.4727390000000  0.4600710000000  0.4119120000000 1.0
C      1  0.4533910000000  0.5158750000000  0.4132410000000 1.0
C      1  0.5017800000000  0.5480240000000  0.4153100000000 1.0
C      1  0.5490510000000  0.5138250000000  0.4135670000000 1.0
C      1  0.5245560000000  0.4570790000000  0.5861020000000 1.0
C      1  0.4694810000000  0.4644000000000  0.5859310000000 1.0
C      1  0.4550700000000  0.5206760000000  0.5879800000000 1.0
C      1  0.5044350000000  0.5460240000000  0.5805590000000 1.0
C      1  0.5457400000000  0.5074260000000  0.5806240000000 1.0
C      1  0.5218730000000  0.4842520000000  0.4661060000000 1.0
C      1  0.4924620000000  0.4713450000000  0.4645480000000 1.0
C      1  0.4779990000000  0.4974760000000  0.4712230000000 1.0
C      1  0.4929590000000  0.5225060000000  0.4646250000000 1.0
C      1  0.5197070000000  0.5123490000000  0.4756930000000 1.0
C      1  0.5211630000000  0.4921670000000  0.5250190000000 1.0
C      1  0.4985470000000  0.4732940000000  0.5168270000000 1.0
C      1  0.4781990000000  0.4947380000000  0.5257350000000 1.0
C      1  0.4826500000000  0.5263030000000  0.5144430000000 1.0
C      1  0.5077420000000  0.5210450000000  0.5313430000000 1.0
C      1  0.4765690000000  0.5067680000000  0.4317110000000 1.0
C      1  0.5008380000000  0.5247270000000  0.4349710000000 1.0
C      1  0.5246870000000  0.5073590000000  0.4317390000000 1.0
C      1  0.5169670000000  0.4779850000000  0.4339700000000 1.0
C      1  0.4844870000000  0.4787190000000  0.4341150000000 1.0
C      1  0.4751960000000  0.5095810000000  0.5674200000000 1.0
C      1  0.5011470000000  0.5219360000000  0.5615260000000 1.0
C      1  0.5252500000000  0.4985020000000  0.5583870000000 1.0
C      1  0.5067250000000  0.4744300000000  0.5653140000000 1.0
C      1  0.4744420000000  0.4803350000000  0.5563050000000 1.0
C      1  0.5986770000000  0.4898550000000  0.5166520000000 1.0
C      1  0.5205830000000  0.4060370000000  0.5122450000000 1.0
C      1  0.4176450000000  0.4542730000000  0.5183440000000 1.0
C      1  0.4260200000000  0.5651980000000  0.5137710000000 1.0
C      1  0.5357120000000  0.5942180000000  0.5142300000000 1.0
C      1  0.5962960000000  0.4913910000000  0.4892020000000 1.0
C      1  0.5189960000000  0.4080900000000  0.4853170000000 1.0
C      1  0.4149730000000  0.4537600000000  0.4902350000000 1.0
C      1  0.4255760000000  0.5638170000000  0.4864390000000 1.0
C      1  0.5357460000000  0.5929760000000  0.4855660000000 1.0
C      1  0.4850150000000  0.4427470000000  0.5226920000000 1.0
C      1  0.4495870000000  0.5038470000000  0.5138040000000 1.0
C      1  0.4902420000000  0.5571490000000  0.5164550000000 1.0
C      1  0.5550230000000  0.5261860000000  0.5192250000000 1.0
C      1  0.5514970000000  0.4575710000000  0.5190980000000 1.0
C      1  0.4785800000000  0.4459020000000  0.4763620000000 1.0
C      1  0.4315960000000  0.5033290000000  0.4684610000000 1.0
C      1  0.4844290000000  0.5467370000000  0.4784070000000 1.0
C      1  0.5451970000000  0.5353090000000  0.4782810000000 1.0
C      1  0.5448080000000  0.4699010000000  0.4803240000000 1.0
C      1  0.4447510000000  0.4408730000000  0.5657870000000 1.0
C      1  0.4269320000000  0.5331000000000  0.5628040000000 1.0
C      1  0.5098710000000  0.5791050000000  0.5591780000000 1.0
C      1  0.5812560000000  0.5151260000000  0.5651990000000 1.0
C      1  0.5405960000000  0.4310320000000  0.5606690000000 1.0
C      1  0.4475820000000  0.4375700000000  0.4460370000000 1.0
C      1  0.4257380000000  0.5292410000000  0.4385970000000 1.0
C      1  0.5047440000000  0.5794460000000  0.4394050000000 1.0
C      1  0.5760480000000  0.5193670000000  0.4423280000000 1.0
C      1  0.5432510000000  0.4326300000000  0.4379610000000 1.0
C      1  0.5328620000000  0.5547520000000  0.5695020000000 1.0
C      1  0.5697850000000  0.4862960000000  0.5799370000000 1.0
C      1  0.5085310000000  0.4311820000000  0.5771740000000 1.0
C      1  0.4391350000000  0.4735940000000  0.5736580000000 1.0
C      1  0.4519440000000  0.5516450000000  0.5791800000000 1.0
C      1  0.5303230000000  0.5617650000000  0.4239690000000 1.0
C      1  0.5696970000000  0.4904940000000  0.4241680000000 1.0
C      1  0.5159620000000  0.4296390000000  0.4170790000000 1.0
C      1  0.4447000000000  0.4671740000000  0.4295070000000 1.0
C      1  0.4497310000000  0.5475970000000  0.4205850000000 1.0
C      1  0.4900870000000  0.4088430000000  0.4668310000000 1.0
C      1  0.4010760000000  0.4782570000000  0.4711940000000 1.0
C      1  0.4483570000000  0.5816240000000  0.4685280000000 1.0
C      1  0.5592040000000  0.5729190000000  0.4712670000000 1.0
C      1  0.5875080000000  0.4642300000000  0.4707100000000 1.0
C      1  0.4926220000000  0.4040420000000  0.5315290000000 1.0
C      1  0.4139720000000  0.4829130000000  0.5334590000000 1.0
C      1  0.4491360000000  0.5835720000000  0.5306750000000 1.0
C      1  0.5603430000000  0.5760640000000  0.5292910000000 1.0
C      1  0.5922950000000  0.4593990000000  0.5304880000000 1.0
C      1  0.4574410000000  0.4560810000000  0.5189440000000 1.0
C      1  0.4454660000000  0.5328090000000  0.5264070000000 1.0
C      1  0.5205460000000  0.5573050000000  0.5125640000000 1.0
C      1  0.5638750000000  0.5004630000000  0.5326610000000 1.0
C      1  0.5248280000000  0.4440140000000  0.5236560000000 1.0
C      1  0.4539550000000  0.4621570000000  0.4908620000000 1.0
C      1  0.4450890000000  0.5315070000000  0.4734130000000 1.0
C      1  0.5115630000000  0.5614390000000  0.4828970000000 1.0
C      1  0.5599990000000  0.5067350000000  0.4829400000000 1.0
C      1  0.5270440000000  0.4454390000000  0.4739480000000 1.0
C      1  0.4395460000000  0.4370850000000  0.4749380000000 1.0
C      1  0.4119270000000  0.5377700000000  0.4692220000000 1.0
C      1  0.5050010000000  0.5925270000000  0.4707920000000 1.0
C      1  0.5901960000000  0.5209720000000  0.4732670000000 1.0
C      1  0.5468710000000  0.4188290000000  0.4690370000000 1.0
C      1  0.4390140000000  0.4335690000000  0.5349740000000 1.0
C      1  0.4135760000000  0.5388990000000  0.5316180000000 1.0
C      1  0.5074550000000  0.5924390000000  0.5281260000000 1.0
C      1  0.5916440000000  0.5193230000000  0.5330660000000 1.0
C      1  0.5473930000000  0.4191470000000  0.5290020000000 1.0
C      1  0.4761500000000  0.5793330000000  0.4835840000000 1.0
C      1  0.5741750000000  0.5472650000000  0.4876190000000 1.0
C      1  0.5656460000000  0.4432650000000  0.4839340000000 1.0
C      1  0.4641430000000  0.4172100000000  0.4872280000000 1.0
C      1  0.4044100000000  0.5088470000000  0.4861790000000 1.0
C      1  0.4767130000000  0.5855740000000  0.5152150000000 1.0
C      1  0.5775880000000  0.5484120000000  0.5193780000000 1.0
C      1  0.5740760000000  0.4354890000000  0.5145820000000 1.0
C      1  0.4643610000000  0.4168200000000  0.5187410000000 1.0
C      1  0.4159470000000  0.5088500000000  0.5153710000000 1.0
C      1  0.4844490000000  0.4814160000000  0.6064670000000 1.0
C      1  0.4784450000000  0.5100040000000  0.6071730000000 1.0
C      1  0.5034430000000  0.5241740000000  0.6035760000000 1.0
C      1  0.5245580000000  0.5048580000000  0.6031700000000 1.0
C      1  0.5130840000000  0.4788400000000  0.6056080000000 1.0
C      1  0.4867420000000  0.4806330000000  0.3924040000000 1.0
C      1  0.4776850000000  0.5080830000000  0.3919100000000 1.0
C      1  0.5015820000000  0.5248650000000  0.3932010000000 1.0
C      1  0.5250800000000  0.5074920000000  0.3919180000000 1.0
C      1  0.5154930000000  0.4801770000000  0.3922650000000 1.0
C      1  0.5482270000000  0.4878950000000  0.5086800000000 1.0
C      1  0.5055270000000  0.4453300000000  0.4956960000000 1.0
C      1  0.4589490000000  0.5401740000000  0.4982420000000 1.0
C      1  0.5269810000000  0.5266710000000  0.5056630000000 1.0
C      1  0.4538100000000  0.4913380000000  0.4862250000000 1.0
END
