TITL C-2622964-2985-47 -0.00283751438168587 125000 -492.224664993571 0 0 86 (C1) n - 1
REM
REM in /nfs/bkarasulu/CARBON/AIRSS/Generating-Clusters/AIREBO/with-SteepDescent/Higher-Symm/SD-CG/HFTN-CG
REM
REM
REM
REM
REM
REM ./C.cell (b20cbc046b6831c77cfcea5457e17084)
REM
REM compiler GCC version 9.2.1 20190827 (Red Hat 9.2.1-1)
REM options -cpp -mtune=generic -march=x86-64 -g -O0 -fpre-include=/usr/include/finclude/math-vector-fortran.h
REM seed 695549085 -758043169 234624623 1717382970 1226781298 2081746593 -1136963307 -1779749420 -170003598 788894700 -286690338 -1342125591 1892511443 -1646335534 134728557 -2048633304 142491304 -2132296048 -1087200931 -1198023976 -1399481385 182345289 1027255354 1660083652 -1016341971 1418545843 -1801637413 -1084156968 -1387409685 587613200 -995415657 1619287874 -1673775950
REM
CELL 1.54180   50.00000   50.00000   50.00000   90.00000   90.00000   90.00000
LATT -1
SFAC C  
C      1  0.5360090000000  0.4457480000000  0.5333750000000 1.0
C      1  0.4671890000000  0.4385610000000  0.4619190000000 1.0
C      1  0.5513530000000  0.5632410000000  0.5251980000000 1.0
C      1  0.4503210000000  0.5682420000000  0.4730260000000 1.0
C      1  0.5240020000000  0.4392600000000  0.4959480000000 1.0
C      1  0.4865260000000  0.4362180000000  0.5082170000000 1.0
C      1  0.4745670000000  0.4252800000000  0.5444810000000 1.0
C      1  0.5227110000000  0.4338270000000  0.4570490000000 1.0
C      1  0.5350980000000  0.5482860000000  0.4372830000000 1.0
C      1  0.4705560000000  0.5428900000000  0.5653930000000 1.0
C      1  0.5637650000000  0.4587830000000  0.5346800000000 1.0
C      1  0.4428470000000  0.4578580000000  0.4661720000000 1.0
C      1  0.4620990000000  0.4536950000000  0.5457140000000 1.0
C      1  0.5352130000000  0.4636170000000  0.4511580000000 1.0
C      1  0.4643120000000  0.5339340000000  0.4156640000000 1.0
C      1  0.5268720000000  0.5447160000000  0.5801290000000 1.0
C      1  0.5635710000000  0.4375070000000  0.4907590000000 1.0
C      1  0.4331970000000  0.4486650000000  0.5147630000000 1.0
C      1  0.5042290000000  0.4691060000000  0.5673440000000 1.0
C      1  0.4998010000000  0.4706650000000  0.4345610000000 1.0
C      1  0.5486780000000  0.5004000000000  0.5691960000000 1.0
C      1  0.4665710000000  0.4986310000000  0.4529870000000 1.0
C      1  0.4908400000000  0.4867130000000  0.4597200000000 1.0
C      1  0.5139700000000  0.4681540000000  0.5385840000000 1.0
C      1  0.5684570000000  0.5212220000000  0.5194300000000 1.0
C      1  0.4280130000000  0.5282410000000  0.4794680000000 1.0
C      1  0.4264450000000  0.5427300000000  0.5053790000000 1.0
C      1  0.5673340000000  0.5329460000000  0.4932040000000 1.0
C      1  0.4549010000000  0.4271030000000  0.5167570000000 1.0
C      1  0.5425250000000  0.4171840000000  0.4778570000000 1.0
C      1  0.5717620000000  0.4901870000000  0.5245120000000 1.0
C      1  0.4313320000000  0.5003270000000  0.4823250000000 1.0
C      1  0.5647600000000  0.4909130000000  0.4940450000000 1.0
C      1  0.4405680000000  0.4914060000000  0.5069530000000 1.0
C      1  0.5304860000000  0.4684200000000  0.4194960000000 1.0
C      1  0.4571020000000  0.4757380000000  0.5617620000000 1.0
C      1  0.5307360000000  0.5642720000000  0.4839180000000 1.0
C      1  0.4665620000000  0.5726300000000  0.5191830000000 1.0
C      1  0.5755260000000  0.4924070000000  0.4661070000000 1.0
C      1  0.4313600000000  0.4740220000000  0.5303830000000 1.0
C      1  0.5521800000000  0.5194280000000  0.4691950000000 1.0
C      1  0.4381820000000  0.5266280000000  0.5255050000000 1.0
C      1  0.4801700000000  0.5589000000000  0.5446530000000 1.0
C      1  0.5232470000000  0.5648110000000  0.4552750000000 1.0
C      1  0.4607140000000  0.4155800000000  0.4858890000000 1.0
C      1  0.5380770000000  0.4170600000000  0.5152320000000 1.0
C      1  0.5061540000000  0.4393050000000  0.5651170000000 1.0
C      1  0.4817520000000  0.4455140000000  0.4344080000000 1.0
C      1  0.4745820000000  0.5113970000000  0.5586340000000 1.0
C      1  0.5253200000000  0.5179290000000  0.4363130000000 1.0
C      1  0.5246500000000  0.5718620000000  0.5268460000000 1.0
C      1  0.4767970000000  0.5785040000000  0.4712050000000 1.0
C      1  0.5002680000000  0.5320870000000  0.4545210000000 1.0
C      1  0.5040640000000  0.5158940000000  0.5420780000000 1.0
C      1  0.4866340000000  0.5846970000000  0.4972680000000 1.0
C      1  0.5135050000000  0.5836080000000  0.5028120000000 1.0
C      1  0.4620930000000  0.5409820000000  0.3912370000000 1.0
C      1  0.5218500000000  0.5606260000000  0.5994460000000 1.0
C      1  0.5418480000000  0.4611270000000  0.4813860000000 1.0
C      1  0.4743770000000  0.4617000000000  0.5206560000000 1.0
C      1  0.5780110000000  0.4411980000000  0.5132370000000 1.0
C      1  0.4250600000000  0.4500850000000  0.4871940000000 1.0
C      1  0.4716470000000  0.4913480000000  0.5128840000000 1.0
C      1  0.5323230000000  0.4922790000000  0.4903040000000 1.0
C      1  0.5140340000000  0.4962400000000  0.4172580000000 1.0
C      1  0.4821000000000  0.4842950000000  0.5752560000000 1.0
C      1  0.4447200000000  0.5015770000000  0.5452530000000 1.0
C      1  0.5480740000000  0.4947290000000  0.4461820000000 1.0
C      1  0.5211780000000  0.5225250000000  0.4793380000000 1.0
C      1  0.4657120000000  0.5211950000000  0.5165900000000 1.0
C      1  0.5553150000000  0.5376610000000  0.5378640000000 1.0
C      1  0.4457380000000  0.5425000000000  0.4620260000000 1.0
C      1  0.5004300000000  0.4892670000000  0.4862980000000 1.0
C      1  0.5042430000000  0.4912330000000  0.5200720000000 1.0
C      1  0.4407210000000  0.5678640000000  0.5008040000000 1.0
C      1  0.5584960000000  0.5598440000000  0.4965730000000 1.0
C      1  0.5066060000000  0.4286510000000  0.5335330000000 1.0
C      1  0.4957950000000  0.4328630000000  0.4780420000000 1.0
C      1  0.4436350000000  0.4856350000000  0.4615620000000 1.0
C      1  0.5653170000000  0.4833990000000  0.5562310000000 1.0
C      1  0.5106590000000  0.5437250000000  0.5021190000000 1.0
C      1  0.4793860000000  0.5434270000000  0.5078340000000 1.0
C      1  0.5073090000000  0.5480270000000  0.5357900000000 1.0
C      1  0.4939560000000  0.5654830000000  0.4534880000000 1.0
C      1  0.4676610000000  0.5283340000000  0.4456180000000 1.0
C      1  0.5332400000000  0.5252310000000  0.5568780000000 1.0
END
