TITL C-2622953-3516-329 0.0104056335178227 125000 -337.045051390885 0 0 62 (C1) n - 1
REM
REM in /nfs/bkarasulu/CARBON/AIRSS/Generating-Clusters/AIREBO/with-SteepDescent/Higher-Symm/SD-CG/HFTN-CG
REM
REM
REM
REM
REM
REM ./C.cell (b20cbc046b6831c77cfcea5457e17084)
REM
REM compiler GCC version 9.2.1 20190827 (Red Hat 9.2.1-1)
REM options -cpp -mtune=generic -march=x86-64 -g -O0 -fpre-include=/usr/include/finclude/math-vector-fortran.h
REM seed -658168295 -1246045670 -1679841555 -1503034669 275157990 125840911 1251989119 80759317 -463453084 -523982637 85172375 1988712587 -1318882546 1392670067 -241252177 2094033847 -401857298 -115853799 -1523425878 917961279 -2005925476 19291586 542956324 -973281963 1561134099 -912266143 249202742 574159260 -1955445530 925808781 2065748782 1931891089 2125404290
REM
CELL 1.54180   50.00000   50.00000   50.00000   90.00000   90.00000   90.00000
LATT -1
SFAC C  
C      1  0.4347240000000  0.4457290000000  0.5140360000000 1.0
C      1  0.4550150000000  0.5120250000000  0.4678810000000 1.0
C      1  0.5279090000000  0.5688520000000  0.4961040000000 1.0
C      1  0.5005340000000  0.4539060000000  0.5672160000000 1.0
C      1  0.5068040000000  0.5330430000000  0.5265860000000 1.0
C      1  0.5803120000000  0.5142680000000  0.4849600000000 1.0
C      1  0.4780500000000  0.4902760000000  0.5841910000000 1.0
C      1  0.5359610000000  0.4663170000000  0.4608870000000 1.0
C      1  0.5114880000000  0.4495120000000  0.5109700000000 1.0
C      1  0.4820610000000  0.4609830000000  0.4603190000000 1.0
C      1  0.4729100000000  0.5073320000000  0.4434360000000 1.0
C      1  0.5005440000000  0.5249820000000  0.5718960000000 1.0
C      1  0.5431690000000  0.4892470000000  0.4928410000000 1.0
C      1  0.4851340000000  0.4705970000000  0.5113940000000 1.0
C      1  0.4675590000000  0.4645750000000  0.4861480000000 1.0
C      1  0.5465070000000  0.5621040000000  0.5384180000000 1.0
C      1  0.5015200000000  0.4239090000000  0.5283800000000 1.0
C      1  0.5040340000000  0.5294730000000  0.4757650000000 1.0
C      1  0.5655990000000  0.5020360000000  0.5325940000000 1.0
C      1  0.4503550000000  0.4972770000000  0.5736840000000 1.0
C      1  0.4623180000000  0.4745020000000  0.5511820000000 1.0
C      1  0.4446890000000  0.4871430000000  0.4838580000000 1.0
C      1  0.5449120000000  0.5137250000000  0.5477130000000 1.0
C      1  0.4874340000000  0.5359760000000  0.5497930000000 1.0
C      1  0.4471270000000  0.4464840000000  0.5392950000000 1.0
C      1  0.5694430000000  0.5418850000000  0.4754490000000 1.0
C      1  0.5256120000000  0.4561310000000  0.4344690000000 1.0
C      1  0.5383670000000  0.5362720000000  0.4332970000000 1.0
C      1  0.4949680000000  0.5401260000000  0.4384710000000 1.0
C      1  0.5239350000000  0.4792010000000  0.5093540000000 1.0
C      1  0.5453650000000  0.5566430000000  0.4770160000000 1.0
C      1  0.4369540000000  0.5019850000000  0.5118190000000 1.0
C      1  0.4920920000000  0.4908100000000  0.5532230000000 1.0
C      1  0.4343530000000  0.4868310000000  0.5362750000000 1.0
C      1  0.5228640000000  0.5006240000000  0.5638620000000 1.0
C      1  0.4546730000000  0.5370600000000  0.4841290000000 1.0
C      1  0.5661510000000  0.4999620000000  0.5043300000000 1.0
C      1  0.5630680000000  0.5144140000000  0.4558430000000 1.0
C      1  0.4224540000000  0.4693540000000  0.5024470000000 1.0
C      1  0.4847060000000  0.4623510000000  0.5893060000000 1.0
C      1  0.5039950000000  0.4428450000000  0.4604150000000 1.0
C      1  0.4525790000000  0.4370140000000  0.4928520000000 1.0
C      1  0.4438880000000  0.5225340000000  0.5626560000000 1.0
C      1  0.5762130000000  0.5142750000000  0.4031990000000 1.0
C      1  0.4633220000000  0.5193870000000  0.4199670000000 1.0
C      1  0.4826930000000  0.4502700000000  0.5387160000000 1.0
C      1  0.5062760000000  0.5100160000000  0.4495900000000 1.0
C      1  0.4815220000000  0.5598530000000  0.4530290000000 1.0
C      1  0.5348800000000  0.5374640000000  0.5369340000000 1.0
C      1  0.5239200000000  0.4680710000000  0.5656890000000 1.0
C      1  0.4844700000000  0.5149140000000  0.4979210000000 1.0
C      1  0.5354490000000  0.4980400000000  0.4623980000000 1.0
C      1  0.4750700000000  0.5561720000000  0.4806430000000 1.0
C      1  0.5007400000000  0.4999390000000  0.5216010000000 1.0
C      1  0.5016480000000  0.5507080000000  0.5012210000000 1.0
C      1  0.4607380000000  0.5334980000000  0.5425530000000 1.0
C      1  0.4560840000000  0.5251480000000  0.5136020000000 1.0
C      1  0.5046810000000  0.4716880000000  0.4216590000000 1.0
C      1  0.4836630000000  0.4786170000000  0.4394760000000 1.0
C      1  0.5243470000000  0.4488360000000  0.4825570000000 1.0
C      1  0.5630260000000  0.5214790000000  0.4254100000000 1.0
C      1  0.5291180000000  0.5413110000000  0.4590760000000 1.0
END
