TITL C-2622962-9663-211 0.00131503111777794 125000 -623.569053427716 0 0 113 (C1) n - 1
REM
REM in /nfs/bkarasulu/CARBON/AIRSS/Generating-Clusters/AIREBO/with-SteepDescent/Higher-Symm/SD-CG/HFTN-CG
REM
REM
REM
REM
REM
REM ./C.cell (b20cbc046b6831c77cfcea5457e17084)
REM
REM compiler GCC version 9.2.1 20190827 (Red Hat 9.2.1-1)
REM options -cpp -mtune=generic -march=x86-64 -g -O0 -fpre-include=/usr/include/finclude/math-vector-fortran.h
REM seed -1317823438 -1308325076 -2087248014 -1202681219 -791622533 65894686 2097986975 -329034423 302183486 -1292312962 2060401832 69431791 493503907 814516543 2112913030 -1283130848 1761450565 -1960089531 -1538704735 1548051175 575516273 -1278748394 2001887347 1326611191 -91315813 1863491775 -696666194 1488978664 -1031042624 453017300 -723433948 -1965729624 500154700
REM
CELL 1.54180   50.00000   50.00000   50.00000   90.00000   90.00000   90.00000
LATT -1
SFAC C  
C      1  0.4476010000000  0.4802160000000  0.5172570000000 1.0
C      1  0.5454120000000  0.4749710000000  0.5084220000000 1.0
C      1  0.4444060000000  0.4924160000000  0.4776390000000 1.0
C      1  0.5607140000000  0.4954780000000  0.4860000000000 1.0
C      1  0.4301260000000  0.5193000000000  0.4876690000000 1.0
C      1  0.5457940000000  0.5189390000000  0.5027980000000 1.0
C      1  0.4487100000000  0.5113850000000  0.5121740000000 1.0
C      1  0.5525000000000  0.4997560000000  0.5292890000000 1.0
C      1  0.5435440000000  0.4020670000000  0.5070620000000 1.0
C      1  0.4617560000000  0.4324400000000  0.4445710000000 1.0
C      1  0.5362230000000  0.4887380000000  0.4073550000000 1.0
C      1  0.4596410000000  0.5593510000000  0.4257820000000 1.0
C      1  0.5370940000000  0.5905510000000  0.4868700000000 1.0
C      1  0.4643320000000  0.5658520000000  0.5569490000000 1.0
C      1  0.5370110000000  0.5168190000000  0.5948110000000 1.0
C      1  0.4769560000000  0.4411540000000  0.5657000000000 1.0
C      1  0.5222420000000  0.5583890000000  0.5751690000000 1.0
C      1  0.4633670000000  0.4874930000000  0.5840200000000 1.0
C      1  0.5257520000000  0.4092630000000  0.5493160000000 1.0
C      1  0.4801010000000  0.4063860000000  0.4808920000000 1.0
C      1  0.5174130000000  0.4491380000000  0.4237710000000 1.0
C      1  0.4762010000000  0.5201190000000  0.4039940000000 1.0
C      1  0.5190220000000  0.5778310000000  0.4439160000000 1.0
C      1  0.4753640000000  0.5980420000000  0.5248860000000 1.0
C      1  0.5392410000000  0.4463290000000  0.4497540000000 1.0
C      1  0.4544020000000  0.4978310000000  0.4119190000000 1.0
C      1  0.5371710000000  0.5504920000000  0.4424560000000 1.0
C      1  0.4673190000000  0.5884200000000  0.4994450000000 1.0
C      1  0.5416470000000  0.5631430000000  0.5513240000000 1.0
C      1  0.4727030000000  0.5104200000000  0.5973640000000 1.0
C      1  0.5346720000000  0.4398000000000  0.5552230000000 1.0
C      1  0.4624310000000  0.4248350000000  0.5012270000000 1.0
C      1  0.4847520000000  0.5814270000000  0.5454830000000 1.0
C      1  0.5167110000000  0.5363470000000  0.5910320000000 1.0
C      1  0.4800870000000  0.4654210000000  0.5846680000000 1.0
C      1  0.5203090000000  0.4014740000000  0.5232350000000 1.0
C      1  0.4834940000000  0.4176350000000  0.4553230000000 1.0
C      1  0.5128530000000  0.4729150000000  0.4096450000000 1.0
C      1  0.4809110000000  0.5457920000000  0.4126920000000 1.0
C      1  0.5152450000000  0.5912600000000  0.4682650000000 1.0
C      1  0.5576410000000  0.4246820000000  0.5071990000000 1.0
C      1  0.4584710000000  0.4587390000000  0.4519300000000 1.0
C      1  0.5466610000000  0.4971610000000  0.4303360000000 1.0
C      1  0.4531370000000  0.5526560000000  0.4506740000000 1.0
C      1  0.5439640000000  0.5671230000000  0.4980930000000 1.0
C      1  0.4605300000000  0.5432870000000  0.5428010000000 1.0
C      1  0.5428400000000  0.5000050000000  0.5750290000000 1.0
C      1  0.4660730000000  0.4467690000000  0.5416510000000 1.0
C      1  0.4889680000000  0.5852760000000  0.4818210000000 1.0
C      1  0.5090890000000  0.5634510000000  0.5438510000000 1.0
C      1  0.4926220000000  0.5239920000000  0.5833440000000 1.0
C      1  0.5073880000000  0.4528330000000  0.5682050000000 1.0
C      1  0.4949550000000  0.4139590000000  0.5105460000000 1.0
C      1  0.5088230000000  0.4344950000000  0.4523190000000 1.0
C      1  0.4875100000000  0.4902310000000  0.4156050000000 1.0
C      1  0.5063620000000  0.5491860000000  0.4304930000000 1.0
C      1  0.5643490000000  0.5381300000000  0.4561700000000 1.0
C      1  0.4411780000000  0.5666430000000  0.4989490000000 1.0
C      1  0.5558250000000  0.5379740000000  0.5406180000000 1.0
C      1  0.4437040000000  0.4951500000000  0.5576090000000 1.0
C      1  0.5656120000000  0.4542630000000  0.5517650000000 1.0
C      1  0.4344430000000  0.4357980000000  0.5012780000000 1.0
C      1  0.5639390000000  0.4584940000000  0.4691870000000 1.0
C      1  0.4362870000000  0.4993510000000  0.4393860000000 1.0
C      1  0.4818870000000  0.4496730000000  0.4992160000000 1.0
C      1  0.5324840000000  0.4715400000000  0.4709390000000 1.0
C      1  0.4666130000000  0.5080350000000  0.4482940000000 1.0
C      1  0.5324200000000  0.5263950000000  0.4647970000000 1.0
C      1  0.4656280000000  0.5474430000000  0.5100010000000 1.0
C      1  0.5242340000000  0.5255660000000  0.5428680000000 1.0
C      1  0.4756520000000  0.4972950000000  0.5472420000000 1.0
C      1  0.5467500000000  0.4490190000000  0.5248020000000 1.0
C      1  0.3977510000000  0.5179730000000  0.4961680000000 1.0
C      1  0.5937400000000  0.5242330000000  0.5103550000000 1.0
C      1  0.4050710000000  0.5107440000000  0.5282030000000 1.0
C      1  0.5853050000000  0.4984040000000  0.5235230000000 1.0
C      1  0.4164630000000  0.4869760000000  0.5117150000000 1.0
C      1  0.5926490000000  0.4755240000000  0.5051460000000 1.0
C      1  0.4053070000000  0.4881290000000  0.4838630000000 1.0
C      1  0.5940130000000  0.5023010000000  0.4851670000000 1.0
C      1  0.4931210000000  0.4530990000000  0.4710620000000 1.0
C      1  0.4976520000000  0.4942870000000  0.4463470000000 1.0
C      1  0.4877200000000  0.5327460000000  0.4497460000000 1.0
C      1  0.4978860000000  0.5571270000000  0.4796600000000 1.0
C      1  0.5050220000000  0.5386280000000  0.5208150000000 1.0
C      1  0.4942860000000  0.5164280000000  0.5561870000000 1.0
C      1  0.5098090000000  0.4684530000000  0.5408980000000 1.0
C      1  0.5076360000000  0.4445580000000  0.5182360000000 1.0
C      1  0.5670620000000  0.5446760000000  0.5092240000000 1.0
C      1  0.4349490000000  0.5225980000000  0.5392860000000 1.0
C      1  0.5660170000000  0.4842010000000  0.5563790000000 1.0
C      1  0.4306320000000  0.4521120000000  0.5240030000000 1.0
C      1  0.5747920000000  0.4507640000000  0.4965290000000 1.0
C      1  0.4231290000000  0.4755380000000  0.4598430000000 1.0
C      1  0.5658100000000  0.5069890000000  0.4544140000000 1.0
C      1  0.4322710000000  0.5482100000000  0.4748010000000 1.0
C      1  0.5860240000000  0.4436540000000  0.5278540000000 1.0
C      1  0.4246000000000  0.4463570000000  0.4773040000000 1.0
C      1  0.5807600000000  0.4780650000000  0.4561200000000 1.0
C      1  0.4228700000000  0.5276850000000  0.4493510000000 1.0
C      1  0.5783970000000  0.5504510000000  0.4776850000000 1.0
C      1  0.4250130000000  0.5517960000000  0.5249330000000 1.0
C      1  0.5741380000000  0.5172110000000  0.5577220000000 1.0
C      1  0.4269020000000  0.4683810000000  0.5490700000000 1.0
C      1  0.5224990000000  0.5418600000000  0.4934070000000 1.0
C      1  0.4807790000000  0.5171770000000  0.5121810000000 1.0
C      1  0.5249340000000  0.4925440000000  0.5471020000000 1.0
C      1  0.4798710000000  0.4725550000000  0.5242940000000 1.0
C      1  0.5157540000000  0.4708450000000  0.4987940000000 1.0
C      1  0.4757870000000  0.4822110000000  0.4694290000000 1.0
C      1  0.5260470000000  0.4976610000000  0.4555070000000 1.0
C      1  0.4714070000000  0.5413100000000  0.4770540000000 1.0
C      1  0.4913530000000  0.4912260000000  0.4982850000000 1.0
END
