TITL C-2622956-4641-837 -0.000359075340693749 125000 -161.905160650278 0 0 29 (C1) n - 1
REM
REM in /nfs/bkarasulu/CARBON/AIRSS/Generating-Clusters/AIREBO/with-SteepDescent/Higher-Symm/SD-CG/HFTN-CG
REM
REM
REM
REM
REM
REM ./C.cell (b20cbc046b6831c77cfcea5457e17084)
REM
REM compiler GCC version 9.2.1 20190827 (Red Hat 9.2.1-1)
REM options -cpp -mtune=generic -march=x86-64 -g -O0 -fpre-include=/usr/include/finclude/math-vector-fortran.h
REM seed 1780553920 -1076207495 -2121821968 -1267390457 1266947885 545686049 1195433817 529128425 -480517637 -635844306 -1121020795 1973534105 992315407 -643564823 1491218414 465893998 -418009631 573405396 771460690 -1790051058 864033142 -1360071696 1060512800 -416881893 1216379326 486916309 -934903080 976279376 940449566 -1985659141 -923277773 -1675938759 -386730050
REM
CELL 1.54180   50.00000   50.00000   50.00000   90.00000   90.00000   90.00000
LATT -1
SFAC C  
C      1  0.4779970000000  0.4661050000000  0.5185590000000 1.0
C      1  0.5249470000000  0.4654940000000  0.5093670000000 1.0
C      1  0.5051760000000  0.4860570000000  0.5645020000000 1.0
C      1  0.5207290000000  0.5099910000000  0.4401300000000 1.0
C      1  0.4630020000000  0.5243870000000  0.5238130000000 1.0
C      1  0.5309050000000  0.5423110000000  0.5013870000000 1.0
C      1  0.5285490000000  0.4909720000000  0.5506610000000 1.0
C      1  0.4986090000000  0.4457680000000  0.4758520000000 1.0
C      1  0.5406310000000  0.5004300000000  0.4583350000000 1.0
C      1  0.4949930000000  0.5142920000000  0.4509940000000 1.0
C      1  0.4822640000000  0.5074300000000  0.5544300000000 1.0
C      1  0.4999160000000  0.4535310000000  0.5035160000000 1.0
C      1  0.4950270000000  0.5371070000000  0.5436090000000 1.0
C      1  0.4670010000000  0.4897730000000  0.5022680000000 1.0
C      1  0.5386270000000  0.4723070000000  0.4645280000000 1.0
C      1  0.5024790000000  0.5421430000000  0.5163530000000 1.0
C      1  0.5460880000000  0.4635690000000  0.4906800000000 1.0
C      1  0.4953390000000  0.5191070000000  0.4784400000000 1.0
C      1  0.5464930000000  0.5201460000000  0.4806910000000 1.0
C      1  0.4488910000000  0.5095620000000  0.4600040000000 1.0
C      1  0.5190360000000  0.5121210000000  0.4959210000000 1.0
C      1  0.4572460000000  0.5105430000000  0.4868590000000 1.0
C      1  0.4689230000000  0.5108620000000  0.4407470000000 1.0
C      1  0.4900670000000  0.5038820000000  0.5219660000000 1.0
C      1  0.4816600000000  0.4734550000000  0.5463810000000 1.0
C      1  0.5157830000000  0.4565590000000  0.4561880000000 1.0
C      1  0.5212080000000  0.4929430000000  0.5201450000000 1.0
C      1  0.4628340000000  0.5415840000000  0.5480430000000 1.0
C      1  0.4755820000000  0.5375690000000  0.4956350000000 1.0
END
