TITL C-2622965-4321-25 -0.0023909210158975 125000 -1075.05295461379 0 0 199 (C1) n - 1
REM
REM in /nfs/bkarasulu/CARBON/AIRSS/Generating-Clusters/AIREBO/with-SteepDescent/Higher-Symm/SD-CG/HFTN-CG
REM
REM
REM
REM
REM
REM ./C.cell (b20cbc046b6831c77cfcea5457e17084)
REM
REM compiler GCC version 9.2.1 20190827 (Red Hat 9.2.1-1)
REM options -cpp -mtune=generic -march=x86-64 -g -O0 -fpre-include=/usr/include/finclude/math-vector-fortran.h
REM seed 336511762 1784090155 2108246684 -831750632 -377756097 -2008076085 154093902 -1310923674 -1951689289 -1290923570 -180814869 -1505789177 1545718477 2051579886 -1868118799 408305368 1867959967 -203158375 -995983799 -1788500197 -1244609900 -871549663 647650519 -584383950 -375999290 -1477795602 -1830279499 135738245 -1840448365 -1087476560 1829357078 671245937 -2010949767
REM
CELL 1.54180   50.00000   50.00000   50.00000   90.00000   90.00000   90.00000
LATT -1
SFAC C  
C      1  0.4244190000000  0.4869740000000  0.4220880000000 1.0
C      1  0.4364530000000  0.4515700000000  0.4087940000000 1.0
C      1  0.4693910000000  0.4347920000000  0.4239710000000 1.0
C      1  0.5194060000000  0.4242240000000  0.4204870000000 1.0
C      1  0.5632310000000  0.4481270000000  0.4166140000000 1.0
C      1  0.5903930000000  0.4926780000000  0.4106070000000 1.0
C      1  0.5665430000000  0.5369770000000  0.4258300000000 1.0
C      1  0.5461460000000  0.5774570000000  0.4009160000000 1.0
C      1  0.5010280000000  0.5775410000000  0.4209590000000 1.0
C      1  0.4569760000000  0.5741690000000  0.3981480000000 1.0
C      1  0.4295100000000  0.5423190000000  0.4166950000000 1.0
C      1  0.5445940000000  0.4347510000000  0.4390060000000 1.0
C      1  0.5810270000000  0.4798030000000  0.4581630000000 1.0
C      1  0.5708150000000  0.5291620000000  0.4583690000000 1.0
C      1  0.5700770000000  0.5665820000000  0.4188030000000 1.0
C      1  0.5094480000000  0.5812300000000  0.4537100000000 1.0
C      1  0.4710180000000  0.5713510000000  0.4289860000000 1.0
C      1  0.4346220000000  0.5611930000000  0.4445100000000 1.0
C      1  0.4115980000000  0.5006770000000  0.4501330000000 1.0
C      1  0.4295650000000  0.4576910000000  0.4397460000000 1.0
C      1  0.4605750000000  0.4260150000000  0.4557320000000 1.0
C      1  0.5117760000000  0.4175070000000  0.4531120000000 1.0
C      1  0.5555370000000  0.5846070000000  0.5401500000000 1.0
C      1  0.5022920000000  0.5997670000000  0.5444000000000 1.0
C      1  0.4466770000000  0.5781870000000  0.5433460000000 1.0
C      1  0.4109940000000  0.5357390000000  0.5351400000000 1.0
C      1  0.4047520000000  0.4805280000000  0.5457220000000 1.0
C      1  0.4254020000000  0.4332570000000  0.5340770000000 1.0
C      1  0.4803810000000  0.3980880000000  0.5478790000000 1.0
C      1  0.5266980000000  0.4038630000000  0.5307460000000 1.0
C      1  0.5802320000000  0.4367610000000  0.5508980000000 1.0
C      1  0.6020770000000  0.4771160000000  0.5399780000000 1.0
C      1  0.5858450000000  0.5401240000000  0.5450010000000 1.0
C      1  0.5206510000000  0.5593590000000  0.4014570000000 1.0
C      1  0.4872340000000  0.5576720000000  0.3953900000000 1.0
C      1  0.4581960000000  0.5401890000000  0.3981940000000 1.0
C      1  0.4424760000000  0.5129520000000  0.4111250000000 1.0
C      1  0.4479570000000  0.4818060000000  0.3983170000000 1.0
C      1  0.4679410000000  0.4543540000000  0.3962710000000 1.0
C      1  0.4976530000000  0.4451490000000  0.4083410000000 1.0
C      1  0.5302340000000  0.4548740000000  0.4079010000000 1.0
C      1  0.5514570000000  0.4800260000000  0.4164680000000 1.0
C      1  0.5629630000000  0.5089760000000  0.4072460000000 1.0
C      1  0.5419550000000  0.5352530000000  0.4022910000000 1.0
C      1  0.4725530000000  0.5495430000000  0.4477140000000 1.0
C      1  0.4475850000000  0.5302240000000  0.4499280000000 1.0
C      1  0.4422190000000  0.5030430000000  0.4616050000000 1.0
C      1  0.4534230000000  0.4734410000000  0.4540340000000 1.0
C      1  0.4772000000000  0.4536850000000  0.4498950000000 1.0
C      1  0.5039970000000  0.4480140000000  0.4626690000000 1.0
C      1  0.5346590000000  0.4579330000000  0.4558590000000 1.0
C      1  0.5508380000000  0.4830560000000  0.4482350000000 1.0
C      1  0.5434100000000  0.5117910000000  0.4564190000000 1.0
C      1  0.5164950000000  0.5226230000000  0.4510000000000 1.0
C      1  0.5030660000000  0.5485050000000  0.4574590000000 1.0
C      1  0.5821730000000  0.5171500000000  0.5681470000000 1.0
C      1  0.5618950000000  0.5655140000000  0.5830860000000 1.0
C      1  0.5148780000000  0.5956640000000  0.5757180000000 1.0
C      1  0.4721710000000  0.5826850000000  0.5647360000000 1.0
C      1  0.4253040000000  0.5515430000000  0.5777390000000 1.0
C      1  0.4109190000000  0.5143340000000  0.5799680000000 1.0
C      1  0.4189860000000  0.4481400000000  0.5803060000000 1.0
C      1  0.4563350000000  0.4113750000000  0.5764440000000 1.0
C      1  0.5142980000000  0.4100190000000  0.5791030000000 1.0
C      1  0.5623690000000  0.4239830000000  0.5723310000000 1.0
C      1  0.5941050000000  0.4637990000000  0.5863550000000 1.0
C      1  0.5197530000000  0.5447740000000  0.5606380000000 1.0
C      1  0.4877440000000  0.5527410000000  0.5689260000000 1.0
C      1  0.4622270000000  0.5331870000000  0.5572270000000 1.0
C      1  0.4507110000000  0.5038020000000  0.5504810000000 1.0
C      1  0.4517220000000  0.4838920000000  0.5780580000000 1.0
C      1  0.4731220000000  0.4622060000000  0.5629610000000 1.0
C      1  0.4958030000000  0.4454380000000  0.5805830000000 1.0
C      1  0.5226280000000  0.4583850000000  0.5641160000000 1.0
C      1  0.5435980000000  0.4752270000000  0.5713950000000 1.0
C      1  0.5486020000000  0.4988590000000  0.5563970000000 1.0
C      1  0.5436510000000  0.5261210000000  0.5761210000000 1.0
C      1  0.5788540000000  0.5831370000000  0.5077870000000 1.0
C      1  0.5258160000000  0.5989670000000  0.5034420000000 1.0
C      1  0.4718680000000  0.6152790000000  0.5060410000000 1.0
C      1  0.4223660000000  0.5804720000000  0.5035850000000 1.0
C      1  0.3787730000000  0.5324160000000  0.4999570000000 1.0
C      1  0.4048170000000  0.4547780000000  0.5029060000000 1.0
C      1  0.4492530000000  0.4106500000000  0.5113290000000 1.0
C      1  0.5091260000000  0.4010420000000  0.5017700000000 1.0
C      1  0.5662160000000  0.4069290000000  0.5091230000000 1.0
C      1  0.5908090000000  0.4711290000000  0.5128880000000 1.0
C      1  0.6257870000000  0.4994340000000  0.5222130000000 1.0
C      1  0.4963870000000  0.5578330000000  0.5229170000000 1.0
C      1  0.4697100000000  0.5483760000000  0.5311990000000 1.0
C      1  0.4357130000000  0.4909970000000  0.5227780000000 1.0
C      1  0.4487850000000  0.4633920000000  0.5237870000000 1.0
C      1  0.4728170000000  0.4575600000000  0.5361400000000 1.0
C      1  0.4973070000000  0.4517490000000  0.5242770000000 1.0
C      1  0.5211990000000  0.4573640000000  0.5368210000000 1.0
C      1  0.5443120000000  0.4707400000000  0.5222170000000 1.0
C      1  0.5523830000000  0.5037960000000  0.5256430000000 1.0
C      1  0.5491230000000  0.5339630000000  0.5236490000000 1.0
C      1  0.5224250000000  0.5465910000000  0.5346220000000 1.0
C      1  0.4775310000000  0.5443910000000  0.4799140000000 1.0
C      1  0.4520850000000  0.5361410000000  0.4960070000000 1.0
C      1  0.4436820000000  0.5043440000000  0.4947590000000 1.0
C      1  0.4520350000000  0.4727580000000  0.4853100000000 1.0
C      1  0.4682020000000  0.4460720000000  0.4938260000000 1.0
C      1  0.5005420000000  0.4483800000000  0.4942430000000 1.0
C      1  0.5339670000000  0.4517410000000  0.4888060000000 1.0
C      1  0.5427320000000  0.4853290000000  0.4916680000000 1.0
C      1  0.5452780000000  0.5186150000000  0.4872920000000 1.0
C      1  0.5356580000000  0.5482940000000  0.4969220000000 1.0
C      1  0.5057180000000  0.5505880000000  0.4955090000000 1.0
C      1  0.4374020000000  0.5126520000000  0.5868590000000 1.0
C      1  0.4449790000000  0.4547310000000  0.5900940000000 1.0
C      1  0.4648110000000  0.4341430000000  0.5894690000000 1.0
C      1  0.5236490000000  0.4336480000000  0.5953590000000 1.0
C      1  0.5501710000000  0.4411290000000  0.5909940000000 1.0
C      1  0.5640860000000  0.4719120000000  0.5954710000000 1.0
C      1  0.5666610000000  0.5057880000000  0.5908090000000 1.0
C      1  0.5378350000000  0.5540960000000  0.5946940000000 1.0
C      1  0.5085870000000  0.5692570000000  0.5901320000000 1.0
C      1  0.4743180000000  0.5681370000000  0.5961120000000 1.0
C      1  0.4549980000000  0.5416710000000  0.5890070000000 1.0
C      1  0.5870600000000  0.5057200000000  0.4753910000000 1.0
C      1  0.5751940000000  0.5548210000000  0.4802610000000 1.0
C      1  0.5418840000000  0.5916750000000  0.4565260000000 1.0
C      1  0.4898820000000  0.5894210000000  0.4817090000000 1.0
C      1  0.4398380000000  0.5900500000000  0.4564440000000 1.0
C      1  0.4057510000000  0.5264770000000  0.4715400000000 1.0
C      1  0.3896650000000  0.4765570000000  0.4597990000000 1.0
C      1  0.4307350000000  0.4382000000000  0.4676030000000 1.0
C      1  0.4839100000000  0.4041890000000  0.4675440000000 1.0
C      1  0.5449770000000  0.4097630000000  0.4581110000000 1.0
C      1  0.5833960000000  0.4492060000000  0.4728200000000 1.0
C      1  0.4157480000000  0.4086840000000  0.4623930000000 1.0
C      1  0.4689660000000  0.3786490000000  0.4521530000000 1.0
C      1  0.5501510000000  0.3815690000000  0.4474290000000 1.0
C      1  0.5838800000000  0.4414200000000  0.4397120000000 1.0
C      1  0.5990660000000  0.4837430000000  0.4325210000000 1.0
C      1  0.5994100000000  0.5475380000000  0.4573000000000 1.0
C      1  0.5528960000000  0.5917720000000  0.4286460000000 1.0
C      1  0.4945210000000  0.6116750000000  0.4564130000000 1.0
C      1  0.4467280000000  0.5933640000000  0.4243710000000 1.0
C      1  0.4092990000000  0.5404740000000  0.4440570000000 1.0
C      1  0.3805920000000  0.4981050000000  0.4351050000000 1.0
C      1  0.5364020000000  0.4204210000000  0.5019410000000 1.0
C      1  0.5654960000000  0.4543180000000  0.5012800000000 1.0
C      1  0.5734080000000  0.4938720000000  0.5008300000000 1.0
C      1  0.5760240000000  0.5497030000000  0.5138750000000 1.0
C      1  0.5466990000000  0.5768440000000  0.5095210000000 1.0
C      1  0.4983750000000  0.5868570000000  0.5145500000000 1.0
C      1  0.4447060000000  0.5619750000000  0.5148050000000 1.0
C      1  0.4186240000000  0.5345710000000  0.5019910000000 1.0
C      1  0.4037680000000  0.4819390000000  0.5154250000000 1.0
C      1  0.4356710000000  0.4404950000000  0.5023150000000 1.0
C      1  0.4794050000000  0.4148430000000  0.4995170000000 1.0
C      1  0.5582190000000  0.4131320000000  0.5401330000000 1.0
C      1  0.5971840000000  0.4564190000000  0.5590900000000 1.0
C      1  0.6050610000000  0.5092620000000  0.5469270000000 1.0
C      1  0.5711180000000  0.5672830000000  0.5560200000000 1.0
C      1  0.5355770000000  0.6001240000000  0.5520360000000 1.0
C      1  0.4695930000000  0.6027030000000  0.5373580000000 1.0
C      1  0.4230540000000  0.5568830000000  0.5505870000000 1.0
C      1  0.4023120000000  0.5105480000000  0.5526570000000 1.0
C      1  0.4141000000000  0.4533950000000  0.5525580000000 1.0
C      1  0.4492020000000  0.4111320000000  0.5440840000000 1.0
C      1  0.5066910000000  0.4012130000000  0.5536040000000 1.0
C      1  0.3995250000000  0.4513690000000  0.4706480000000 1.0
C      1  0.4347280000000  0.3864410000000  0.4998690000000 1.0
C      1  0.5051800000000  0.3796130000000  0.4797860000000 1.0
C      1  0.5686280000000  0.4188870000000  0.4773070000000 1.0
C      1  0.6115290000000  0.4559050000000  0.4913600000000 1.0
C      1  0.6155000000000  0.5164560000000  0.4799270000000 1.0
C      1  0.5646930000000  0.5842750000000  0.4746420000000 1.0
C      1  0.5229350000000  0.6126860000000  0.4742660000000 1.0
C      1  0.4573390000000  0.5991660000000  0.4798570000000 1.0
C      1  0.4130240000000  0.5805300000000  0.4716860000000 1.0
C      1  0.3813190000000  0.5050520000000  0.4757590000000 1.0
C      1  0.4382600000000  0.6090700000000  0.5062000000000 1.0
C      1  0.3978570000000  0.5591750000000  0.4929470000000 1.0
C      1  0.3821190000000  0.5003190000000  0.5066380000000 1.0
C      1  0.3809770000000  0.4353050000000  0.4921410000000 1.0
C      1  0.4242900000000  0.3647770000000  0.4913300000000 1.0
C      1  0.5892400000000  0.3826230000000  0.5046560000000 1.0
C      1  0.5913000000000  0.3955290000000  0.4803310000000 1.0
C      1  0.6305490000000  0.4705770000000  0.5103460000000 1.0
C      1  0.6291160000000  0.5191970000000  0.5011460000000 1.0
C      1  0.5876200000000  0.6046110000000  0.4858120000000 1.0
C      1  0.5018460000000  0.6233210000000  0.4987320000000 1.0
C      1  0.4996580000000  0.5016130000000  0.4073540000000 1.0
C      1  0.4966320000000  0.5032340000000  0.4675270000000 1.0
C      1  0.4990530000000  0.4998950000000  0.3544740000000 1.0
C      1  0.5004410000000  0.5011660000000  0.6035870000000 1.0
C      1  0.4995600000000  0.5019370000000  0.5485560000000 1.0
C      1  0.4978170000000  0.5027300000000  0.4342890000000 1.0
C      1  0.5007640000000  0.4958960000000  0.6560870000000 1.0
C      1  0.4955220000000  0.5030390000000  0.5215150000000 1.0
C      1  0.4989210000000  0.5023290000000  0.5768050000000 1.0
C      1  0.4957300000000  0.4997990000000  0.4947340000000 1.0
C      1  0.4994710000000  0.4991230000000  0.6301150000000 1.0
C      1  0.4994490000000  0.5020370000000  0.3805960000000 1.0
END
