TITL C-2622953-3516-283 0.00317815317433053 125000 -1121.69728073119 0 0 198 (C1) n - 1
REM
REM in /nfs/bkarasulu/CARBON/AIRSS/Generating-Clusters/AIREBO/with-SteepDescent/Higher-Symm/SD-CG/HFTN-CG
REM
REM
REM
REM
REM
REM ./C.cell (b20cbc046b6831c77cfcea5457e17084)
REM
REM compiler GCC version 9.2.1 20190827 (Red Hat 9.2.1-1)
REM options -cpp -mtune=generic -march=x86-64 -g -O0 -fpre-include=/usr/include/finclude/math-vector-fortran.h
REM seed -1294574306 -873369464 -1565632096 578291570 1869705401 -196203335 1616240449 -320643322 -1881989953 1435520649 1509191110 -242503072 -2126002120 -1088975844 1388617904 2125941017 -1715847924 -345193029 -1851332663 1608075974 524178653 -867996130 -1431200446 878907420 2109070614 1420985966 488261992 574069822 2122615213 716451279 433131902 -1787337656 258549490
REM
CELL 1.54180   50.00000   50.00000   50.00000   90.00000   90.00000   90.00000
LATT -1
SFAC C  
C      1  0.4609900000000  0.5121890000000  0.5560940000000 1.0
C      1  0.4525350000000  0.5365340000000  0.5391860000000 1.0
C      1  0.4422170000000  0.5464270000000  0.5107190000000 1.0
C      1  0.4582830000000  0.5447350000000  0.4837520000000 1.0
C      1  0.4508530000000  0.5363470000000  0.4550490000000 1.0
C      1  0.4508650000000  0.5080480000000  0.4414190000000 1.0
C      1  0.4600050000000  0.4769840000000  0.4467800000000 1.0
C      1  0.4568940000000  0.4557130000000  0.4692540000000 1.0
C      1  0.4588340000000  0.4482150000000  0.5000730000000 1.0
C      1  0.4619260000000  0.4403060000000  0.5315940000000 1.0
C      1  0.4571380000000  0.4704030000000  0.5456380000000 1.0
C      1  0.5373710000000  0.5188690000000  0.4711870000000 1.0
C      1  0.5451430000000  0.4990440000000  0.4515710000000 1.0
C      1  0.5344940000000  0.4723550000000  0.4609520000000 1.0
C      1  0.5532870000000  0.4620740000000  0.4826940000000 1.0
C      1  0.5475140000000  0.4527930000000  0.5127050000000 1.0
C      1  0.5345120000000  0.4684420000000  0.5364570000000 1.0
C      1  0.5426690000000  0.4939830000000  0.5367100000000 1.0
C      1  0.5334100000000  0.5185870000000  0.5341910000000 1.0
C      1  0.5483330000000  0.5451220000000  0.5247830000000 1.0
C      1  0.5427050000000  0.5323080000000  0.4979860000000 1.0
C      1  0.5506620000000  0.5482490000000  0.4692160000000 1.0
C      1  0.5058820000000  0.4751670000000  0.3952950000000 1.0
C      1  0.5101040000000  0.4256540000000  0.4366290000000 1.0
C      1  0.5003520000000  0.3982970000000  0.4896150000000 1.0
C      1  0.4996710000000  0.3841800000000  0.5520990000000 1.0
C      1  0.4979900000000  0.4250720000000  0.5956070000000 1.0
C      1  0.5017780000000  0.4830490000000  0.6035380000000 1.0
C      1  0.5068880000000  0.5623620000000  0.5764930000000 1.0
C      1  0.4937110000000  0.6056730000000  0.5414230000000 1.0
C      1  0.5107840000000  0.6028210000000  0.4914440000000 1.0
C      1  0.5033010000000  0.5806830000000  0.4334860000000 1.0
C      1  0.4921490000000  0.5304670000000  0.4049270000000 1.0
C      1  0.4531960000000  0.4631920000000  0.4061030000000 1.0
C      1  0.4391410000000  0.4154550000000  0.4293990000000 1.0
C      1  0.4509270000000  0.4005090000000  0.4783180000000 1.0
C      1  0.4564710000000  0.3986820000000  0.5714480000000 1.0
C      1  0.4571380000000  0.4564550000000  0.5984740000000 1.0
C      1  0.4541520000000  0.5064100000000  0.5972750000000 1.0
C      1  0.4504300000000  0.5570540000000  0.5895650000000 1.0
C      1  0.4444230000000  0.5873730000000  0.5434420000000 1.0
C      1  0.4673990000000  0.6077160000000  0.4959230000000 1.0
C      1  0.4542670000000  0.5816390000000  0.4428740000000 1.0
C      1  0.4542100000000  0.5197530000000  0.3969380000000 1.0
C      1  0.4300480000000  0.4184510000000  0.5677400000000 1.0
C      1  0.4407260000000  0.4802980000000  0.5916470000000 1.0
C      1  0.4371880000000  0.5322510000000  0.5934240000000 1.0
C      1  0.4354260000000  0.5721320000000  0.5707650000000 1.0
C      1  0.4392480000000  0.6014770000000  0.5139520000000 1.0
C      1  0.4390750000000  0.5839310000000  0.4649100000000 1.0
C      1  0.4377460000000  0.5679320000000  0.4179440000000 1.0
C      1  0.4394930000000  0.4900600000000  0.4016240000000 1.0
C      1  0.4337300000000  0.4407960000000  0.4181180000000 1.0
C      1  0.4309950000000  0.4131310000000  0.4563870000000 1.0
C      1  0.4460040000000  0.4016040000000  0.5113830000000 1.0
C      1  0.4122570000000  0.5776020000000  0.4670490000000 1.0
C      1  0.4235400000000  0.5486250000000  0.4420610000000 1.0
C      1  0.4243620000000  0.5056200000000  0.4251640000000 1.0
C      1  0.4286550000000  0.4677770000000  0.4373030000000 1.0
C      1  0.4284250000000  0.4408520000000  0.4667560000000 1.0
C      1  0.4336360000000  0.4294210000000  0.5045810000000 1.0
C      1  0.4310130000000  0.4371730000000  0.5454680000000 1.0
C      1  0.4326580000000  0.4774500000000  0.5630780000000 1.0
C      1  0.4298040000000  0.5171940000000  0.5657590000000 1.0
C      1  0.4254110000000  0.5524760000000  0.5472630000000 1.0
C      1  0.4245690000000  0.5727800000000  0.5120190000000 1.0
C      1  0.4785300000000  0.5573930000000  0.5947600000000 1.0
C      1  0.4631640000000  0.6130380000000  0.5352910000000 1.0
C      1  0.4867680000000  0.6083490000000  0.4699870000000 1.0
C      1  0.4732160000000  0.5785810000000  0.4177680000000 1.0
C      1  0.4730480000000  0.5185280000000  0.3720040000000 1.0
C      1  0.4828970000000  0.4526390000000  0.3929560000000 1.0
C      1  0.4616620000000  0.3996720000000  0.4228300000000 1.0
C      1  0.4720870000000  0.3842820000000  0.4997230000000 1.0
C      1  0.4802870000000  0.3811150000000  0.5776660000000 1.0
C      1  0.4724240000000  0.4384590000000  0.6137010000000 1.0
C      1  0.4834620000000  0.5068520000000  0.6129660000000 1.0
C      1  0.4948920000000  0.4142190000000  0.4648130000000 1.0
C      1  0.5234120000000  0.4311370000000  0.5194620000000 1.0
C      1  0.5027040000000  0.4300130000000  0.5633270000000 1.0
C      1  0.4987660000000  0.4760980000000  0.5731380000000 1.0
C      1  0.5096060000000  0.5313660000000  0.5757040000000 1.0
C      1  0.4884360000000  0.5757480000000  0.5561500000000 1.0
C      1  0.5106690000000  0.5851170000000  0.5200810000000 1.0
C      1  0.5261360000000  0.5665600000000  0.4543830000000 1.0
C      1  0.4862230000000  0.5399930000000  0.4370260000000 1.0
C      1  0.5047010000000  0.4955310000000  0.4214900000000 1.0
C      1  0.5127940000000  0.4582680000000  0.4371900000000 1.0
C      1  0.4886950000000  0.4627710000000  0.4928230000000 1.0
C      1  0.4951410000000  0.4446120000000  0.5201630000000 1.0
C      1  0.4806920000000  0.4754480000000  0.5233440000000 1.0
C      1  0.4886110000000  0.4945230000000  0.5490760000000 1.0
C      1  0.5054860000000  0.5206810000000  0.5463010000000 1.0
C      1  0.5005530000000  0.5307950000000  0.5156500000000 1.0
C      1  0.4862470000000  0.5353920000000  0.4891700000000 1.0
C      1  0.5035040000000  0.5457310000000  0.4620000000000 1.0
C      1  0.4944550000000  0.5144770000000  0.4666760000000 1.0
C      1  0.4908410000000  0.4902690000000  0.4521940000000 1.0
C      1  0.5024450000000  0.4667460000000  0.4684650000000 1.0
C      1  0.5686850000000  0.4607030000000  0.5837250000000 1.0
C      1  0.5623280000000  0.5140000000000  0.5898690000000 1.0
C      1  0.5637150000000  0.5613090000000  0.5688660000000 1.0
C      1  0.5713900000000  0.5882370000000  0.5234760000000 1.0
C      1  0.5709880000000  0.5872970000000  0.4747100000000 1.0
C      1  0.5736120000000  0.5607720000000  0.4307840000000 1.0
C      1  0.5606390000000  0.5122750000000  0.4114740000000 1.0
C      1  0.5656510000000  0.4629520000000  0.4194030000000 1.0
C      1  0.5647590000000  0.4261370000000  0.4525350000000 1.0
C      1  0.5639420000000  0.4099770000000  0.5000110000000 1.0
C      1  0.5649710000000  0.4252840000000  0.5494470000000 1.0
C      1  0.5011380000000  0.4282670000000  0.4039230000000 1.0
C      1  0.4855910000000  0.4022260000000  0.4340320000000 1.0
C      1  0.4985240000000  0.3831720000000  0.5215900000000 1.0
C      1  0.5098200000000  0.3959480000000  0.5826500000000 1.0
C      1  0.5012330000000  0.4518780000000  0.6148100000000 1.0
C      1  0.4920550000000  0.5390790000000  0.6133240000000 1.0
C      1  0.5089660000000  0.6182460000000  0.5680630000000 1.0
C      1  0.5085390000000  0.6246520000000  0.5174190000000 1.0
C      1  0.5033180000000  0.6084730000000  0.4465900000000 1.0
C      1  0.4980210000000  0.5613280000000  0.4055490000000 1.0
C      1  0.5010180000000  0.5066820000000  0.3832610000000 1.0
C      1  0.5363830000000  0.3870320000000  0.5374490000000 1.0
C      1  0.5413360000000  0.4509590000000  0.5893980000000 1.0
C      1  0.5374140000000  0.4944550000000  0.6173570000000 1.0
C      1  0.5306740000000  0.5674160000000  0.6081810000000 1.0
C      1  0.5397400000000  0.6075420000000  0.5357470000000 1.0
C      1  0.5431290000000  0.6254130000000  0.4806600000000 1.0
C      1  0.5364910000000  0.5979340000000  0.4193880000000 1.0
C      1  0.5381350000000  0.5366620000000  0.4040690000000 1.0
C      1  0.5440360000000  0.4844310000000  0.3881250000000 1.0
C      1  0.5429600000000  0.3968820000000  0.4157920000000 1.0
C      1  0.5333060000000  0.3816340000000  0.4745280000000 1.0
C      1  0.5341560000000  0.6060390000000  0.5638690000000 1.0
C      1  0.5385280000000  0.6264960000000  0.5094080000000 1.0
C      1  0.5341310000000  0.6160160000000  0.4481650000000 1.0
C      1  0.5286750000000  0.5692640000000  0.4014580000000 1.0
C      1  0.5315150000000  0.5095530000000  0.3846080000000 1.0
C      1  0.5324370000000  0.4268390000000  0.4035000000000 1.0
C      1  0.5357030000000  0.3856070000000  0.4473550000000 1.0
C      1  0.5276770000000  0.3736480000000  0.5074300000000 1.0
C      1  0.5353410000000  0.4185360000000  0.5836690000000 1.0
C      1  0.5297550000000  0.4657060000000  0.6137640000000 1.0
C      1  0.5196380000000  0.5429060000000  0.6126200000000 1.0
C      1  0.5875640000000  0.5225270000000  0.5515060000000 1.0
C      1  0.5815140000000  0.5412020000000  0.5275280000000 1.0
C      1  0.5917200000000  0.5534200000000  0.5006520000000 1.0
C      1  0.5839230000000  0.5424220000000  0.4733870000000 1.0
C      1  0.5900030000000  0.5224750000000  0.4507450000000 1.0
C      1  0.5771610000000  0.4953270000000  0.4503690000000 1.0
C      1  0.5819850000000  0.4693500000000  0.4659340000000 1.0
C      1  0.5896910000000  0.4462780000000  0.4862520000000 1.0
C      1  0.5814090000000  0.4535610000000  0.5153630000000 1.0
C      1  0.5897990000000  0.4668180000000  0.5421890000000 1.0
C      1  0.5855440000000  0.4935940000000  0.5536760000000 1.0
C      1  0.4519970000000  0.4012680000000  0.5393470000000 1.0
C      1  0.4755950000000  0.4209340000000  0.5542650000000 1.0
C      1  0.4710200000000  0.4630520000000  0.5723650000000 1.0
C      1  0.4824220000000  0.5173120000000  0.5812540000000 1.0
C      1  0.4654120000000  0.5642910000000  0.5455900000000 1.0
C      1  0.4801050000000  0.5818760000000  0.5123110000000 1.0
C      1  0.4567690000000  0.5761850000000  0.4885840000000 1.0
C      1  0.4571850000000  0.5421850000000  0.4219630000000 1.0
C      1  0.4739060000000  0.5060850000000  0.4200560000000 1.0
C      1  0.4816350000000  0.4630650000000  0.4245390000000 1.0
C      1  0.4669560000000  0.4256100000000  0.4680910000000 1.0
C      1  0.5222170000000  0.4573820000000  0.5633180000000 1.0
C      1  0.5329310000000  0.5192180000000  0.5973050000000 1.0
C      1  0.5374670000000  0.5771850000000  0.5776230000000 1.0
C      1  0.5400450000000  0.5752840000000  0.5259280000000 1.0
C      1  0.5374300000000  0.5928170000000  0.4728100000000 1.0
C      1  0.5463530000000  0.5678240000000  0.4276770000000 1.0
C      1  0.5311560000000  0.5097430000000  0.4245270000000 1.0
C      1  0.5330040000000  0.4607650000000  0.4099320000000 1.0
C      1  0.5398910000000  0.4164550000000  0.4412970000000 1.0
C      1  0.5323260000000  0.4060540000000  0.4982060000000 1.0
C      1  0.5316830000000  0.4183440000000  0.5498620000000 1.0
C      1  0.4067540000000  0.4401250000000  0.5222170000000 1.0
C      1  0.4084600000000  0.4631100000000  0.5455530000000 1.0
C      1  0.4093200000000  0.4964170000000  0.5482940000000 1.0
C      1  0.4020940000000  0.5282830000000  0.5487770000000 1.0
C      1  0.4023980000000  0.5486770000000  0.5223730000000 1.0
C      1  0.3965920000000  0.5655400000000  0.4941050000000 1.0
C      1  0.4003460000000  0.5456970000000  0.4667480000000 1.0
C      1  0.4002200000000  0.5236900000000  0.4408760000000 1.0
C      1  0.4059310000000  0.4908270000000  0.4477360000000 1.0
C      1  0.4035920000000  0.4617210000000  0.4605540000000 1.0
C      1  0.4085720000000  0.4495530000000  0.4916210000000 1.0
C      1  0.5795570000000  0.4468920000000  0.5617130000000 1.0
C      1  0.5723170000000  0.4888870000000  0.5803760000000 1.0
C      1  0.5735140000000  0.5350280000000  0.5747950000000 1.0
C      1  0.5745810000000  0.5679580000000  0.5445070000000 1.0
C      1  0.5834780000000  0.5813410000000  0.4995570000000 1.0
C      1  0.5819000000000  0.5691730000000  0.4557510000000 1.0
C      1  0.5802170000000  0.5342430000000  0.4260620000000 1.0
C      1  0.5793600000000  0.4889020000000  0.4183060000000 1.0
C      1  0.5730200000000  0.4497290000000  0.4421740000000 1.0
C      1  0.5756900000000  0.4222960000000  0.4777430000000 1.0
C      1  0.5726380000000  0.4233120000000  0.5226650000000 1.0
END
