TITL C-2622958-629-278 -0.0447959372989825 125000 -828.902409735757 0 0 153 (C1) n - 1
REM
REM in /nfs/bkarasulu/CARBON/AIRSS/Generating-Clusters/AIREBO/with-SteepDescent/Higher-Symm/SD-CG/HFTN-CG
REM
REM
REM
REM
REM
REM ./C.cell (b20cbc046b6831c77cfcea5457e17084)
REM
REM compiler GCC version 9.2.1 20190827 (Red Hat 9.2.1-1)
REM options -cpp -mtune=generic -march=x86-64 -g -O0 -fpre-include=/usr/include/finclude/math-vector-fortran.h
REM seed 2092016310 1787100689 1985399748 -1356674542 1292279219 470911860 1637301952 755241581 317871875 -1437488059 410529421 -19587107 1985548049 1771960203 -1594960639 -1308884526 -1291704052 -937068686 1235459265 1027954913 89748189 959456602 -1843848631 -1411108802 -1822335110 -1348100780 1093627664 1051476907 -305121976 -1318187915 537867721 1578179312 1660556557
REM
CELL 1.54180   50.00000   50.00000   50.00000   90.00000   90.00000   90.00000
LATT -1
SFAC C  
C      1  0.5831200000000  0.5357970000000  0.4547870000000 1.0
C      1  0.4318140000000  0.4679200000000  0.5353090000000 1.0
C      1  0.4980210000000  0.5004110000000  0.5613270000000 1.0
C      1  0.5087090000000  0.4941630000000  0.4415230000000 1.0
C      1  0.5474510000000  0.4108220000000  0.4630790000000 1.0
C      1  0.4529710000000  0.5851930000000  0.5411910000000 1.0
C      1  0.5301600000000  0.4096860000000  0.5272550000000 1.0
C      1  0.4735170000000  0.5876120000000  0.4774130000000 1.0
C      1  0.4396860000000  0.5267180000000  0.3885690000000 1.0
C      1  0.5575420000000  0.4690360000000  0.6041980000000 1.0
C      1  0.5162170000000  0.5313700000000  0.4541240000000 1.0
C      1  0.4821720000000  0.4688500000000  0.5436270000000 1.0
C      1  0.5128230000000  0.5130340000000  0.4135350000000 1.0
C      1  0.4872240000000  0.4916980000000  0.5923740000000 1.0
C      1  0.5164490000000  0.5639610000000  0.4538720000000 1.0
C      1  0.4816940000000  0.4366050000000  0.5481100000000 1.0
C      1  0.5149550000000  0.5018910000000  0.5318630000000 1.0
C      1  0.4877380000000  0.4960200000000  0.4682780000000 1.0
C      1  0.5179820000000  0.4647730000000  0.4357120000000 1.0
C      1  0.4871430000000  0.5299580000000  0.5659380000000 1.0
C      1  0.5649470000000  0.4388670000000  0.4676080000000 1.0
C      1  0.4406260000000  0.5541670000000  0.5347500000000 1.0
C      1  0.5115650000000  0.4556260000000  0.4678280000000 1.0
C      1  0.4874130000000  0.5389180000000  0.5331360000000 1.0
C      1  0.4721550000000  0.4089480000000  0.4764820000000 1.0
C      1  0.5281160000000  0.5951240000000  0.5265010000000 1.0
C      1  0.5531610000000  0.5094240000000  0.5102360000000 1.0
C      1  0.4442140000000  0.4931220000000  0.4863380000000 1.0
C      1  0.4369160000000  0.5649610000000  0.4525140000000 1.0
C      1  0.5513230000000  0.4267940000000  0.5474950000000 1.0
C      1  0.5031030000000  0.4184840000000  0.5844350000000 1.0
C      1  0.4896520000000  0.5865010000000  0.4205520000000 1.0
C      1  0.4237950000000  0.5021950000000  0.4292180000000 1.0
C      1  0.5755620000000  0.4971430000000  0.5666730000000 1.0
C      1  0.4690220000000  0.6012330000000  0.5152700000000 1.0
C      1  0.5286070000000  0.3937320000000  0.4864370000000 1.0
C      1  0.5041540000000  0.5094050000000  0.6108130000000 1.0
C      1  0.4894120000000  0.5054750000000  0.3945640000000 1.0
C      1  0.4777440000000  0.5579760000000  0.4927450000000 1.0
C      1  0.5228470000000  0.4361420000000  0.5105300000000 1.0
C      1  0.4811250000000  0.4612390000000  0.6011250000000 1.0
C      1  0.5198390000000  0.5448110000000  0.4078420000000 1.0
C      1  0.5382770000000  0.4806640000000  0.5191460000000 1.0
C      1  0.4629320000000  0.5177250000000  0.4766360000000 1.0
C      1  0.5035920000000  0.5717410000000  0.4805350000000 1.0
C      1  0.4935440000000  0.4397140000000  0.5191870000000 1.0
C      1  0.5278550000000  0.4856100000000  0.5681990000000 1.0
C      1  0.4739290000000  0.5149020000000  0.4225650000000 1.0
C      1  0.5810630000000  0.5481340000000  0.4849870000000 1.0
C      1  0.4140530000000  0.4532790000000  0.5118060000000 1.0
C      1  0.4887690000000  0.4788040000000  0.3691030000000 1.0
C      1  0.5320830000000  0.5432710000000  0.6300950000000 1.0
C      1  0.4617690000000  0.4679750000000  0.4936400000000 1.0
C      1  0.5361190000000  0.5360170000000  0.5037980000000 1.0
C      1  0.5527830000000  0.5585400000000  0.5321100000000 1.0
C      1  0.4458550000000  0.4414330000000  0.4656420000000 1.0
C      1  0.5479510000000  0.4595880000000  0.5440210000000 1.0
C      1  0.4518740000000  0.5349910000000  0.4495080000000 1.0
C      1  0.5537420000000  0.5592980000000  0.4924530000000 1.0
C      1  0.4439100000000  0.4454290000000  0.5048470000000 1.0
C      1  0.5949280000000  0.4828230000000  0.5188180000000 1.0
C      1  0.4063530000000  0.5200620000000  0.4769590000000 1.0
C      1  0.4572310000000  0.5135780000000  0.5688400000000 1.0
C      1  0.5495530000000  0.4725880000000  0.4322950000000 1.0
C      1  0.5241090000000  0.5739340000000  0.5004390000000 1.0
C      1  0.4744250000000  0.4309110000000  0.5010800000000 1.0
C      1  0.5857750000000  0.5675320000000  0.4592890000000 1.0
C      1  0.3995210000000  0.4361240000000  0.5367440000000 1.0
C      1  0.5429950000000  0.5599720000000  0.4144720000000 1.0
C      1  0.4563110000000  0.4511230000000  0.5949750000000 1.0
C      1  0.4872950000000  0.4579700000000  0.4361570000000 1.0
C      1  0.5150570000000  0.5449440000000  0.5621080000000 1.0
C      1  0.5581230000000  0.5861100000000  0.5129030000000 1.0
C      1  0.4408010000000  0.4160970000000  0.4879320000000 1.0
C      1  0.5885740000000  0.5312210000000  0.5076410000000 1.0
C      1  0.4097940000000  0.4711110000000  0.4878550000000 1.0
C      1  0.4265230000000  0.4635420000000  0.4662800000000 1.0
C      1  0.5730970000000  0.5376430000000  0.5302380000000 1.0
C      1  0.4862750000000  0.4098350000000  0.4500070000000 1.0
C      1  0.5135030000000  0.5915960000000  0.5526260000000 1.0
C      1  0.5877610000000  0.4610630000000  0.4795820000000 1.0
C      1  0.4133830000000  0.5395080000000  0.5206390000000 1.0
C      1  0.4694790000000  0.4750960000000  0.3918340000000 1.0
C      1  0.5270730000000  0.5258360000000  0.6100870000000 1.0
C      1  0.4569020000000  0.5242790000000  0.5365640000000 1.0
C      1  0.5443010000000  0.4657820000000  0.4651950000000 1.0
C      1  0.5426270000000  0.5727860000000  0.4400120000000 1.0
C      1  0.4535420000000  0.4486800000000  0.5626160000000 1.0
C      1  0.4392500000000  0.4891280000000  0.4534530000000 1.0
C      1  0.5617810000000  0.5121620000000  0.5430150000000 1.0
C      1  0.5501720000000  0.4915680000000  0.4814560000000 1.0
C      1  0.4452880000000  0.4963010000000  0.5201750000000 1.0
C      1  0.4780150000000  0.4280480000000  0.4315320000000 1.0
C      1  0.5228250000000  0.5733400000000  0.5705250000000 1.0
C      1  0.4422590000000  0.5264330000000  0.4180340000000 1.0
C      1  0.5580260000000  0.4711890000000  0.5743560000000 1.0
C      1  0.4249750000000  0.5034100000000  0.5702770000000 1.0
C      1  0.5585620000000  0.5017840000000  0.4349070000000 1.0
C      1  0.4274800000000  0.4779060000000  0.4144490000000 1.0
C      1  0.5724330000000  0.5151580000000  0.5881700000000 1.0
C      1  0.4900420000000  0.5390530000000  0.4337520000000 1.0
C      1  0.5077100000000  0.4619660000000  0.5647920000000 1.0
C      1  0.5335630000000  0.5172440000000  0.5570960000000 1.0
C      1  0.4695720000000  0.4865650000000  0.4410990000000 1.0
C      1  0.5624410000000  0.4168330000000  0.5185500000000 1.0
C      1  0.4440980000000  0.5761310000000  0.4768020000000 1.0
C      1  0.5821750000000  0.4920730000000  0.4765040000000 1.0
C      1  0.4139650000000  0.5095290000000  0.5207390000000 1.0
C      1  0.5010430000000  0.3938700000000  0.5349090000000 1.0
C      1  0.4981800000000  0.6099440000000  0.4703490000000 1.0
C      1  0.5211090000000  0.5457590000000  0.5300960000000 1.0
C      1  0.4772950000000  0.4541480000000  0.4681360000000 1.0
C      1  0.5142800000000  0.4081330000000  0.4526740000000 1.0
C      1  0.4866530000000  0.5888150000000  0.5480980000000 1.0
C      1  0.5020900000000  0.4466030000000  0.5884710000000 1.0
C      1  0.4944840000000  0.5600820000000  0.4125080000000 1.0
C      1  0.5715830000000  0.4390350000000  0.5009600000000 1.0
C      1  0.4350160000000  0.5583100000000  0.5014610000000 1.0
C      1  0.5622130000000  0.5837440000000  0.4573530000000 1.0
C      1  0.4331820000000  0.4344890000000  0.5414390000000 1.0
C      1  0.4451400000000  0.4098260000000  0.5211430000000 1.0
C      1  0.5531420000000  0.5975750000000  0.4812400000000 1.0
C      1  0.5151950000000  0.4674490000000  0.4994620000000 1.0
C      1  0.4828070000000  0.5270320000000  0.5015270000000 1.0
C      1  0.5304130000000  0.6140090000000  0.4802830000000 1.0
C      1  0.4680260000000  0.3930800000000  0.5251820000000 1.0
C      1  0.4825660000000  0.3885570000000  0.4998460000000 1.0
C      1  0.5154250000000  0.6157520000000  0.5058510000000 1.0
C      1  0.4982110000000  0.5904850000000  0.4459140000000 1.0
C      1  0.4944910000000  0.4121560000000  0.5594520000000 1.0
C      1  0.4431810000000  0.5407380000000  0.5828620000000 1.0
C      1  0.5696170000000  0.4527190000000  0.4207740000000 1.0
C      1  0.5800180000000  0.4374950000000  0.4382860000000 1.0
C      1  0.4297300000000  0.5547240000000  0.5664130000000 1.0
C      1  0.5250820000000  0.5147560000000  0.4824680000000 1.0
C      1  0.4767330000000  0.4828240000000  0.5181060000000 1.0
C      1  0.4648440000000  0.4804350000000  0.5693780000000 1.0
C      1  0.5376590000000  0.5198720000000  0.4333790000000 1.0
C      1  0.4338980000000  0.5352770000000  0.4790450000000 1.0
C      1  0.5687760000000  0.4656900000000  0.5174570000000 1.0
C      1  0.5728160000000  0.4405140000000  0.5683960000000 1.0
C      1  0.4297540000000  0.5575860000000  0.4252440000000 1.0
C      1  0.5799850000000  0.5092170000000  0.4510450000000 1.0
C      1  0.4159270000000  0.4923110000000  0.5469980000000 1.0
C      1  0.5225340000000  0.4265770000000  0.4800270000000 1.0
C      1  0.4762850000000  0.5688270000000  0.5226120000000 1.0
C      1  0.5949210000000  0.5047310000000  0.5015630000000 1.0
C      1  0.4037460000000  0.4980740000000  0.4938260000000 1.0
C      1  0.5110180000000  0.3832060000000  0.5041990000000 1.0
C      1  0.4859610000000  0.6171390000000  0.5012700000000 1.0
C      1  0.4550730000000  0.4711770000000  0.4144500000000 1.0
C      1  0.5449050000000  0.5229200000000  0.5886530000000 1.0
C      1  0.5010940000000  0.4983920000000  0.5001820000000 1.0
END
