TITL C-2622959-7779-740 0.00281488922216523 125000 -759.431831212937 0 0 147 (C1) n - 1
REM
REM in /nfs/bkarasulu/CARBON/AIRSS/Generating-Clusters/AIREBO/with-SteepDescent/Higher-Symm/SD-CG/HFTN-CG
REM
REM
REM
REM
REM
REM ./C.cell (b20cbc046b6831c77cfcea5457e17084)
REM
REM compiler GCC version 9.2.1 20190827 (Red Hat 9.2.1-1)
REM options -cpp -mtune=generic -march=x86-64 -g -O0 -fpre-include=/usr/include/finclude/math-vector-fortran.h
REM seed -1897093321 -1863637039 248012600 -258697472 596755517 -1425050703 -1547987619 441204969 -262275944 -1834175317 -719925941 -603938082 -181056420 1649771576 -1453042597 -1766461572 -1531870114 713891853 1187268569 -1305177678 -1997390277 -1250337222 -1025365378 -1730490150 553053649 1150724581 -917574058 1174886206 773044809 1246131945 1891911187 1668211155 1317065497
REM
CELL 1.54180   50.00000   50.00000   50.00000   90.00000   90.00000   90.00000
LATT -1
SFAC C  
C      1  0.4658750000000  0.4229330000000  0.4423400000000 1.0
C      1  0.5827690000000  0.5082800000000  0.4421620000000 1.0
C      1  0.4490250000000  0.5684910000000  0.4422270000000 1.0
C      1  0.5259830000000  0.4492220000000  0.4384640000000 1.0
C      1  0.5299730000000  0.5453130000000  0.4347750000000 1.0
C      1  0.4512310000000  0.5012110000000  0.4364470000000 1.0
C      1  0.4550350000000  0.5782910000000  0.5668130000000 1.0
C      1  0.4564330000000  0.4197910000000  0.5643060000000 1.0
C      1  0.5898990000000  0.5023620000000  0.5631530000000 1.0
C      1  0.5852770000000  0.5285660000000  0.5221470000000 1.0
C      1  0.4329420000000  0.5641510000000  0.5251860000000 1.0
C      1  0.4800740000000  0.4094050000000  0.5232270000000 1.0
C      1  0.4858030000000  0.4580890000000  0.4615690000000 1.0
C      1  0.5414450000000  0.4993090000000  0.4647340000000 1.0
C      1  0.4794590000000  0.5384540000000  0.4672900000000 1.0
C      1  0.4497000000000  0.4798530000000  0.5697450000000 1.0
C      1  0.5416510000000  0.4671250000000  0.5710040000000 1.0
C      1  0.5101220000000  0.5600040000000  0.5786090000000 1.0
C      1  0.5193230000000  0.4181560000000  0.4883290000000 1.0
C      1  0.5587510000000  0.5552920000000  0.4859280000000 1.0
C      1  0.4241790000000  0.5252320000000  0.4888850000000 1.0
C      1  0.4378730000000  0.5301000000000  0.4425380000000 1.0
C      1  0.5097280000000  0.4194050000000  0.4365420000000 1.0
C      1  0.5631410000000  0.5452300000000  0.4422710000000 1.0
C      1  0.4270620000000  0.4432090000000  0.5146190000000 1.0
C      1  0.5847210000000  0.4674860000000  0.5091630000000 1.0
C      1  0.4851740000000  0.5900710000000  0.5131590000000 1.0
C      1  0.4326420000000  0.5708190000000  0.4720620000000 1.0
C      1  0.4734380000000  0.4061760000000  0.4709800000000 1.0
C      1  0.5928130000000  0.5237720000000  0.4707460000000 1.0
C      1  0.4330850000000  0.5514850000000  0.4179770000000 1.0
C      1  0.4874180000000  0.4102380000000  0.4193000000000 1.0
C      1  0.5832920000000  0.5355470000000  0.4220250000000 1.0
C      1  0.5027690000000  0.4742270000000  0.4838040000000 1.0
C      1  0.5230780000000  0.5174320000000  0.4852100000000 1.0
C      1  0.4763400000000  0.5099070000000  0.4855530000000 1.0
C      1  0.5725910000000  0.4376710000000  0.4855590000000 1.0
C      1  0.5154850000000  0.5945930000000  0.4875550000000 1.0
C      1  0.4093940000000  0.4710180000000  0.4827590000000 1.0
C      1  0.4552760000000  0.4835030000000  0.4899120000000 1.0
C      1  0.5358180000000  0.4674850000000  0.4882320000000 1.0
C      1  0.5084720000000  0.5470120000000  0.4934410000000 1.0
C      1  0.4137430000000  0.4487670000000  0.4673470000000 1.0
C      1  0.5873690000000  0.4548590000000  0.4700080000000 1.0
C      1  0.4925740000000  0.5995100000000  0.4734840000000 1.0
C      1  0.4790530000000  0.4400520000000  0.5085390000000 1.0
C      1  0.5599410000000  0.5122890000000  0.5063610000000 1.0
C      1  0.4585570000000  0.5474250000000  0.5101850000000 1.0
C      1  0.5324970000000  0.5708740000000  0.5638270000000 1.0
C      1  0.4275780000000  0.4943020000000  0.5613390000000 1.0
C      1  0.5400360000000  0.4404400000000  0.5633850000000 1.0
C      1  0.4809680000000  0.4739580000000  0.5101770000000 1.0
C      1  0.5312220000000  0.4942380000000  0.5087160000000 1.0
C      1  0.4868320000000  0.5286690000000  0.5123690000000 1.0
C      1  0.4989210000000  0.4249940000000  0.5456470000000 1.0
C      1  0.5609210000000  0.5358880000000  0.5443310000000 1.0
C      1  0.4377650000000  0.5381670000000  0.5451380000000 1.0
C      1  0.5414230000000  0.5279800000000  0.4104360000000 1.0
C      1  0.4576880000000  0.5196500000000  0.4099380000000 1.0
C      1  0.5078900000000  0.4527360000000  0.4098900000000 1.0
C      1  0.4629560000000  0.4723000000000  0.4321470000000 1.0
C      1  0.5405580000000  0.4847340000000  0.4277570000000 1.0
C      1  0.4964460000000  0.5458350000000  0.4291430000000 1.0
C      1  0.4763450000000  0.4905820000000  0.4575010000000 1.0
C      1  0.5189020000000  0.4785970000000  0.4541310000000 1.0
C      1  0.5093580000000  0.5305280000000  0.4574260000000 1.0
C      1  0.4283480000000  0.4933200000000  0.4779190000000 1.0
C      1  0.5432260000000  0.4396130000000  0.4795590000000 1.0
C      1  0.5279410000000  0.5682650000000  0.4812500000000 1.0
C      1  0.5432730000000  0.5101950000000  0.5542030000000 1.0
C      1  0.4668990000000  0.5350220000000  0.5598180000000 1.0
C      1  0.4865160000000  0.4530510000000  0.5569910000000 1.0
C      1  0.5442480000000  0.5297030000000  0.5798660000000 1.0
C      1  0.4541280000000  0.5261060000000  0.5890180000000 1.0
C      1  0.4977180000000  0.4513290000000  0.5886460000000 1.0
C      1  0.5010130000000  0.5522460000000  0.5323790000000 1.0
C      1  0.4521770000000  0.4727180000000  0.5282480000000 1.0
C      1  0.5453870000000  0.4710130000000  0.5291220000000 1.0
C      1  0.5171310000000  0.5054550000000  0.5375570000000 1.0
C      1  0.4851100000000  0.5137490000000  0.5428950000000 1.0
C      1  0.4989100000000  0.4767970000000  0.5390150000000 1.0
C      1  0.5728170000000  0.5769260000000  0.4645470000000 1.0
C      1  0.3953190000000  0.5260770000000  0.4694830000000 1.0
C      1  0.5367340000000  0.3935730000000  0.4724610000000 1.0
C      1  0.5580830000000  0.4597650000000  0.4346340000000 1.0
C      1  0.4922740000000  0.5760950000000  0.4347000000000 1.0
C      1  0.4406180000000  0.4535230000000  0.4381110000000 1.0
C      1  0.4836330000000  0.4486940000000  0.4289640000000 1.0
C      1  0.5554780000000  0.5068750000000  0.4219080000000 1.0
C      1  0.4669000000000  0.5480040000000  0.4217900000000 1.0
C      1  0.4608700000000  0.6079060000000  0.5272920000000 1.0
C      1  0.4273840000000  0.4111230000000  0.5250260000000 1.0
C      1  0.6112560000000  0.4828640000000  0.5229170000000 1.0
C      1  0.4507750000000  0.4502100000000  0.4952430000000 1.0
C      1  0.5658110000000  0.4833780000000  0.4919990000000 1.0
C      1  0.4801910000000  0.5654580000000  0.4967440000000 1.0
C      1  0.5189880000000  0.5357220000000  0.5917570000000 1.0
C      1  0.4728110000000  0.4967440000000  0.5696890000000 1.0
C      1  0.5161220000000  0.4798790000000  0.5682010000000 1.0
C      1  0.4009940000000  0.5168010000000  0.5284000000000 1.0
C      1  0.5338500000000  0.4043820000000  0.5310450000000 1.0
C      1  0.5637540000000  0.5772920000000  0.5292850000000 1.0
C      1  0.4308970000000  0.5208410000000  0.5696800000000 1.0
C      1  0.5153760000000  0.4303080000000  0.5719830000000 1.0
C      1  0.5567790000000  0.5555350000000  0.5690560000000 1.0
C      1  0.4537330000000  0.5133100000000  0.3850970000000 1.0
C      1  0.5118050000000  0.4530400000000  0.3845680000000 1.0
C      1  0.5377210000000  0.5349010000000  0.3843940000000 1.0
C      1  0.5170990000000  0.5952800000000  0.5172440000000 1.0
C      1  0.4092490000000  0.4674750000000  0.5108170000000 1.0
C      1  0.5734340000000  0.4366010000000  0.5154830000000 1.0
C      1  0.4238780000000  0.4916400000000  0.5276400000000 1.0
C      1  0.5431760000000  0.4370650000000  0.5296870000000 1.0
C      1  0.5308800000000  0.5685740000000  0.5299420000000 1.0
C      1  0.5695950000000  0.4813620000000  0.4582520000000 1.0
C      1  0.4751020000000  0.5720020000000  0.4637630000000 1.0
C      1  0.4447220000000  0.4356080000000  0.4657650000000 1.0
C      1  0.5428020000000  0.5710760000000  0.4528810000000 1.0
C      1  0.4159920000000  0.5104500000000  0.4527940000000 1.0
C      1  0.5386780000000  0.4189360000000  0.4534670000000 1.0
C      1  0.4087840000000  0.5435120000000  0.5130680000000 1.0
C      1  0.5096150000000  0.3963660000000  0.5125610000000 1.0
C      1  0.5813140000000  0.5603950000000  0.5108500000000 1.0
C      1  0.4844210000000  0.5624850000000  0.5602410000000 1.0
C      1  0.4544140000000  0.4525910000000  0.5555590000000 1.0
C      1  0.5625660000000  0.4840700000000  0.5553980000000 1.0
C      1  0.4978600000000  0.4276960000000  0.4653940000000 1.0
C      1  0.5592120000000  0.5261160000000  0.4688370000000 1.0
C      1  0.4466440000000  0.5408720000000  0.4706190000000 1.0
C      1  0.5071990000000  0.5155280000000  0.6063960000000 1.0
C      1  0.4769610000000  0.5078680000000  0.5999690000000 1.0
C      1  0.5005960000000  0.4839120000000  0.5953060000000 1.0
C      1  0.4410010000000  0.5193330000000  0.5178420000000 1.0
C      1  0.5120420000000  0.4365390000000  0.5159970000000 1.0
C      1  0.5459620000000  0.5422220000000  0.5146030000000 1.0
C      1  0.6021450000000  0.5086280000000  0.5385420000000 1.0
C      1  0.4432610000000  0.5870310000000  0.5427660000000 1.0
C      1  0.4545490000000  0.4053790000000  0.5400150000000 1.0
C      1  0.5879190000000  0.4666790000000  0.5419710000000 1.0
C      1  0.4855370000000  0.5933190000000  0.5459560000000 1.0
C      1  0.4253450000000  0.4373560000000  0.5466740000000 1.0
C      1  0.4133890000000  0.3908540000000  0.5133450000000 1.0
C      1  0.6368200000000  0.4804780000000  0.5136510000000 1.0
C      1  0.4512170000000  0.6318100000000  0.5186460000000 1.0
C      1  0.4191280000000  0.5734870000000  0.4955480000000 1.0
C      1  0.4787680000000  0.3923760000000  0.4938260000000 1.0
C      1  0.6016260000000  0.5359270000000  0.4932550000000 1.0
END
