TITL C-2622961-1971-380 -0.000355964725434269 125000 -626.086812690103 0 0 114 (C1) n - 1
REM
REM in /nfs/bkarasulu/CARBON/AIRSS/Generating-Clusters/AIREBO/with-SteepDescent/Higher-Symm/SD-CG/HFTN-CG
REM
REM
REM
REM
REM
REM ./C.cell (b20cbc046b6831c77cfcea5457e17084)
REM
REM compiler GCC version 9.2.1 20190827 (Red Hat 9.2.1-1)
REM options -cpp -mtune=generic -march=x86-64 -g -O0 -fpre-include=/usr/include/finclude/math-vector-fortran.h
REM seed 1860838656 -1185069908 -1708534821 -1213733344 -1929247931 1877708562 1588179803 2036154752 1990854451 919387429 1780538947 1724929927 -560927089 1780676019 -2138561794 -921598819 1333938817 1369336026 262695860 -1830611108 1463181675 -1697224325 1028164531 -896064099 -77102562 -1149916898 -499906251 -1651783446 -1651008529 -1256972329 -898964008 -2061222872 -951679029
REM
CELL 1.54180   50.00000   50.00000   50.00000   90.00000   90.00000   90.00000
LATT -1
SFAC C  
C      1  0.4823850000000  0.4792560000000  0.4487390000000 1.0
C      1  0.5102140000000  0.5184480000000  0.4427400000000 1.0
C      1  0.4841200000000  0.5068790000000  0.4398780000000 1.0
C      1  0.5277610000000  0.4927070000000  0.4395760000000 1.0
C      1  0.4859020000000  0.5568260000000  0.4421570000000 1.0
C      1  0.5100850000000  0.4388270000000  0.4441440000000 1.0
C      1  0.4806260000000  0.4327300000000  0.4404810000000 1.0
C      1  0.5193010000000  0.5568470000000  0.4482130000000 1.0
C      1  0.5427180000000  0.5464550000000  0.4316160000000 1.0
C      1  0.4638360000000  0.4509330000000  0.4279380000000 1.0
C      1  0.5340010000000  0.4507600000000  0.4258200000000 1.0
C      1  0.4660480000000  0.5402110000000  0.4279120000000 1.0
C      1  0.4352160000000  0.5285850000000  0.4905360000000 1.0
C      1  0.5663240000000  0.4801720000000  0.4884230000000 1.0
C      1  0.4407480000000  0.4701150000000  0.4918560000000 1.0
C      1  0.5608440000000  0.5128160000000  0.4806460000000 1.0
C      1  0.5435720000000  0.5152130000000  0.5274510000000 1.0
C      1  0.4584440000000  0.4972100000000  0.5306030000000 1.0
C      1  0.5432980000000  0.4846270000000  0.5250250000000 1.0
C      1  0.4587920000000  0.5302400000000  0.5265120000000 1.0
C      1  0.5364880000000  0.5192420000000  0.4209140000000 1.0
C      1  0.4797240000000  0.4763570000000  0.4149590000000 1.0
C      1  0.5122170000000  0.4719750000000  0.4195660000000 1.0
C      1  0.4709850000000  0.5100750000000  0.4129630000000 1.0
C      1  0.4778010000000  0.5199110000000  0.5721810000000 1.0
C      1  0.5162770000000  0.4837410000000  0.5638070000000 1.0
C      1  0.4821230000000  0.4866250000000  0.5667490000000 1.0
C      1  0.5094830000000  0.5156280000000  0.5674380000000 1.0
C      1  0.5214860000000  0.4166730000000  0.4603030000000 1.0
C      1  0.4758920000000  0.5735130000000  0.4640000000000 1.0
C      1  0.5265480000000  0.5807470000000  0.4655010000000 1.0
C      1  0.4706680000000  0.4182200000000  0.4632650000000 1.0
C      1  0.4238020000000  0.4631690000000  0.4643050000000 1.0
C      1  0.5820760000000  0.5289880000000  0.4625350000000 1.0
C      1  0.4210390000000  0.5307340000000  0.4628050000000 1.0
C      1  0.5789640000000  0.4691950000000  0.4586960000000 1.0
C      1  0.4426920000000  0.4320150000000  0.5278110000000 1.0
C      1  0.5497110000000  0.5685950000000  0.5468110000000 1.0
C      1  0.4384050000000  0.5635350000000  0.5431770000000 1.0
C      1  0.5642350000000  0.4332480000000  0.5270460000000 1.0
C      1  0.5826620000000  0.5192140000000  0.5209820000000 1.0
C      1  0.4212140000000  0.4801940000000  0.5156160000000 1.0
C      1  0.5814960000000  0.4915550000000  0.5156140000000 1.0
C      1  0.4222750000000  0.5138420000000  0.5163800000000 1.0
C      1  0.5774280000000  0.5606810000000  0.4739380000000 1.0
C      1  0.4180710000000  0.4379260000000  0.4855000000000 1.0
C      1  0.5718030000000  0.4366360000000  0.4653900000000 1.0
C      1  0.4309270000000  0.5620660000000  0.4611580000000 1.0
C      1  0.5679240000000  0.5510570000000  0.4426880000000 1.0
C      1  0.4395720000000  0.4544900000000  0.4390910000000 1.0
C      1  0.5583990000000  0.4524380000000  0.4383540000000 1.0
C      1  0.4397610000000  0.5432500000000  0.4375320000000 1.0
C      1  0.5145420000000  0.5241560000000  0.5201090000000 1.0
C      1  0.4814250000000  0.4758290000000  0.5258970000000 1.0
C      1  0.5122680000000  0.4795730000000  0.5120780000000 1.0
C      1  0.4860070000000  0.5245170000000  0.5125510000000 1.0
C      1  0.4537410000000  0.5524260000000  0.5640190000000 1.0
C      1  0.5463080000000  0.4498410000000  0.5501090000000 1.0
C      1  0.4524080000000  0.4462450000000  0.5536820000000 1.0
C      1  0.5372540000000  0.5451330000000  0.5601110000000 1.0
C      1  0.4246420000000  0.5479590000000  0.5164120000000 1.0
C      1  0.5717640000000  0.4477560000000  0.4971440000000 1.0
C      1  0.4171400000000  0.4464580000000  0.5135650000000 1.0
C      1  0.5702710000000  0.5391350000000  0.4992470000000 1.0
C      1  0.4691810000000  0.4832560000000  0.4950500000000 1.0
C      1  0.5290420000000  0.5168000000000  0.4902190000000 1.0
C      1  0.4633250000000  0.5142750000000  0.4901950000000 1.0
C      1  0.5320870000000  0.4832130000000  0.4858480000000 1.0
C      1  0.4025800000000  0.4840190000000  0.4585590000000 1.0
C      1  0.6036670000000  0.5111110000000  0.4515730000000 1.0
C      1  0.4020170000000  0.5085760000000  0.4568930000000 1.0
C      1  0.6015570000000  0.4863990000000  0.4487920000000 1.0
C      1  0.5074290000000  0.5924950000000  0.5387620000000 1.0
C      1  0.4895780000000  0.4230220000000  0.5443310000000 1.0
C      1  0.5185770000000  0.4162190000000  0.5420990000000 1.0
C      1  0.4806710000000  0.5870050000000  0.5459010000000 1.0
C      1  0.4571200000000  0.5840260000000  0.5305560000000 1.0
C      1  0.5453980000000  0.4104440000000  0.5419420000000 1.0
C      1  0.4653070000000  0.4113630000000  0.5391730000000 1.0
C      1  0.5360590000000  0.5933780000000  0.5467370000000 1.0
C      1  0.5137780000000  0.4362260000000  0.5150290000000 1.0
C      1  0.4890130000000  0.5628140000000  0.5018060000000 1.0
C      1  0.5161240000000  0.5639930000000  0.5223880000000 1.0
C      1  0.4862190000000  0.4472270000000  0.4984220000000 1.0
C      1  0.4982760000000  0.5877490000000  0.4809310000000 1.0
C      1  0.5201610000000  0.4100900000000  0.4936590000000 1.0
C      1  0.4901050000000  0.4186440000000  0.4845660000000 1.0
C      1  0.5265950000000  0.5871010000000  0.4997470000000 1.0
C      1  0.5495660000000  0.4804460000000  0.5642510000000 1.0
C      1  0.4492320000000  0.5252610000000  0.5758710000000 1.0
C      1  0.5437900000000  0.5125270000000  0.5672090000000 1.0
C      1  0.4514430000000  0.4745500000000  0.5626680000000 1.0
C      1  0.4558110000000  0.5584470000000  0.5077330000000 1.0
C      1  0.5425900000000  0.4537790000000  0.5107310000000 1.0
C      1  0.4547340000000  0.4433140000000  0.5005980000000 1.0
C      1  0.5462730000000  0.5483660000000  0.5203050000000 1.0
C      1  0.4907170000000  0.4701160000000  0.4762830000000 1.0
C      1  0.5126230000000  0.5321120000000  0.4693140000000 1.0
C      1  0.4867660000000  0.5370190000000  0.4826790000000 1.0
C      1  0.5193660000000  0.4681100000000  0.4587180000000 1.0
C      1  0.4332270000000  0.5223750000000  0.5475220000000 1.0
C      1  0.5725480000000  0.4754000000000  0.5397050000000 1.0
C      1  0.4297930000000  0.4891230000000  0.5464520000000 1.0
C      1  0.5689590000000  0.5248360000000  0.5479240000000 1.0
C      1  0.5155630000000  0.4597810000000  0.5395270000000 1.0
C      1  0.4841900000000  0.5620040000000  0.5646770000000 1.0
C      1  0.5065570000000  0.5429180000000  0.5473420000000 1.0
C      1  0.4852200000000  0.4555310000000  0.5533090000000 1.0
C      1  0.5521270000000  0.5730280000000  0.4851130000000 1.0
C      1  0.4458130000000  0.4271020000000  0.4739370000000 1.0
C      1  0.5461160000000  0.4244470000000  0.4778300000000 1.0
C      1  0.4517830000000  0.5696110000000  0.4771330000000 1.0
C      1  0.4937090000000  0.4466110000000  0.5832620000000 1.0
C      1  0.4934650000000  0.5693200000000  0.5904960000000 1.0
END
