TITL C-2622967-6265-302 0.00175226015873425 125000 -529.020492903491 0 0 103 (C1) n - 1
REM
REM in /nfs/bkarasulu/CARBON/AIRSS/Generating-Clusters/AIREBO/with-SteepDescent/Higher-Symm/SD-CG/HFTN-CG
REM
REM
REM
REM
REM
REM ./C.cell (b20cbc046b6831c77cfcea5457e17084)
REM
REM compiler GCC version 9.2.1 20190827 (Red Hat 9.2.1-1)
REM options -cpp -mtune=generic -march=x86-64 -g -O0 -fpre-include=/usr/include/finclude/math-vector-fortran.h
REM seed -1069049783 1418145687 -1358892026 -637686046 1082014195 -181589290 1043094111 144925398 -657913884 593560369 -132287296 1674320155 -219249374 -1188220690 -958695484 2095228848 1300477196 743066506 291428643 -1464398281 621942368 -1759103978 280348539 -964125785 204620530 -1313995969 334555953 -1937091471 1121519816 1648671237 6436360 -1136521779 -1053386822
REM
CELL 1.54180   50.00000   50.00000   50.00000   90.00000   90.00000   90.00000
LATT -1
SFAC C  
C      1  0.5485800000000  0.5228820000000  0.5376010000000 1.0
C      1  0.5158840000000  0.4801930000000  0.5560310000000 1.0
C      1  0.4846390000000  0.5180590000000  0.5550450000000 1.0
C      1  0.4408070000000  0.4810820000000  0.5329870000000 1.0
C      1  0.4349550000000  0.5232340000000  0.4984790000000 1.0
C      1  0.4514210000000  0.4825250000000  0.4573900000000 1.0
C      1  0.4864740000000  0.5132300000000  0.4487290000000 1.0
C      1  0.5156990000000  0.4813840000000  0.4480320000000 1.0
C      1  0.5541670000000  0.5246560000000  0.4661080000000 1.0
C      1  0.5637380000000  0.4801800000000  0.5019420000000 1.0
C      1  0.5375740000000  0.4575510000000  0.5618360000000 1.0
C      1  0.5006460000000  0.5406790000000  0.5722290000000 1.0
C      1  0.4484690000000  0.4586630000000  0.5536690000000 1.0
C      1  0.4291510000000  0.5455910000000  0.5200100000000 1.0
C      1  0.4374210000000  0.4577070000000  0.4743980000000 1.0
C      1  0.4672650000000  0.5387540000000  0.4386980000000 1.0
C      1  0.4978550000000  0.4579300000000  0.4340320000000 1.0
C      1  0.5472760000000  0.5446090000000  0.4422710000000 1.0
C      1  0.5729530000000  0.4573230000000  0.4815780000000 1.0
C      1  0.5716080000000  0.5465540000000  0.5315070000000 1.0
C      1  0.4706460000000  0.4468890000000  0.5139890000000 1.0
C      1  0.4646920000000  0.5549080000000  0.4905440000000 1.0
C      1  0.4823630000000  0.4490230000000  0.4766200000000 1.0
C      1  0.4990960000000  0.5513670000000  0.4703820000000 1.0
C      1  0.5204220000000  0.4479040000000  0.4749100000000 1.0
C      1  0.5470230000000  0.5601040000000  0.4831470000000 1.0
C      1  0.5354070000000  0.4377000000000  0.5104930000000 1.0
C      1  0.5209480000000  0.5602620000000  0.5163700000000 1.0
C      1  0.5034290000000  0.4476880000000  0.5364870000000 1.0
C      1  0.4834700000000  0.5497170000000  0.5253620000000 1.0
C      1  0.5551180000000  0.4472340000000  0.5365170000000 1.0
C      1  0.5295280000000  0.5590750000000  0.5703330000000 1.0
C      1  0.4783100000000  0.4459900000000  0.5566970000000 1.0
C      1  0.4539730000000  0.5535120000000  0.5418660000000 1.0
C      1  0.4385160000000  0.4414510000000  0.5042430000000 1.0
C      1  0.4507480000000  0.5532390000000  0.4621780000000 1.0
C      1  0.4716980000000  0.4369780000000  0.4420080000000 1.0
C      1  0.5150030000000  0.5552000000000  0.4405630000000 1.0
C      1  0.5496950000000  0.4478040000000  0.4602460000000 1.0
C      1  0.5762020000000  0.5561710000000  0.5004190000000 1.0
C      1  0.4964180000000  0.5201820000000  0.5258110000000 1.0
C      1  0.4636760000000  0.4786640000000  0.5138010000000 1.0
C      1  0.4666770000000  0.5216590000000  0.4978490000000 1.0
C      1  0.4716850000000  0.4781900000000  0.4807610000000 1.0
C      1  0.5014000000000  0.5189950000000  0.4760470000000 1.0
C      1  0.5123430000000  0.4803810000000  0.4809360000000 1.0
C      1  0.5298650000000  0.5313550000000  0.4862090000000 1.0
C      1  0.5340710000000  0.4707090000000  0.5046670000000 1.0
C      1  0.5261930000000  0.5280910000000  0.5184510000000 1.0
C      1  0.5085540000000  0.4787270000000  0.5229250000000 1.0
C      1  0.5593120000000  0.4153620000000  0.4645660000000 1.0
C      1  0.5512500000000  0.5754920000000  0.5128640000000 1.0
C      1  0.5475410000000  0.4142570000000  0.5404890000000 1.0
C      1  0.5039170000000  0.5800370000000  0.5727850000000 1.0
C      1  0.4635150000000  0.4153770000000  0.5579680000000 1.0
C      1  0.4488980000000  0.5867450000000  0.5342540000000 1.0
C      1  0.4388760000000  0.4110450000000  0.4886210000000 1.0
C      1  0.4548410000000  0.5808200000000  0.4435220000000 1.0
C      1  0.4927990000000  0.4105340000000  0.4385510000000 1.0
C      1  0.5253660000000  0.5881550000000  0.4403400000000 1.0
C      1  0.5039300000000  0.5289020000000  0.4252470000000 1.0
C      1  0.5463740000000  0.4743980000000  0.4446360000000 1.0
C      1  0.5785810000000  0.5301000000000  0.4837240000000 1.0
C      1  0.5704760000000  0.4722790000000  0.5306170000000 1.0
C      1  0.5381510000000  0.5285370000000  0.5659750000000 1.0
C      1  0.4910080000000  0.4706570000000  0.5709480000000 1.0
C      1  0.4535880000000  0.5253580000000  0.5575740000000 1.0
C      1  0.4178050000000  0.4656900000000  0.5160830000000 1.0
C      1  0.4295480000000  0.5319430000000  0.4696820000000 1.0
C      1  0.4585280000000  0.4638430000000  0.4317140000000 1.0
C      1  0.5506710000000  0.5151190000000  0.4281950000000 1.0
C      1  0.5878480000000  0.4858170000000  0.4718880000000 1.0
C      1  0.5864180000000  0.5159540000000  0.5293210000000 1.0
C      1  0.5510930000000  0.4845930000000  0.5733570000000 1.0
C      1  0.4978840000000  0.5136600000000  0.5919870000000 1.0
C      1  0.4454080000000  0.4854890000000  0.5722220000000 1.0
C      1  0.4116960000000  0.5195990000000  0.5300510000000 1.0
C      1  0.4165420000000  0.4834990000000  0.4756700000000 1.0
C      1  0.4515590000000  0.5119850000000  0.4303590000000 1.0
C      1  0.5022210000000  0.4817780000000  0.4109310000000 1.0
C      1  0.4439670000000  0.5720410000000  0.5080690000000 1.0
C      1  0.4559640000000  0.4302980000000  0.4700660000000 1.0
C      1  0.4834840000000  0.5674610000000  0.4441540000000 1.0
C      1  0.5105140000000  0.4325400000000  0.4489060000000 1.0
C      1  0.5470010000000  0.5739640000000  0.4552160000000 1.0
C      1  0.5607360000000  0.4280740000000  0.4928380000000 1.0
C      1  0.5429460000000  0.5621110000000  0.5422310000000 1.0
C      1  0.5241150000000  0.4288900000000  0.5530520000000 1.0
C      1  0.4826390000000  0.5647440000000  0.5563180000000 1.0
C      1  0.4484140000000  0.4308630000000  0.5350120000000 1.0
C      1  0.5850120000000  0.5047380000000  0.5002100000000 1.0
C      1  0.5666470000000  0.4969860000000  0.5494570000000 1.0
C      1  0.5249890000000  0.5041440000000  0.5783930000000 1.0
C      1  0.4738220000000  0.4952210000000  0.5779110000000 1.0
C      1  0.4309580000000  0.5055980000000  0.5497570000000 1.0
C      1  0.4168790000000  0.4973350000000  0.5047660000000 1.0
C      1  0.4292230000000  0.5058470000000  0.4532300000000 1.0
C      1  0.4753850000000  0.4900840000000  0.4264050000000 1.0
C      1  0.5231120000000  0.5037900000000  0.4235380000000 1.0
C      1  0.5665740000000  0.4973940000000  0.4520180000000 1.0
C      1  0.4960780000000  0.5650780000000  0.4983050000000 1.0
C      1  0.5024120000000  0.4414770000000  0.5030530000000 1.0
C      1  0.4909270000000  0.4979710000000  0.5006490000000 1.0
END
