TITL C-2622964-2985-295 0.000345894603532765 125000 -182.564718605001 0 0 37 (C1) n - 1
REM
REM in /nfs/bkarasulu/CARBON/AIRSS/Generating-Clusters/AIREBO/with-SteepDescent/Higher-Symm/SD-CG/HFTN-CG
REM
REM
REM
REM
REM
REM ./C.cell (b20cbc046b6831c77cfcea5457e17084)
REM
REM compiler GCC version 9.2.1 20190827 (Red Hat 9.2.1-1)
REM options -cpp -mtune=generic -march=x86-64 -g -O0 -fpre-include=/usr/include/finclude/math-vector-fortran.h
REM seed 1690279726 -530489561 -1409064056 255967167 1356975972 1879986647 -611727272 899311451 1391570575 1110044449 700852583 2080664152 2004840831 -135965641 -1341077013 917226314 19065582 1618478243 -1006515006 -625079675 -400702181 -1881765786 -596642435 -2079865859 2118364555 -1271463577 -1166447265 319971771 487834681 579130381 476278794 -309062986 1565119993
REM
CELL 1.54180   50.00000   50.00000   50.00000   90.00000   90.00000   90.00000
LATT -1
SFAC C  
C      1  0.4811660000000  0.4779260000000  0.4839750000000 1.0
C      1  0.4783080000000  0.5046550000000  0.4631450000000 1.0
C      1  0.5036770000000  0.5228080000000  0.4766890000000 1.0
C      1  0.5348280000000  0.5147310000000  0.4681520000000 1.0
C      1  0.5235140000000  0.4835080000000  0.4606010000000 1.0
C      1  0.4805210000000  0.4783990000000  0.5159920000000 1.0
C      1  0.4797840000000  0.5059950000000  0.5358570000000 1.0
C      1  0.4994480000000  0.5335080000000  0.5321530000000 1.0
C      1  0.5232110000000  0.5117300000000  0.5236390000000 1.0
C      1  0.5228210000000  0.4813040000000  0.5375140000000 1.0
C      1  0.4887510000000  0.4738560000000  0.5829730000000 1.0
C      1  0.4756190000000  0.5036290000000  0.5865220000000 1.0
C      1  0.5079790000000  0.5086120000000  0.5870880000000 1.0
C      1  0.5221190000000  0.4921420000000  0.6065780000000 1.0
C      1  0.5082000000000  0.4668950000000  0.6036080000000 1.0
C      1  0.4872740000000  0.4725010000000  0.4162110000000 1.0
C      1  0.4684410000000  0.4856660000000  0.3982060000000 1.0
C      1  0.4814230000000  0.5113290000000  0.3946880000000 1.0
C      1  0.5051220000000  0.5078940000000  0.4113450000000 1.0
C      1  0.5187570000000  0.4781870000000  0.4090640000000 1.0
C      1  0.4721180000000  0.5329300000000  0.4827170000000 1.0
C      1  0.5275380000000  0.5433130000000  0.4838700000000 1.0
C      1  0.5477050000000  0.4890940000000  0.4838340000000 1.0
C      1  0.5067740000000  0.4631070000000  0.4771470000000 1.0
C      1  0.4501560000000  0.4900030000000  0.4769970000000 1.0
C      1  0.4695070000000  0.5314920000000  0.5158190000000 1.0
C      1  0.5273340000000  0.5430500000000  0.5167750000000 1.0
C      1  0.5478680000000  0.4915500000000  0.5178390000000 1.0
C      1  0.5056520000000  0.4612110000000  0.5222000000000 1.0
C      1  0.4502770000000  0.4923130000000  0.5229150000000 1.0
C      1  0.5745380000000  0.4845950000000  0.5011250000000 1.0
C      1  0.4356250000000  0.4938000000000  0.4998090000000 1.0
C      1  0.5145440000000  0.4489160000000  0.4992650000000 1.0
C      1  0.4575250000000  0.5566160000000  0.4989610000000 1.0
C      1  0.5406760000000  0.5675140000000  0.5005990000000 1.0
C      1  0.5009660000000  0.4930560000000  0.5576780000000 1.0
C      1  0.4996050000000  0.4922360000000  0.4410190000000 1.0
END
