TITL C-2622962-9663-263 -0.00198230570245698 125000 -724.27541907404 0 0 133 (C1) n - 1
REM
REM in /nfs/bkarasulu/CARBON/AIRSS/Generating-Clusters/AIREBO/with-SteepDescent/Higher-Symm/SD-CG/HFTN-CG
REM
REM
REM
REM
REM
REM ./C.cell (b20cbc046b6831c77cfcea5457e17084)
REM
REM compiler GCC version 9.2.1 20190827 (Red Hat 9.2.1-1)
REM options -cpp -mtune=generic -march=x86-64 -g -O0 -fpre-include=/usr/include/finclude/math-vector-fortran.h
REM seed -664432342 -1153945236 1825439989 1932636125 -402645772 1943518061 -940105153 -834187257 -1901074749 -1856812801 17120840 -1146149356 1644738361 -502520130 74930947 1632859873 -2082560977 419703591 454411729 751621437 -1392194590 1268447936 -190243912 2147418657 1612014461 68659318 -2121579281 107357071 835601384 -2069719535 -1395679219 1299615616 -1485019347
REM
CELL 1.54180   50.00000   50.00000   50.00000   90.00000   90.00000   90.00000
LATT -1
SFAC C  
C      1  0.4792630000000  0.5514170000000  0.5441100000000 1.0
C      1  0.5305220000000  0.5581030000000  0.5103910000000 1.0
C      1  0.5408590000000  0.5502290000000  0.4812260000000 1.0
C      1  0.4902960000000  0.5685010000000  0.4657440000000 1.0
C      1  0.4634620000000  0.5455140000000  0.5145700000000 1.0
C      1  0.5556330000000  0.4649880000000  0.5762370000000 1.0
C      1  0.5927770000000  0.4678120000000  0.4611190000000 1.0
C      1  0.4838190000000  0.4630990000000  0.4034200000000 1.0
C      1  0.4018080000000  0.4695280000000  0.4645530000000 1.0
C      1  0.4543960000000  0.4627030000000  0.5828420000000 1.0
C      1  0.4542720000000  0.5773230000000  0.5192530000000 1.0
C      1  0.5017550000000  0.5772420000000  0.5467990000000 1.0
C      1  0.5480110000000  0.5849650000000  0.5196950000000 1.0
C      1  0.5372430000000  0.5812640000000  0.4707990000000 1.0
C      1  0.4623670000000  0.5765220000000  0.4701570000000 1.0
C      1  0.4927660000000  0.4685180000000  0.5559430000000 1.0
C      1  0.5660510000000  0.4386130000000  0.5014190000000 1.0
C      1  0.5484720000000  0.4495710000000  0.4365780000000 1.0
C      1  0.4516670000000  0.4487260000000  0.4449000000000 1.0
C      1  0.4353390000000  0.4550160000000  0.5088550000000 1.0
C      1  0.4707000000000  0.5900880000000  0.5416210000000 1.0
C      1  0.5263740000000  0.5958850000000  0.5395310000000 1.0
C      1  0.5474280000000  0.5980670000000  0.4898670000000 1.0
C      1  0.5222290000000  0.5858720000000  0.4492260000000 1.0
C      1  0.4541520000000  0.5910150000000  0.4918010000000 1.0
C      1  0.4193980000000  0.5619510000000  0.4763780000000 1.0
C      1  0.4692110000000  0.5719200000000  0.5693020000000 1.0
C      1  0.5515770000000  0.5699500000000  0.5565440000000 1.0
C      1  0.5716850000000  0.5612220000000  0.4720090000000 1.0
C      1  0.4978930000000  0.5704050000000  0.4326560000000 1.0
C      1  0.4789940000000  0.4698890000000  0.4916560000000 1.0
C      1  0.4769850000000  0.4693030000000  0.5258230000000 1.0
C      1  0.5246610000000  0.4696800000000  0.5207980000000 1.0
C      1  0.5289240000000  0.4729650000000  0.4903010000000 1.0
C      1  0.5062270000000  0.4599720000000  0.4745140000000 1.0
C      1  0.5105790000000  0.5035870000000  0.4171210000000 1.0
C      1  0.4334190000000  0.5134280000000  0.4720210000000 1.0
C      1  0.4449800000000  0.5178930000000  0.5581090000000 1.0
C      1  0.5353790000000  0.5107490000000  0.5871140000000 1.0
C      1  0.5749830000000  0.5137600000000  0.4871470000000 1.0
C      1  0.5142420000000  0.4588710000000  0.4118140000000 1.0
C      1  0.4058780000000  0.4718260000000  0.4353050000000 1.0
C      1  0.4347180000000  0.4686920000000  0.5643670000000 1.0
C      1  0.5270030000000  0.4619590000000  0.5849550000000 1.0
C      1  0.5906500000000  0.4727870000000  0.4917190000000 1.0
C      1  0.5294000000000  0.5369440000000  0.5326870000000 1.0
C      1  0.5466160000000  0.5204080000000  0.4744670000000 1.0
C      1  0.4961540000000  0.5378850000000  0.4553430000000 1.0
C      1  0.4473450000000  0.5243010000000  0.5001000000000 1.0
C      1  0.4747190000000  0.5193790000000  0.5481410000000 1.0
C      1  0.5088460000000  0.5033850000000  0.5824670000000 1.0
C      1  0.5689750000000  0.4964900000000  0.5153200000000 1.0
C      1  0.5369150000000  0.4870040000000  0.4285970000000 1.0
C      1  0.4552020000000  0.5013760000000  0.4541460000000 1.0
C      1  0.4281340000000  0.4998790000000  0.5406410000000 1.0
C      1  0.4853930000000  0.3933560000000  0.5273220000000 1.0
C      1  0.5122260000000  0.4072030000000  0.5242950000000 1.0
C      1  0.5265940000000  0.3981020000000  0.4995580000000 1.0
C      1  0.5025010000000  0.4094340000000  0.4855680000000 1.0
C      1  0.4794940000000  0.4071360000000  0.5008970000000 1.0
C      1  0.4077460000000  0.4962500000000  0.4814420000000 1.0
C      1  0.4621490000000  0.5118300000000  0.5853420000000 1.0
C      1  0.5597210000000  0.4974440000000  0.5735220000000 1.0
C      1  0.5818440000000  0.5004440000000  0.4591570000000 1.0
C      1  0.4810350000000  0.4958800000000  0.4114890000000 1.0
C      1  0.5179640000000  0.5297020000000  0.4116270000000 1.0
C      1  0.4223880000000  0.5364820000000  0.4569710000000 1.0
C      1  0.4352490000000  0.5480110000000  0.5543230000000 1.0
C      1  0.5376460000000  0.5381050000000  0.5869740000000 1.0
C      1  0.5897930000000  0.5404580000000  0.4919350000000 1.0
C      1  0.4317620000000  0.4736270000000  0.4856110000000 1.0
C      1  0.4811840000000  0.4836640000000  0.5841040000000 1.0
C      1  0.5521970000000  0.4875820000000  0.5435310000000 1.0
C      1  0.5642350000000  0.4764450000000  0.4461520000000 1.0
C      1  0.4579670000000  0.4732070000000  0.4221500000000 1.0
C      1  0.5561550000000  0.5484910000000  0.4445330000000 1.0
C      1  0.4688950000000  0.5536800000000  0.4297450000000 1.0
C      1  0.4141680000000  0.5467090000000  0.5049540000000 1.0
C      1  0.4941610000000  0.5538420000000  0.5810950000000 1.0
C      1  0.5704990000000  0.5555240000000  0.5396070000000 1.0
C      1  0.5219060000000  0.5540650000000  0.5614080000000 1.0
C      1  0.5697990000000  0.5625430000000  0.5063200000000 1.0
C      1  0.5230290000000  0.5478830000000  0.4368410000000 1.0
C      1  0.4443540000000  0.5585630000000  0.4525160000000 1.0
C      1  0.4293030000000  0.5598320000000  0.5294300000000 1.0
C      1  0.5613970000000  0.5256360000000  0.5303830000000 1.0
C      1  0.5472430000000  0.5157170000000  0.4429140000000 1.0
C      1  0.4716290000000  0.5215840000000  0.4406560000000 1.0
C      1  0.4219180000000  0.5157510000000  0.5167040000000 1.0
C      1  0.4960700000000  0.5245370000000  0.5684440000000 1.0
C      1  0.4804860000000  0.4356070000000  0.5287620000000 1.0
C      1  0.5135660000000  0.4398680000000  0.5301760000000 1.0
C      1  0.5398780000000  0.4302370000000  0.4607380000000 1.0
C      1  0.5095540000000  0.4289140000000  0.4641910000000 1.0
C      1  0.4579970000000  0.4297460000000  0.5047700000000 1.0
C      1  0.4726930000000  0.5344190000000  0.5989840000000 1.0
C      1  0.5746540000000  0.5243320000000  0.5590190000000 1.0
C      1  0.5795170000000  0.5246740000000  0.4370640000000 1.0
C      1  0.4683580000000  0.5270420000000  0.4083060000000 1.0
C      1  0.3941510000000  0.5196420000000  0.4991090000000 1.0
C      1  0.4443330000000  0.4706840000000  0.5333900000000 1.0
C      1  0.5237910000000  0.4722270000000  0.5532250000000 1.0
C      1  0.5584140000000  0.4683680000000  0.4993890000000 1.0
C      1  0.5184630000000  0.4633730000000  0.4446480000000 1.0
C      1  0.4562580000000  0.4729450000000  0.4665550000000 1.0
C      1  0.4260290000000  0.4691580000000  0.4206960000000 1.0
C      1  0.4081360000000  0.4824510000000  0.5619130000000 1.0
C      1  0.5042910000000  0.4642010000000  0.5997100000000 1.0
C      1  0.6016370000000  0.4857630000000  0.5168610000000 1.0
C      1  0.5400250000000  0.4691670000000  0.3993810000000 1.0
C      1  0.5394150000000  0.4278940000000  0.5441460000000 1.0
C      1  0.5651010000000  0.4281510000000  0.4748950000000 1.0
C      1  0.4954190000000  0.4233470000000  0.4390150000000 1.0
C      1  0.4385280000000  0.4370990000000  0.4703720000000 1.0
C      1  0.4695470000000  0.4197370000000  0.5545700000000 1.0
C      1  0.4907780000000  0.5148220000000  0.4749530000000 1.0
C      1  0.4680860000000  0.5016030000000  0.4916640000000 1.0
C      1  0.4836970000000  0.5006980000000  0.5278700000000 1.0
C      1  0.5286630000000  0.5033590000000  0.5270510000000 1.0
C      1  0.5268820000000  0.5023560000000  0.4861120000000 1.0
C      1  0.4640040000000  0.4355200000000  0.5823710000000 1.0
C      1  0.5632790000000  0.4460090000000  0.5571200000000 1.0
C      1  0.5849030000000  0.4378900000000  0.4560630000000 1.0
C      1  0.4856260000000  0.4318570000000  0.4095820000000 1.0
C      1  0.4083520000000  0.4428490000000  0.4759550000000 1.0
C      1  0.5768480000000  0.4328520000000  0.4281340000000 1.0
C      1  0.4649110000000  0.4249250000000  0.4322290000000 1.0
C      1  0.4250220000000  0.4241670000000  0.4989580000000 1.0
C      1  0.4916400000000  0.4394070000000  0.5671900000000 1.0
C      1  0.5661820000000  0.4301280000000  0.5277260000000 1.0
C      1  0.5056650000000  0.5658160000000  0.4909290000000 1.0
C      1  0.4936590000000  0.5431640000000  0.5081180000000 1.0
C      1  0.5033990000000  0.5131240000000  0.5064880000000 1.0
END
