TITL C-2622961-1971-426 0.00215498690669545 125000 -563.512312148442 0 0 117 (C1) n - 1
REM
REM in /nfs/bkarasulu/CARBON/AIRSS/Generating-Clusters/AIREBO/with-SteepDescent/Higher-Symm/SD-CG/HFTN-CG
REM
REM
REM
REM
REM
REM ./C.cell (b20cbc046b6831c77cfcea5457e17084)
REM
REM compiler GCC version 9.2.1 20190827 (Red Hat 9.2.1-1)
REM options -cpp -mtune=generic -march=x86-64 -g -O0 -fpre-include=/usr/include/finclude/math-vector-fortran.h
REM seed 1621107260 -818798260 -2122037332 -501534880 -716055832 147524122 2135126913 -2069047202 -1827067826 1754793224 900447977 1025070892 1429189910 -2103088900 1879875028 -571010537 1420242999 1855018979 -1872660045 1345151360 -1417840494 2085663534 1873441532 1125420124 -629327802 -1186772943 -479190548 -759540704 281358232 -2042338439 279960738 233665568 1504002841
REM
CELL 1.54180   50.00000   50.00000   50.00000   90.00000   90.00000   90.00000
LATT -1
SFAC C  
C      1  0.4692080000000  0.5647490000000  0.4445570000000 1.0
C      1  0.5788980000000  0.4408440000000  0.4700710000000 1.0
C      1  0.4400770000000  0.4705560000000  0.5700680000000 1.0
C      1  0.4649790000000  0.4302920000000  0.5545050000000 1.0
C      1  0.5296790000000  0.5670740000000  0.5587560000000 1.0
C      1  0.5328860000000  0.4346070000000  0.4459790000000 1.0
C      1  0.5709660000000  0.5522870000000  0.5306550000000 1.0
C      1  0.4238670000000  0.4444980000000  0.5276980000000 1.0
C      1  0.4269640000000  0.5545120000000  0.4697820000000 1.0
C      1  0.4361910000000  0.5282270000000  0.4229850000000 1.0
C      1  0.5601720000000  0.4696920000000  0.4263230000000 1.0
C      1  0.5593130000000  0.5259340000000  0.5796760000000 1.0
C      1  0.5295610000000  0.5664800000000  0.4431750000000 1.0
C      1  0.4270560000000  0.4433460000000  0.4760930000000 1.0
C      1  0.5536210000000  0.4638810000000  0.5712530000000 1.0
C      1  0.5253650000000  0.4224840000000  0.5580840000000 1.0
C      1  0.4690060000000  0.5661850000000  0.5575460000000 1.0
C      1  0.4710020000000  0.4382400000000  0.4488940000000 1.0
C      1  0.4255020000000  0.5570080000000  0.5295600000000 1.0
C      1  0.5711470000000  0.4390770000000  0.5317750000000 1.0
C      1  0.5714360000000  0.5519830000000  0.4689100000000 1.0
C      1  0.5623370000000  0.5317260000000  0.4171820000000 1.0
C      1  0.4377230000000  0.4727410000000  0.4294990000000 1.0
C      1  0.4380460000000  0.5263490000000  0.5760110000000 1.0
C      1  0.4827170000000  0.4520480000000  0.4756290000000 1.0
C      1  0.4468980000000  0.4681700000000  0.4822370000000 1.0
C      1  0.4680990000000  0.4821860000000  0.4378330000000 1.0
C      1  0.4802560000000  0.5579550000000  0.5287550000000 1.0
C      1  0.5226250000000  0.4462950000000  0.5350590000000 1.0
C      1  0.5204970000000  0.5488960000000  0.4701890000000 1.0
C      1  0.4450990000000  0.5323310000000  0.5208540000000 1.0
C      1  0.5634850000000  0.4679800000000  0.5198810000000 1.0
C      1  0.5549810000000  0.5266410000000  0.4813660000000 1.0
C      1  0.4683490000000  0.5209610000000  0.5630370000000 1.0
C      1  0.5311880000000  0.4816360000000  0.5566830000000 1.0
C      1  0.5320910000000  0.5230910000000  0.4295630000000 1.0
C      1  0.5217580000000  0.4489890000000  0.4711430000000 1.0
C      1  0.5659470000000  0.4700000000000  0.4802540000000 1.0
C      1  0.5316950000000  0.4838290000000  0.4335850000000 1.0
C      1  0.5198930000000  0.5588720000000  0.5289760000000 1.0
C      1  0.4828680000000  0.4459660000000  0.5330890000000 1.0
C      1  0.4808060000000  0.5478590000000  0.4717050000000 1.0
C      1  0.5505660000000  0.5278310000000  0.5210090000000 1.0
C      1  0.4430150000000  0.4701820000000  0.5218640000000 1.0
C      1  0.4459160000000  0.5311730000000  0.4813960000000 1.0
C      1  0.5321490000000  0.5210160000000  0.5613470000000 1.0
C      1  0.4689830000000  0.4813370000000  0.5596930000000 1.0
C      1  0.4677220000000  0.5214580000000  0.4324580000000 1.0
C      1  0.4581670000000  0.5914840000000  0.4952730000000 1.0
C      1  0.5003200000000  0.4594500000000  0.5933090000000 1.0
C      1  0.5400040000000  0.4129550000000  0.4966340000000 1.0
C      1  0.4964250000000  0.5516540000000  0.4140370000000 1.0
C      1  0.5795880000000  0.5042060000000  0.4593330000000 1.0
C      1  0.4602240000000  0.4107040000000  0.5045240000000 1.0
C      1  0.5450960000000  0.5878140000000  0.4950180000000 1.0
C      1  0.5903500000000  0.5039780000000  0.5470310000000 1.0
C      1  0.4120420000000  0.5003970000000  0.5436380000000 1.0
C      1  0.4132770000000  0.5020010000000  0.4595580000000 1.0
C      1  0.4995630000000  0.4514800000000  0.4185590000000 1.0
C      1  0.5043530000000  0.5492340000000  0.5840400000000 1.0
C      1  0.5599400000000  0.4987980000000  0.4087160000000 1.0
C      1  0.4949830000000  0.4145890000000  0.5546200000000 1.0
C      1  0.4289880000000  0.4972140000000  0.5820780000000 1.0
C      1  0.4988400000000  0.5781300000000  0.4338970000000 1.0
C      1  0.5009110000000  0.4258900000000  0.4381010000000 1.0
C      1  0.4988860000000  0.5774920000000  0.5694280000000 1.0
C      1  0.4128740000000  0.5552640000000  0.4992340000000 1.0
C      1  0.4138770000000  0.4358140000000  0.5012530000000 1.0
C      1  0.5855570000000  0.5520700000000  0.4999210000000 1.0
C      1  0.5887390000000  0.4400490000000  0.5026730000000 1.0
C      1  0.5536130000000  0.4934610000000  0.5880220000000 1.0
C      1  0.4255540000000  0.4988830000000  0.4185940000000 1.0
C      1  0.4995830000000  0.5176350000000  0.4211650000000 1.0
C      1  0.5180980000000  0.4384920000000  0.5032780000000 1.0
C      1  0.4316460000000  0.5015750000000  0.5154000000000 1.0
C      1  0.5006960000000  0.4856160000000  0.5711890000000 1.0
C      1  0.5005410000000  0.5166350000000  0.5731220000000 1.0
C      1  0.4843200000000  0.5695690000000  0.4970550000000 1.0
C      1  0.4368620000000  0.4985470000000  0.4844980000000 1.0
C      1  0.5752110000000  0.5012150000000  0.4885080000000 1.0
C      1  0.5713960000000  0.5010350000000  0.5188120000000 1.0
C      1  0.4990600000000  0.4855660000000  0.4241700000000 1.0
C      1  0.5164600000000  0.5695770000000  0.4968780000000 1.0
C      1  0.4871340000000  0.4317060000000  0.5025170000000 1.0
C      1  0.5000860000000  0.5404950000000  0.4459480000000 1.0
C      1  0.5007970000000  0.4535710000000  0.5598220000000 1.0
C      1  0.4459160000000  0.5016800000000  0.5462610000000 1.0
C      1  0.5510380000000  0.4450890000000  0.4980340000000 1.0
C      1  0.4462830000000  0.5039130000000  0.4522700000000 1.0
C      1  0.5561570000000  0.5045740000000  0.4448790000000 1.0
C      1  0.5565950000000  0.5006110000000  0.5494190000000 1.0
C      1  0.4999940000000  0.5423210000000  0.5510290000000 1.0
C      1  0.5465710000000  0.5540200000000  0.4996970000000 1.0
C      1  0.4556110000000  0.4443850000000  0.5038680000000 1.0
C      1  0.4523770000000  0.5583390000000  0.5001920000000 1.0
C      1  0.5014050000000  0.4638110000000  0.4501980000000 1.0
C      1  0.5059780000000  0.4735970000000  0.4885310000000 1.0
C      1  0.4689430000000  0.4829530000000  0.5039480000000 1.0
C      1  0.4854410000000  0.5048800000000  0.4562900000000 1.0
C      1  0.5005410000000  0.5363400000000  0.5120890000000 1.0
C      1  0.5025050000000  0.4703480000000  0.5216850000000 1.0
C      1  0.5024070000000  0.5222670000000  0.4811820000000 1.0
C      1  0.4682510000000  0.5157470000000  0.5022710000000 1.0
C      1  0.5412580000000  0.4834870000000  0.4993510000000 1.0
C      1  0.5296510000000  0.5123090000000  0.4989530000000 1.0
C      1  0.4848130000000  0.5031610000000  0.5389650000000 1.0
C      1  0.5167610000000  0.5045410000000  0.5358890000000 1.0
C      1  0.5180340000000  0.5062500000000  0.4555530000000 1.0
C      1  0.4419370000000  0.5534020000000  0.5581300000000 1.0
C      1  0.5580990000000  0.5557220000000  0.4409040000000 1.0
C      1  0.5550260000000  0.4381330000000  0.5569250000000 1.0
C      1  0.5604500000000  0.4448200000000  0.4422500000000 1.0
C      1  0.4409040000000  0.5542350000000  0.4423940000000 1.0
C      1  0.4389010000000  0.4440160000000  0.5554660000000 1.0
C      1  0.4425070000000  0.4472330000000  0.4475610000000 1.0
C      1  0.5562450000000  0.5528930000000  0.5597350000000 1.0
C      1  0.4984560000000  0.5009690000000  0.5074310000000 1.0
END
