TITL C-2622967-6265-294 -0.000429419667371309 125000 -171.778531113074 0 0 34 (C1) n - 1
REM
REM in /nfs/bkarasulu/CARBON/AIRSS/Generating-Clusters/AIREBO/with-SteepDescent/Higher-Symm/SD-CG/HFTN-CG
REM
REM
REM
REM
REM
REM ./C.cell (b20cbc046b6831c77cfcea5457e17084)
REM
REM compiler GCC version 9.2.1 20190827 (Red Hat 9.2.1-1)
REM options -cpp -mtune=generic -march=x86-64 -g -O0 -fpre-include=/usr/include/finclude/math-vector-fortran.h
REM seed 1305380753 277195508 -620698076 -1935107703 -288899693 1346643945 -203907462 1157346917 -1106708656 -1715465386 1398466890 -1131099457 -1789543534 890702696 -1223992876 1789542765 339859888 -254101568 1533728331 1262025681 -1894603959 162519560 -1035717588 2134240462 -2025736194 -317946090 -1061152200 -1370477499 404330114 1854956713 930300412 -1059119362 -1228439383
REM
CELL 1.54180   50.00000   50.00000   50.00000   90.00000   90.00000   90.00000
LATT -1
SFAC C  
C      1  0.4949470000000  0.4989330000000  0.4821280000000 1.0
C      1  0.4985220000000  0.5018180000000  0.5152190000000 1.0
C      1  0.4697840000000  0.5675970000000  0.5285810000000 1.0
C      1  0.4845310000000  0.4383760000000  0.4663870000000 1.0
C      1  0.5373680000000  0.5357110000000  0.4970870000000 1.0
C      1  0.5309030000000  0.4628380000000  0.5140850000000 1.0
C      1  0.4495520000000  0.4942120000000  0.5311980000000 1.0
C      1  0.4469520000000  0.5102430000000  0.4538400000000 1.0
C      1  0.5299960000000  0.4704160000000  0.5532520000000 1.0
C      1  0.5274110000000  0.5266080000000  0.4472000000000 1.0
C      1  0.5496170000000  0.5069580000000  0.5069650000000 1.0
C      1  0.5431910000000  0.4819990000000  0.4961660000000 1.0
C      1  0.4422010000000  0.5094260000000  0.4847110000000 1.0
C      1  0.4355730000000  0.5045690000000  0.5105260000000 1.0
C      1  0.4791180000000  0.5483470000000  0.4774720000000 1.0
C      1  0.4988180000000  0.4572880000000  0.5239460000000 1.0
C      1  0.5014520000000  0.4433470000000  0.4953140000000 1.0
C      1  0.4883700000000  0.5562680000000  0.5085410000000 1.0
C      1  0.5017410000000  0.4671440000000  0.4721110000000 1.0
C      1  0.5090160000000  0.5341460000000  0.5160920000000 1.0
C      1  0.5316620000000  0.4436600000000  0.5421530000000 1.0
C      1  0.5325990000000  0.5436320000000  0.4669370000000 1.0
C      1  0.4979550000000  0.5055680000000  0.5671730000000 1.0
C      1  0.5004490000000  0.4888300000000  0.4304820000000 1.0
C      1  0.5250230000000  0.4289630000000  0.5140660000000 1.0
C      1  0.5105790000000  0.5576670000000  0.4838060000000 1.0
C      1  0.4641660000000  0.5672900000000  0.4593020000000 1.0
C      1  0.4790700000000  0.4535720000000  0.5490380000000 1.0
C      1  0.5324500000000  0.5157520000000  0.5305420000000 1.0
C      1  0.5311570000000  0.4809540000000  0.4712120000000 1.0
C      1  0.5127300000000  0.5002950000000  0.4528650000000 1.0
C      1  0.5128810000000  0.4955850000000  0.5455100000000 1.0
C      1  0.4725070000000  0.5192550000000  0.4745880000000 1.0
C      1  0.4777070000000  0.4827330000000  0.5315050000000 1.0
END
