TITL C-2622955-8511-302 -508.701045606531 125000 -179.073852005112 0 0 38 (C2h) n - 1
REM
REM in /nfs/bkarasulu/CARBON/AIRSS/Generating-Clusters/AIREBO/with-SteepDescent/Higher-Symm/SD-CG/HFTN-CG
REM
REM
REM
REM
REM
REM ./C.cell (b20cbc046b6831c77cfcea5457e17084)
REM
REM compiler GCC version 9.2.1 20190827 (Red Hat 9.2.1-1)
REM options -cpp -mtune=generic -march=x86-64 -g -O0 -fpre-include=/usr/include/finclude/math-vector-fortran.h
REM seed 482848999 -1233976193 1601190458 -177188872 628143 -420701172 800060292 1623135021 -343448053 -1923217009 484702559 924786082 312029518 -352914438 -831211475 -451057190 1864487354 1358471568 270978694 1849701585 1875564823 -506249747 1080982594 807077077 -395115760 -1932466981 335219942 -82428158 1181037941 -666830698 -1547327846 917414451 1378782229
REM
CELL 1.54180   50.00000   50.00000   50.00000   90.00000   90.00000   90.00000
LATT -1
SFAC C  
C      1  0.5173600000000  0.4710670000000  0.4733300000000 1.0
C      1  0.5266890000000  0.4709940000000  0.5190110000000 1.0
C      1  0.4813990000000  0.4710680000000  0.5282930000000 1.0
C      1  0.4720700000000  0.4709950000000  0.4826130000000 1.0
C      1  0.5173610000000  0.5231690000000  0.4733300000000 1.0
C      1  0.5266900000000  0.5232410000000  0.5190100000000 1.0
C      1  0.4814000000000  0.5231690000000  0.5282930000000 1.0
C      1  0.4720710000000  0.5232420000000  0.4826130000000 1.0
C      1  0.4983950000000  0.5473490000000  0.4646400000000 1.0
C      1  0.5350470000000  0.5472400000000  0.4998130000000 1.0
C      1  0.5003660000000  0.5473500000000  0.5369820000000 1.0
C      1  0.4637150000000  0.5472410000000  0.5018100000000 1.0
C      1  0.4983940000000  0.4468870000000  0.4646410000000 1.0
C      1  0.5350460000000  0.4469950000000  0.4998130000000 1.0
C      1  0.5003650000000  0.4468870000000  0.5369830000000 1.0
C      1  0.4637130000000  0.4469960000000  0.5018110000000 1.0
C      1  0.5130960000000  0.4252000000000  0.4863110000000 1.0
C      1  0.5190140000000  0.4243220000000  0.5194700000000 1.0
C      1  0.4856620000000  0.4252010000000  0.5153130000000 1.0
C      1  0.4797440000000  0.4243220000000  0.4821540000000 1.0
C      1  0.5130980000000  0.5690360000000  0.4863100000000 1.0
C      1  0.5190160000000  0.5699140000000  0.5194700000000 1.0
C      1  0.4856640000000  0.5690360000000  0.5153130000000 1.0
C      1  0.4797460000000  0.5699150000000  0.4821530000000 1.0
C      1  0.4745880000000  0.5331470000000  0.4507460000000 1.0
C      1  0.5495230000000  0.5337530000000  0.4767030000000 1.0
C      1  0.5241730000000  0.5331470000000  0.5508770000000 1.0
C      1  0.4492390000000  0.5337550000000  0.5249200000000 1.0
C      1  0.4745870000000  0.4610900000000  0.4507460000000 1.0
C      1  0.5495210000000  0.4604820000000  0.4767030000000 1.0
C      1  0.5241720000000  0.4610890000000  0.5508770000000 1.0
C      1  0.4492380000000  0.4604830000000  0.5249200000000 1.0
C      1  0.4823740000000  0.4971190000000  0.5455730000000 1.0
C      1  0.4548590000000  0.4971190000000  0.4842410000000 1.0
C      1  0.5163860000000  0.4971180000000  0.4560500000000 1.0
C      1  0.5439010000000  0.4971170000000  0.5173820000000 1.0
C      1  0.4993800000000  0.4799190000000  0.5008120000000 1.0
C      1  0.4993800000000  0.5143170000000  0.5008120000000 1.0
END
