TITL C-2622959-7779-333 -0.00117992500018897 125000 -1055.12924561887 0 0 197 (C1) n - 1
REM
REM in /nfs/bkarasulu/CARBON/AIRSS/Generating-Clusters/AIREBO/with-SteepDescent/Higher-Symm/SD-CG/HFTN-CG
REM
REM
REM
REM
REM
REM ./C.cell (b20cbc046b6831c77cfcea5457e17084)
REM
REM compiler GCC version 9.2.1 20190827 (Red Hat 9.2.1-1)
REM options -cpp -mtune=generic -march=x86-64 -g -O0 -fpre-include=/usr/include/finclude/math-vector-fortran.h
REM seed 1882766061 1488582872 -273875067 -708798649 -1000968232 -1991031854 -1248593980 -160780922 -1692558376 830796801 -1000789849 1764488918 -509507768 593804709 14661320 -2101905307 -263792964 -992123064 1557619107 -518644469 1448045895 1132987556 -1897216926 -972869874 -1555372533 569981891 1841081609 -993787162 399254811 1858966051 -461342029 -147794783 1693008938
REM
CELL 1.54180   50.00000   50.00000   50.00000   90.00000   90.00000   90.00000
LATT -1
SFAC C  
C      1  0.4219290000000  0.4512430000000  0.4526650000000 1.0
C      1  0.5668090000000  0.4176640000000  0.4765160000000 1.0
C      1  0.5649610000000  0.4874520000000  0.5858930000000 1.0
C      1  0.5021290000000  0.4473840000000  0.4369830000000 1.0
C      1  0.4462430000000  0.4943900000000  0.5019790000000 1.0
C      1  0.4557270000000  0.5188480000000  0.4518750000000 1.0
C      1  0.4524220000000  0.4288840000000  0.5871900000000 1.0
C      1  0.5935340000000  0.4573460000000  0.4621530000000 1.0
C      1  0.5397470000000  0.4079450000000  0.4488370000000 1.0
C      1  0.5376990000000  0.5224480000000  0.5404300000000 1.0
C      1  0.5249610000000  0.5451890000000  0.5899840000000 1.0
C      1  0.5145810000000  0.4519170000000  0.5083130000000 1.0
C      1  0.6163510000000  0.4934220000000  0.5007010000000 1.0
C      1  0.5812480000000  0.5690020000000  0.5108110000000 1.0
C      1  0.4645640000000  0.4255550000000  0.4732650000000 1.0
C      1  0.5872110000000  0.4418720000000  0.5620680000000 1.0
C      1  0.4074190000000  0.4421640000000  0.4796720000000 1.0
C      1  0.5721590000000  0.4888330000000  0.4150830000000 1.0
C      1  0.4670040000000  0.5723210000000  0.4358360000000 1.0
C      1  0.5232570000000  0.4413840000000  0.5533310000000 1.0
C      1  0.5075080000000  0.5370480000000  0.5463460000000 1.0
C      1  0.5536950000000  0.5845030000000  0.4982530000000 1.0
C      1  0.4856950000000  0.5464420000000  0.4598890000000 1.0
C      1  0.4237950000000  0.5646150000000  0.4453590000000 1.0
C      1  0.4523440000000  0.5520770000000  0.4589160000000 1.0
C      1  0.4335560000000  0.5212150000000  0.4926860000000 1.0
C      1  0.4441250000000  0.4081040000000  0.5541800000000 1.0
C      1  0.4911050000000  0.4027640000000  0.4544020000000 1.0
C      1  0.5731180000000  0.5157680000000  0.4089050000000 1.0
C      1  0.5631130000000  0.4653910000000  0.4868410000000 1.0
C      1  0.5086940000000  0.5585360000000  0.4703820000000 1.0
C      1  0.5316350000000  0.4345000000000  0.4676190000000 1.0
C      1  0.4258470000000  0.5786710000000  0.5048060000000 1.0
C      1  0.4062880000000  0.5091190000000  0.4776520000000 1.0
C      1  0.5317400000000  0.4994720000000  0.4323650000000 1.0
C      1  0.5415960000000  0.4452620000000  0.5271670000000 1.0
C      1  0.5091200000000  0.5469130000000  0.5168490000000 1.0
C      1  0.4753710000000  0.3926110000000  0.5086690000000 1.0
C      1  0.4219260000000  0.4823840000000  0.4365980000000 1.0
C      1  0.5219900000000  0.5535450000000  0.4238620000000 1.0
C      1  0.5862490000000  0.4804850000000  0.4442700000000 1.0
C      1  0.5439990000000  0.5407010000000  0.5646570000000 1.0
C      1  0.4353430000000  0.5526810000000  0.4863580000000 1.0
C      1  0.5879490000000  0.5546550000000  0.4509020000000 1.0
C      1  0.5841970000000  0.4682400000000  0.5432900000000 1.0
C      1  0.4102140000000  0.5488070000000  0.5092530000000 1.0
C      1  0.5778250000000  0.4339620000000  0.4555040000000 1.0
C      1  0.4992070000000  0.4932760000000  0.4707080000000 1.0
C      1  0.5346660000000  0.4754070000000  0.5760190000000 1.0
C      1  0.5136420000000  0.5171870000000  0.4513020000000 1.0
C      1  0.5043770000000  0.4148980000000  0.4108870000000 1.0
C      1  0.4592010000000  0.5470790000000  0.4144260000000 1.0
C      1  0.5066510000000  0.4805020000000  0.4338280000000 1.0
C      1  0.5925730000000  0.5707360000000  0.5396320000000 1.0
C      1  0.5448780000000  0.5838640000000  0.4357900000000 1.0
C      1  0.5522030000000  0.5700240000000  0.4594190000000 1.0
C      1  0.5078620000000  0.4998990000000  0.5926030000000 1.0
C      1  0.5092590000000  0.6048960000000  0.5201790000000 1.0
C      1  0.4851320000000  0.5072400000000  0.3937480000000 1.0
C      1  0.5566830000000  0.4955800000000  0.4511430000000 1.0
C      1  0.5611450000000  0.4875960000000  0.5102130000000 1.0
C      1  0.5306160000000  0.5089720000000  0.6092770000000 1.0
C      1  0.4837060000000  0.4767530000000  0.5084710000000 1.0
C      1  0.5535680000000  0.4737140000000  0.5351630000000 1.0
C      1  0.5573100000000  0.5204080000000  0.5168600000000 1.0
C      1  0.4341850000000  0.4455070000000  0.5637980000000 1.0
C      1  0.5030310000000  0.3911760000000  0.5287740000000 1.0
C      1  0.4192180000000  0.4704440000000  0.5459470000000 1.0
C      1  0.4625050000000  0.5009080000000  0.5812710000000 1.0
C      1  0.5076580000000  0.4030810000000  0.5852560000000 1.0
C      1  0.5067220000000  0.5262760000000  0.4954370000000 1.0
C      1  0.3884310000000  0.4550570000000  0.5055870000000 1.0
C      1  0.3949320000000  0.4846960000000  0.5543160000000 1.0
C      1  0.5275590000000  0.4908760000000  0.5479530000000 1.0
C      1  0.5604310000000  0.4226920000000  0.5712840000000 1.0
C      1  0.5063410000000  0.4679230000000  0.5895960000000 1.0
C      1  0.5321090000000  0.5053290000000  0.6351040000000 1.0
C      1  0.5518210000000  0.5243700000000  0.5932780000000 1.0
C      1  0.4457760000000  0.5697810000000  0.5382950000000 1.0
C      1  0.4375410000000  0.4705460000000  0.5865610000000 1.0
C      1  0.5488190000000  0.5659740000000  0.4071000000000 1.0
C      1  0.5507780000000  0.4363700000000  0.4956580000000 1.0
C      1  0.5940250000000  0.4966840000000  0.5498710000000 1.0
C      1  0.5833320000000  0.4543670000000  0.5118640000000 1.0
C      1  0.4945370000000  0.4702960000000  0.4050840000000 1.0
C      1  0.4488870000000  0.6029890000000  0.4829500000000 1.0
C      1  0.4214880000000  0.4802270000000  0.4705350000000 1.0
C      1  0.4820350000000  0.5411390000000  0.6039140000000 1.0
C      1  0.4562060000000  0.4824440000000  0.4356080000000 1.0
C      1  0.6071190000000  0.5136610000000  0.4747540000000 1.0
C      1  0.4403140000000  0.4950430000000  0.5354970000000 1.0
C      1  0.4322680000000  0.6263390000000  0.4842630000000 1.0
C      1  0.4830220000000  0.5593870000000  0.5539650000000 1.0
C      1  0.4199970000000  0.5493440000000  0.5385370000000 1.0
C      1  0.3952400000000  0.5227100000000  0.5050550000000 1.0
C      1  0.4637300000000  0.5314260000000  0.5046000000000 1.0
C      1  0.4077600000000  0.4429370000000  0.5306310000000 1.0
C      1  0.4632910000000  0.4673600000000  0.4059530000000 1.0
C      1  0.5525680000000  0.3904030000000  0.4744120000000 1.0
C      1  0.5284650000000  0.4296920000000  0.4272400000000 1.0
C      1  0.4052060000000  0.5102600000000  0.4468890000000 1.0
C      1  0.4563340000000  0.5593450000000  0.5750860000000 1.0
C      1  0.5615240000000  0.4559070000000  0.5776470000000 1.0
C      1  0.5057030000000  0.5881910000000  0.5774970000000 1.0
C      1  0.5493660000000  0.5338960000000  0.3957870000000 1.0
C      1  0.4824070000000  0.4079790000000  0.4260440000000 1.0
C      1  0.4823590000000  0.4443590000000  0.5918300000000 1.0
C      1  0.5735200000000  0.5143920000000  0.5691060000000 1.0
C      1  0.4329890000000  0.5452410000000  0.5689080000000 1.0
C      1  0.4894820000000  0.4296520000000  0.5139410000000 1.0
C      1  0.4985480000000  0.5590180000000  0.5842360000000 1.0
C      1  0.4555750000000  0.4990220000000  0.3989330000000 1.0
C      1  0.5287420000000  0.3971020000000  0.5377430000000 1.0
C      1  0.4535420000000  0.4907180000000  0.4684940000000 1.0
C      1  0.4694960000000  0.6237110000000  0.5149560000000 1.0
C      1  0.4732510000000  0.4623870000000  0.5353190000000 1.0
C      1  0.5248130000000  0.5753520000000  0.5137050000000 1.0
C      1  0.5361370000000  0.6202300000000  0.5588210000000 1.0
C      1  0.4303470000000  0.4277340000000  0.4973510000000 1.0
C      1  0.6029050000000  0.4644690000000  0.4889160000000 1.0
C      1  0.5330840000000  0.5422210000000  0.4636600000000 1.0
C      1  0.4581390000000  0.4219400000000  0.4229530000000 1.0
C      1  0.5236920000000  0.4731350000000  0.4830010000000 1.0
C      1  0.5611520000000  0.5680540000000  0.5633130000000 1.0
C      1  0.4461190000000  0.5194950000000  0.4192570000000 1.0
C      1  0.4686180000000  0.5078150000000  0.5491080000000 1.0
C      1  0.5197510000000  0.5957190000000  0.4405030000000 1.0
C      1  0.4791720000000  0.5201360000000  0.4764810000000 1.0
C      1  0.5283200000000  0.4736320000000  0.4010710000000 1.0
C      1  0.3872400000000  0.5058060000000  0.5334250000000 1.0
C      1  0.5450630000000  0.4643760000000  0.4580370000000 1.0
C      1  0.6043880000000  0.5111300000000  0.5271760000000 1.0
C      1  0.4066920000000  0.5440690000000  0.4388810000000 1.0
C      1  0.4537160000000  0.4386920000000  0.4017920000000 1.0
C      1  0.5007810000000  0.5078950000000  0.5601820000000 1.0
C      1  0.4576250000000  0.5885970000000  0.5638690000000 1.0
C      1  0.5503370000000  0.5384800000000  0.4353140000000 1.0
C      1  0.4326950000000  0.5003820000000  0.5901890000000 1.0
C      1  0.5351620000000  0.5069370000000  0.4006410000000 1.0
C      1  0.4186370000000  0.5203640000000  0.5783340000000 1.0
C      1  0.4596560000000  0.4361910000000  0.5429540000000 1.0
C      1  0.5302140000000  0.6087550000000  0.4930750000000 1.0
C      1  0.4165890000000  0.5171130000000  0.5458070000000 1.0
C      1  0.5380580000000  0.5724380000000  0.5411500000000 1.0
C      1  0.4976700000000  0.4330340000000  0.4684520000000 1.0
C      1  0.6069160000000  0.5053240000000  0.4446380000000 1.0
C      1  0.5295990000000  0.4135310000000  0.5668000000000 1.0
C      1  0.4165040000000  0.5222830000000  0.4187320000000 1.0
C      1  0.4848660000000  0.5994020000000  0.5613710000000 1.0
C      1  0.4838560000000  0.5844010000000  0.5308690000000 1.0
C      1  0.4615870000000  0.4376350000000  0.5017920000000 1.0
C      1  0.4831240000000  0.5014720000000  0.4272540000000 1.0
C      1  0.4815670000000  0.5141200000000  0.5991940000000 1.0
C      1  0.4683540000000  0.3925590000000  0.4763600000000 1.0
C      1  0.5268060000000  0.5031160000000  0.4976510000000 1.0
C      1  0.5764100000000  0.5261490000000  0.4823110000000 1.0
C      1  0.5718360000000  0.4313370000000  0.5340990000000 1.0
C      1  0.5157660000000  0.6027650000000  0.4670700000000 1.0
C      1  0.5496820000000  0.4648590000000  0.4243290000000 1.0
C      1  0.3887860000000  0.4890480000000  0.5048590000000 1.0
C      1  0.4810270000000  0.4154180000000  0.5748090000000 1.0
C      1  0.4818390000000  0.4127140000000  0.5424350000000 1.0
C      1  0.4479020000000  0.4353940000000  0.4487390000000 1.0
C      1  0.5138080000000  0.4838980000000  0.5198420000000 1.0
C      1  0.5840490000000  0.5365470000000  0.5216830000000 1.0
C      1  0.5352220000000  0.5906990000000  0.5679390000000 1.0
C      1  0.5200250000000  0.6263870000000  0.5402330000000 1.0
C      1  0.5841240000000  0.4990300000000  0.4951620000000 1.0
C      1  0.5778950000000  0.5716130000000  0.4776600000000 1.0
C      1  0.5773520000000  0.5223720000000  0.4495330000000 1.0
C      1  0.4974310000000  0.4589940000000  0.5580210000000 1.0
C      1  0.4982960000000  0.5803230000000  0.4252380000000 1.0
C      1  0.4855600000000  0.4632030000000  0.4784630000000 1.0
C      1  0.4443050000000  0.5904020000000  0.4539080000000 1.0
C      1  0.4496950000000  0.3948380000000  0.5246180000000 1.0
C      1  0.5826510000000  0.5429580000000  0.5550500000000 1.0
C      1  0.5456050000000  0.5274200000000  0.4867280000000 1.0
C      1  0.4695290000000  0.4695730000000  0.5744440000000 1.0
C      1  0.5590840000000  0.4023170000000  0.5431990000000 1.0
C      1  0.4205640000000  0.4124180000000  0.5228230000000 1.0
C      1  0.4904550000000  0.5310340000000  0.4335140000000 1.0
C      1  0.4718990000000  0.4567150000000  0.4494430000000 1.0
C      1  0.4808070000000  0.5061030000000  0.5182110000000 1.0
C      1  0.5018890000000  0.5809070000000  0.4891270000000 1.0
C      1  0.5188890000000  0.3922680000000  0.4699850000000 1.0
C      1  0.4815200000000  0.6080910000000  0.4898120000000 1.0
C      1  0.4912510000000  0.5517760000000  0.4097500000000 1.0
C      1  0.5786450000000  0.5477830000000  0.4189300000000 1.0
C      1  0.4609710000000  0.5393650000000  0.5375520000000 1.0
C      1  0.5068830000000  0.4902140000000  0.3805320000000 1.0
C      1  0.5012370000000  0.4078610000000  0.4926920000000 1.0
C      1  0.4548950000000  0.5929990000000  0.5151800000000 1.0
C      1  0.4469010000000  0.4625160000000  0.5138200000000 1.0
C      1  0.4814590000000  0.5603640000000  0.5069290000000 1.0
C      1  0.4187850000000  0.4659270000000  0.4999470000000 1.0
C      1  0.4128720000000  0.4204120000000  0.5553000000000 1.0
C      1  0.5613930000000  0.4365600000000  0.4324060000000 1.0
END
