TITL C-2622963-3633-366 -0.00188631817671612 125000 -645.471634274682 0 0 112 (C1) n - 1
REM
REM in /nfs/bkarasulu/CARBON/AIRSS/Generating-Clusters/AIREBO/with-SteepDescent/Higher-Symm/SD-CG/HFTN-CG
REM
REM
REM
REM
REM
REM ./C.cell (b20cbc046b6831c77cfcea5457e17084)
REM
REM compiler GCC version 9.2.1 20190827 (Red Hat 9.2.1-1)
REM options -cpp -mtune=generic -march=x86-64 -g -O0 -fpre-include=/usr/include/finclude/math-vector-fortran.h
REM seed 30682479 -1070625664 1908920820 -1998907405 810349308 -620878484 -1603243897 1614956663 1389399526 1120462800 -1571653784 718077752 773973769 1518907095 1372759182 1010977778 -1523602585 49188171 1222416314 -532761467 -1818339515 393080003 1827497142 1335233127 1117895750 -175073994 -1600552240 -1451551383 960819182 -917789327 -713565522 1485669185 1350252826
REM
CELL 1.54180   50.00000   50.00000   50.00000   90.00000   90.00000   90.00000
LATT -1
SFAC C  
C      1  0.4561980000000  0.5521030000000  0.4911390000000 1.0
C      1  0.4733610000000  0.5411100000000  0.4720000000000 1.0
C      1  0.4627080000000  0.5210050000000  0.4553740000000 1.0
C      1  0.4738240000000  0.4960110000000  0.4575260000000 1.0
C      1  0.4544940000000  0.4721410000000  0.4572710000000 1.0
C      1  0.4636910000000  0.4526810000000  0.4837270000000 1.0
C      1  0.4698220000000  0.4614390000000  0.5139450000000 1.0
C      1  0.4519890000000  0.4704770000000  0.5324370000000 1.0
C      1  0.4600030000000  0.4941230000000  0.5482160000000 1.0
C      1  0.4701330000000  0.5226060000000  0.5364120000000 1.0
C      1  0.4632230000000  0.5496840000000  0.5198580000000 1.0
C      1  0.5417080000000  0.4337930000000  0.5877520000000 1.0
C      1  0.5480360000000  0.4899910000000  0.6008660000000 1.0
C      1  0.5439310000000  0.5405550000000  0.5711640000000 1.0
C      1  0.5454030000000  0.5955660000000  0.5471290000000 1.0
C      1  0.5182420000000  0.6184860000000  0.4925680000000 1.0
C      1  0.5391280000000  0.5838370000000  0.4412060000000 1.0
C      1  0.5378220000000  0.5385710000000  0.4044090000000 1.0
C      1  0.5375870000000  0.4803920000000  0.4050280000000 1.0
C      1  0.5373290000000  0.4268480000000  0.4277160000000 1.0
C      1  0.5380960000000  0.4012360000000  0.4801060000000 1.0
C      1  0.5388970000000  0.4027160000000  0.5386450000000 1.0
C      1  0.4243730000000  0.4370810000000  0.5148310000000 1.0
C      1  0.4293630000000  0.4555470000000  0.5350550000000 1.0
C      1  0.4373760000000  0.5082720000000  0.5630270000000 1.0
C      1  0.4331420000000  0.5356820000000  0.5582030000000 1.0
C      1  0.4402580000000  0.5555950000000  0.5394720000000 1.0
C      1  0.4310850000000  0.5590280000000  0.4825330000000 1.0
C      1  0.4215540000000  0.5462750000000  0.4597350000000 1.0
C      1  0.4339840000000  0.5231400000000  0.4431730000000 1.0
C      1  0.4366960000000  0.4907550000000  0.4385760000000 1.0
C      1  0.4331650000000  0.4489970000000  0.4591120000000 1.0
C      1  0.4360430000000  0.4331160000000  0.4867520000000 1.0
C      1  0.5352430000000  0.5207150000000  0.5967700000000 1.0
C      1  0.5353070000000  0.5729370000000  0.5701610000000 1.0
C      1  0.5239160000000  0.6028250000000  0.5221850000000 1.0
C      1  0.5216540000000  0.5981050000000  0.4659840000000 1.0
C      1  0.5224380000000  0.5645740000000  0.4191520000000 1.0
C      1  0.5214500000000  0.5094580000000  0.4005880000000 1.0
C      1  0.5212070000000  0.4519610000000  0.4120530000000 1.0
C      1  0.5212780000000  0.4100780000000  0.4521140000000 1.0
C      1  0.5221000000000  0.3986350000000  0.5097560000000 1.0
C      1  0.5236020000000  0.4157010000000  0.5658360000000 1.0
C      1  0.5285210000000  0.4626290000000  0.5992060000000 1.0
C      1  0.5450130000000  0.4664920000000  0.5394750000000 1.0
C      1  0.5604220000000  0.4897870000000  0.5467950000000 1.0
C      1  0.5451060000000  0.5115460000000  0.5360720000000 1.0
C      1  0.5568990000000  0.5339350000000  0.5235600000000 1.0
C      1  0.5437660000000  0.5451030000000  0.5009540000000 1.0
C      1  0.5560980000000  0.5380610000000  0.4760060000000 1.0
C      1  0.5419440000000  0.5186470000000  0.4606360000000 1.0
C      1  0.5544430000000  0.4927640000000  0.4569210000000 1.0
C      1  0.5413980000000  0.4695230000000  0.4689860000000 1.0
C      1  0.5572510000000  0.4540180000000  0.4868140000000 1.0
C      1  0.5557550000000  0.4517610000000  0.5181780000000 1.0
C      1  0.5008210000000  0.5408370000000  0.4756560000000 1.0
C      1  0.5145290000000  0.5186000000000  0.4658210000000 1.0
C      1  0.5004240000000  0.4942510000000  0.4636770000000 1.0
C      1  0.5134690000000  0.4714940000000  0.4740370000000 1.0
C      1  0.4976020000000  0.4518750000000  0.4872950000000 1.0
C      1  0.4980800000000  0.4555550000000  0.5191510000000 1.0
C      1  0.5130010000000  0.4721900000000  0.5396040000000 1.0
C      1  0.4931610000000  0.4955680000000  0.5530100000000 1.0
C      1  0.5002710000000  0.5261740000000  0.5463460000000 1.0
C      1  0.4964320000000  0.5491870000000  0.5246760000000 1.0
C      1  0.5141950000000  0.5559310000000  0.4994340000000 1.0
C      1  0.4153400000000  0.5895890000000  0.5159310000000 1.0
C      1  0.3938640000000  0.5815230000000  0.4676500000000 1.0
C      1  0.3958960000000  0.5498450000000  0.4223040000000 1.0
C      1  0.4098400000000  0.5030890000000  0.4034520000000 1.0
C      1  0.4148410000000  0.4534990000000  0.4168590000000 1.0
C      1  0.4085070000000  0.4123760000000  0.4498520000000 1.0
C      1  0.4002320000000  0.4008470000000  0.5002980000000 1.0
C      1  0.3945400000000  0.4284780000000  0.5481380000000 1.0
C      1  0.4109670000000  0.4705160000000  0.5767460000000 1.0
C      1  0.4000590000000  0.5205750000000  0.5869320000000 1.0
C      1  0.4033330000000  0.5708480000000  0.5625630000000 1.0
C      1  0.5983620000000  0.5175930000000  0.5417700000000 1.0
C      1  0.5854990000000  0.5351510000000  0.5236650000000 1.0
C      1  0.5967990000000  0.5445160000000  0.4994260000000 1.0
C      1  0.5844380000000  0.5370140000000  0.4751100000000 1.0
C      1  0.5945860000000  0.5187550000000  0.4560240000000 1.0
C      1  0.5828530000000  0.4930240000000  0.4539230000000 1.0
C      1  0.5963150000000  0.4689350000000  0.4600350000000 1.0
C      1  0.5880710000000  0.4542180000000  0.4823100000000 1.0
C      1  0.5868550000000  0.4539440000000  0.5133860000000 1.0
C      1  0.6005870000000  0.4677670000000  0.5337890000000 1.0
C      1  0.5886330000000  0.4911700000000  0.5444310000000 1.0
C      1  0.4206180000000  0.5762230000000  0.5398620000000 1.0
C      1  0.4127330000000  0.5799540000000  0.4899380000000 1.0
C      1  0.3998250000000  0.5608200000000  0.4480640000000 1.0
C      1  0.4125180000000  0.5272420000000  0.4178800000000 1.0
C      1  0.4209410000000  0.4810560000000  0.4173340000000 1.0
C      1  0.4178270000000  0.4371540000000  0.4394840000000 1.0
C      1  0.4153080000000  0.4091160000000  0.4774150000000 1.0
C      1  0.4033730000000  0.4188810000000  0.5220790000000 1.0
C      1  0.4102460000000  0.4517860000000  0.5561990000000 1.0
C      1  0.4160770000000  0.4978290000000  0.5786410000000 1.0
C      1  0.4089990000000  0.5445460000000  0.5732760000000 1.0
C      1  0.5052670000000  0.5382990000000  0.4068370000000 1.0
C      1  0.5051840000000  0.4799740000000  0.4022020000000 1.0
C      1  0.5046670000000  0.4282390000000  0.4291480000000 1.0
C      1  0.5056310000000  0.4019860000000  0.4807020000000 1.0
C      1  0.5064370000000  0.4050670000000  0.5388570000000 1.0
C      1  0.5092180000000  0.4378570000000  0.5868580000000 1.0
C      1  0.5157260000000  0.4937890000000  0.6023980000000 1.0
C      1  0.5317870000000  0.5542740000000  0.5981200000000 1.0
C      1  0.5133550000000  0.5898440000000  0.5512600000000 1.0
C      1  0.5156830000000  0.5848000000000  0.4958320000000 1.0
C      1  0.5067630000000  0.5880190000000  0.4375550000000 1.0
C      1  0.5121140000000  0.5006020000000  0.5013990000000 1.0
C      1  0.5220060000000  0.4993590000000  0.5262300000000 1.0
END
