TITL C-2622967-6265-692 -0.00145445317585047 125000 -666.561941264719 0 0 120 (C1) n - 1
REM
REM in /nfs/bkarasulu/CARBON/AIRSS/Generating-Clusters/AIREBO/with-SteepDescent/Higher-Symm/SD-CG/HFTN-CG
REM
REM
REM
REM
REM
REM ./C.cell (b20cbc046b6831c77cfcea5457e17084)
REM
REM compiler GCC version 9.2.1 20190827 (Red Hat 9.2.1-1)
REM options -cpp -mtune=generic -march=x86-64 -g -O0 -fpre-include=/usr/include/finclude/math-vector-fortran.h
REM seed 1695670209 -2041261907 67996592 -1417947255 -384817782 -953060101 29132369 1933222769 1051803735 -2009093327 1577916422 -880875409 -2128280549 903140029 -188617331 1601272089 -1461530660 978673733 26214821 1638780523 2090074454 1566203784 -132082513 -1247640446 -1118638949 -990672330 -1038132322 374931332 1000209364 -638381235 1609399281 -1158593951 1391463926
REM
CELL 1.54180   50.00000   50.00000   50.00000   90.00000   90.00000   90.00000
LATT -1
SFAC C  
C      1  0.5514030000000  0.4205820000000  0.5820520000000 1.0
C      1  0.5456100000000  0.4599730000000  0.3904260000000 1.0
C      1  0.5435380000000  0.6181660000000  0.5259480000000 1.0
C      1  0.5774230000000  0.5300360000000  0.4736240000000 1.0
C      1  0.5765150000000  0.5170490000000  0.5544300000000 1.0
C      1  0.5739010000000  0.4571520000000  0.4848760000000 1.0
C      1  0.4504820000000  0.4799900000000  0.4858250000000 1.0
C      1  0.4572890000000  0.5198770000000  0.5067610000000 1.0
C      1  0.4565120000000  0.4873570000000  0.5166650000000 1.0
C      1  0.4775820000000  0.5324360000000  0.5868420000000 1.0
C      1  0.4757480000000  0.4132840000000  0.4835250000000 1.0
C      1  0.4863990000000  0.5637530000000  0.4236950000000 1.0
C      1  0.4190810000000  0.4483440000000  0.5323100000000 1.0
C      1  0.4162870000000  0.4963380000000  0.4444830000000 1.0
C      1  0.4201430000000  0.5482370000000  0.5257580000000 1.0
C      1  0.5349560000000  0.4141960000000  0.5354500000000 1.0
C      1  0.5363040000000  0.5066900000000  0.4072990000000 1.0
C      1  0.5319050000000  0.5803850000000  0.5569130000000 1.0
C      1  0.4717630000000  0.5062690000000  0.5933510000000 1.0
C      1  0.4680410000000  0.4230730000000  0.4588980000000 1.0
C      1  0.4782350000000  0.5755860000000  0.4476410000000 1.0
C      1  0.5788060000000  0.4770920000000  0.4467180000000 1.0
C      1  0.5726170000000  0.5404570000000  0.5014810000000 1.0
C      1  0.5708890000000  0.4713760000000  0.5361290000000 1.0
C      1  0.5024340000000  0.5484240000000  0.5773620000000 1.0
C      1  0.5010960000000  0.4114110000000  0.5021520000000 1.0
C      1  0.5099720000000  0.5442360000000  0.4227710000000 1.0
C      1  0.5254030000000  0.5224450000000  0.4875930000000 1.0
C      1  0.5241700000000  0.4987270000000  0.5322220000000 1.0
C      1  0.5183470000000  0.4771410000000  0.4894350000000 1.0
C      1  0.5564280000000  0.4909510000000  0.4518430000000 1.0
C      1  0.5461010000000  0.5293600000000  0.5136990000000 1.0
C      1  0.5437650000000  0.4737270000000  0.5200690000000 1.0
C      1  0.4590920000000  0.4980480000000  0.6161900000000 1.0
C      1  0.4530010000000  0.4089150000000  0.4408330000000 1.0
C      1  0.4647850000000  0.5996040000000  0.4470440000000 1.0
C      1  0.5549460000000  0.5084040000000  0.4783130000000 1.0
C      1  0.5562330000000  0.5085140000000  0.5379240000000 1.0
C      1  0.5509910000000  0.4778850000000  0.4891490000000 1.0
C      1  0.4754840000000  0.4830110000000  0.4669200000000 1.0
C      1  0.4833240000000  0.5319880000000  0.4935470000000 1.0
C      1  0.4804830000000  0.4883490000000  0.5381090000000 1.0
C      1  0.4700930000000  0.4566420000000  0.5112020000000 1.0
C      1  0.4794030000000  0.5265630000000  0.4414480000000 1.0
C      1  0.4734510000000  0.5270860000000  0.5358450000000 1.0
C      1  0.5959370000000  0.4706960000000  0.5248010000000 1.0
C      1  0.6032050000000  0.4906140000000  0.4472340000000 1.0
C      1  0.5914810000000  0.5501490000000  0.5181020000000 1.0
C      1  0.5304200000000  0.5383740000000  0.5425590000000 1.0
C      1  0.5283290000000  0.4455640000000  0.5117290000000 1.0
C      1  0.5319300000000  0.5138490000000  0.4461940000000 1.0
C      1  0.4130670000000  0.5139280000000  0.4666380000000 1.0
C      1  0.4154000000000  0.5209350000000  0.5329980000000 1.0
C      1  0.4135050000000  0.4546710000000  0.5046690000000 1.0
C      1  0.4488320000000  0.4696750000000  0.4406040000000 1.0
C      1  0.4555650000000  0.5604370000000  0.4972670000000 1.0
C      1  0.4531680000000  0.4676270000000  0.5590890000000 1.0
C      1  0.5726410000000  0.5464610000000  0.5664420000000 1.0
C      1  0.5667940000000  0.4296930000000  0.4884460000000 1.0
C      1  0.5772590000000  0.5331450000000  0.4397370000000 1.0
C      1  0.4300930000000  0.4226660000000  0.5401080000000 1.0
C      1  0.4360610000000  0.5044310000000  0.4256600000000 1.0
C      1  0.4291220000000  0.5685070000000  0.5439850000000 1.0
C      1  0.5114200000000  0.4919740000000  0.5630180000000 1.0
C      1  0.5071150000000  0.4555790000000  0.4656300000000 1.0
C      1  0.5159910000000  0.5542010000000  0.4798370000000 1.0
C      1  0.4802970000000  0.4232140000000  0.4082630000000 1.0
C      1  0.4631520000000  0.6114280000000  0.4850320000000 1.0
C      1  0.4694400000000  0.4522240000000  0.6125720000000 1.0
C      1  0.5072410000000  0.4465150000000  0.5357080000000 1.0
C      1  0.5054450000000  0.4965960000000  0.4383220000000 1.0
C      1  0.5071640000000  0.5542780000000  0.5266880000000 1.0
C      1  0.4868800000000  0.5024310000000  0.4104370000000 1.0
C      1  0.4849160000000  0.5751450000000  0.5419020000000 1.0
C      1  0.4857590000000  0.4229590000000  0.5476960000000 1.0
C      1  0.5382410000000  0.4297100000000  0.5597860000000 1.0
C      1  0.5340660000000  0.4775780000000  0.4078890000000 1.0
C      1  0.5343040000000  0.5929370000000  0.5310250000000 1.0
C      1  0.4655920000000  0.5436060000000  0.5625570000000 1.0
C      1  0.4640050000000  0.4251850000000  0.5075950000000 1.0
C      1  0.4711750000000  0.5388820000000  0.4150770000000 1.0
C      1  0.5480550000000  0.5568440000000  0.5598120000000 1.0
C      1  0.5497730000000  0.4232620000000  0.5097930000000 1.0
C      1  0.5576100000000  0.5207230000000  0.4252170000000 1.0
C      1  0.5119060000000  0.5212520000000  0.4066560000000 1.0
C      1  0.5056210000000  0.5742480000000  0.5661170000000 1.0
C      1  0.5082000000000  0.4064710000000  0.5288980000000 1.0
C      1  0.4277000000000  0.4959490000000  0.5326190000000 1.0
C      1  0.4263590000000  0.4653830000000  0.4816100000000 1.0
C      1  0.4297830000000  0.5227420000000  0.4868870000000 1.0
C      1  0.5086940000000  0.5353170000000  0.4537080000000 1.0
C      1  0.5021600000000  0.5235640000000  0.5543820000000 1.0
C      1  0.4980700000000  0.4438640000000  0.4962730000000 1.0
C      1  0.5236700000000  0.5739960000000  0.5061030000000 1.0
C      1  0.5225620000000  0.4598340000000  0.5615040000000 1.0
C      1  0.5164980000000  0.4661240000000  0.4346780000000 1.0
C      1  0.4793120000000  0.4851610000000  0.5719510000000 1.0
C      1  0.4764710000000  0.4528930000000  0.4511360000000 1.0
C      1  0.4829400000000  0.5617840000000  0.4771360000000 1.0
C      1  0.6013970000000  0.5180510000000  0.4531480000000 1.0
C      1  0.5955750000000  0.5412480000000  0.5444550000000 1.0
C      1  0.5979580000000  0.4649030000000  0.4977940000000 1.0
C      1  0.4221900000000  0.4684260000000  0.4532590000000 1.0
C      1  0.4301430000000  0.5496120000000  0.4987530000000 1.0
C      1  0.4278940000000  0.4712450000000  0.5477930000000 1.0
C      1  0.4566840000000  0.5136750000000  0.4061040000000 1.0
C      1  0.4545620000000  0.5702950000000  0.5564650000000 1.0
C      1  0.4564110000000  0.4136170000000  0.5332590000000 1.0
C      1  0.4975510000000  0.5918250000000  0.5151040000000 1.0
C      1  0.4995910000000  0.4391470000000  0.5742090000000 1.0
C      1  0.4949740000000  0.4719020000000  0.4089250000000 1.0
C      1  0.4682330000000  0.4506300000000  0.5423150000000 1.0
C      1  0.4640180000000  0.5009600000000  0.4432170000000 1.0
C      1  0.4677810000000  0.5553820000000  0.5218710000000 1.0
C      1  0.5038390000000  0.4757420000000  0.5196630000000 1.0
C      1  0.5045140000000  0.5000950000000  0.4721310000000 1.0
C      1  0.5068470000000  0.5224120000000  0.5148320000000 1.0
C      1  0.4812880000000  0.5923090000000  0.4920300000000 1.0
C      1  0.4834050000000  0.4569010000000  0.5896470000000 1.0
C      1  0.4843150000000  0.4472230000000  0.4204800000000 1.0
END
