TITL C-2622960-5345-856 0.0023668689875929 125000 -946.627896490414 0 0 176 (C1) n - 1
REM
REM in /nfs/bkarasulu/CARBON/AIRSS/Generating-Clusters/AIREBO/with-SteepDescent/Higher-Symm/SD-CG/HFTN-CG
REM
REM
REM
REM
REM
REM ./C.cell (b20cbc046b6831c77cfcea5457e17084)
REM
REM compiler GCC version 9.2.1 20190827 (Red Hat 9.2.1-1)
REM options -cpp -mtune=generic -march=x86-64 -g -O0 -fpre-include=/usr/include/finclude/math-vector-fortran.h
REM seed -1237102007 152893887 -859198472 617568786 1056649850 -333899210 -881933390 -439324676 -2125930847 -1458222433 1642494433 419806627 1733153525 1262727994 998042903 -1345249289 303715565 -1983160508 1932522297 61304496 2036660302 -412273639 1754232837 -1984702366 870781170 79269039 -336649240 1404582062 -1622703015 -1938086885 562613938 -385237047 -379229938
REM
CELL 1.54180   50.00000   50.00000   50.00000   90.00000   90.00000   90.00000
LATT -1
SFAC C  
C      1  0.3891340000000  0.5303210000000  0.5019850000000 1.0
C      1  0.6107140000000  0.4721930000000  0.4955610000000 1.0
C      1  0.5450460000000  0.4480770000000  0.5190520000000 1.0
C      1  0.4582290000000  0.5457360000000  0.5130330000000 1.0
C      1  0.4567070000000  0.3884480000000  0.5706520000000 1.0
C      1  0.5449640000000  0.5725400000000  0.5708320000000 1.0
C      1  0.4825550000000  0.5949090000000  0.5345480000000 1.0
C      1  0.5167730000000  0.4069990000000  0.5355220000000 1.0
C      1  0.5268540000000  0.4884180000000  0.5701430000000 1.0
C      1  0.4751620000000  0.5164760000000  0.5651040000000 1.0
C      1  0.4601050000000  0.4355460000000  0.4129650000000 1.0
C      1  0.5364560000000  0.5660700000000  0.4175820000000 1.0
C      1  0.5075620000000  0.4385550000000  0.4290220000000 1.0
C      1  0.4879890000000  0.5555540000000  0.4434220000000 1.0
C      1  0.5443990000000  0.5338530000000  0.5063100000000 1.0
C      1  0.4576430000000  0.4734140000000  0.5073400000000 1.0
C      1  0.5529990000000  0.5108000000000  0.5254460000000 1.0
C      1  0.4473490000000  0.4945690000000  0.5281960000000 1.0
C      1  0.4488900000000  0.5667420000000  0.4913060000000 1.0
C      1  0.5539710000000  0.4458670000000  0.4884650000000 1.0
C      1  0.4646630000000  0.4543370000000  0.5898720000000 1.0
C      1  0.5187790000000  0.5360570000000  0.6139120000000 1.0
C      1  0.4987870000000  0.5541850000000  0.5711430000000 1.0
C      1  0.5072440000000  0.4460840000000  0.5684600000000 1.0
C      1  0.4494080000000  0.4178060000000  0.4322620000000 1.0
C      1  0.5471830000000  0.5829590000000  0.4380070000000 1.0
C      1  0.5597980000000  0.4807290000000  0.4658890000000 1.0
C      1  0.4420960000000  0.5104060000000  0.4637910000000 1.0
C      1  0.5613790000000  0.4879950000000  0.5465410000000 1.0
C      1  0.4353570000000  0.5159640000000  0.5517440000000 1.0
C      1  0.4562590000000  0.5916860000000  0.5132070000000 1.0
C      1  0.5500340000000  0.4092160000000  0.5265030000000 1.0
C      1  0.5687330000000  0.5761390000000  0.4850440000000 1.0
C      1  0.4367860000000  0.4251470000000  0.4901970000000 1.0
C      1  0.4311180000000  0.4526750000000  0.5490870000000 1.0
C      1  0.5575980000000  0.5510670000000  0.5476700000000 1.0
C      1  0.5768520000000  0.5263090000000  0.5530830000000 1.0
C      1  0.4207940000000  0.4787800000000  0.5532820000000 1.0
C      1  0.4366310000000  0.5496050000000  0.5752870000000 1.0
C      1  0.5669250000000  0.4477290000000  0.5713420000000 1.0
C      1  0.5216420000000  0.5731960000000  0.4787730000000 1.0
C      1  0.4675990000000  0.4180130000000  0.4845930000000 1.0
C      1  0.5839790000000  0.4328450000000  0.4867000000000 1.0
C      1  0.4152330000000  0.5705380000000  0.4943180000000 1.0
C      1  0.4566490000000  0.5401910000000  0.5508070000000 1.0
C      1  0.5467410000000  0.4614860000000  0.5486250000000 1.0
C      1  0.5609480000000  0.5079550000000  0.5740670000000 1.0
C      1  0.4441170000000  0.4923530000000  0.5712330000000 1.0
C      1  0.5933380000000  0.4818870000000  0.5564240000000 1.0
C      1  0.4075360000000  0.5253310000000  0.5634600000000 1.0
C      1  0.4931270000000  0.5163050000000  0.5383100000000 1.0
C      1  0.5132380000000  0.4893790000000  0.5435640000000 1.0
C      1  0.5171380000000  0.4628870000000  0.5225580000000 1.0
C      1  0.4903050000000  0.5471920000000  0.5242410000000 1.0
C      1  0.5157100000000  0.5103390000000  0.4302640000000 1.0
C      1  0.4923530000000  0.4895290000000  0.4306370000000 1.0
C      1  0.5399530000000  0.5092750000000  0.4064340000000 1.0
C      1  0.4651270000000  0.4896100000000  0.4097820000000 1.0
C      1  0.4747200000000  0.5083710000000  0.5162510000000 1.0
C      1  0.5242120000000  0.5017600000000  0.5181050000000 1.0
C      1  0.4868440000000  0.4086010000000  0.5306880000000 1.0
C      1  0.5114860000000  0.6016350000000  0.5329670000000 1.0
C      1  0.3991350000000  0.5467060000000  0.4822270000000 1.0
C      1  0.6026140000000  0.4546570000000  0.4757000000000 1.0
C      1  0.5444280000000  0.4148980000000  0.5775230000000 1.0
C      1  0.4587230000000  0.5826520000000  0.5724640000000 1.0
C      1  0.4375230000000  0.5220900000000  0.5126240000000 1.0
C      1  0.5653160000000  0.4897520000000  0.5052520000000 1.0
C      1  0.4505450000000  0.4687940000000  0.4323740000000 1.0
C      1  0.5467280000000  0.5356770000000  0.4406600000000 1.0
C      1  0.4917380000000  0.5120960000000  0.4803840000000 1.0
C      1  0.5077490000000  0.4901520000000  0.4949850000000 1.0
C      1  0.4724930000000  0.4972000000000  0.4561680000000 1.0
C      1  0.5343170000000  0.5013440000000  0.4567810000000 1.0
C      1  0.5538210000000  0.4147470000000  0.4508790000000 1.0
C      1  0.4439190000000  0.5870090000000  0.4572140000000 1.0
C      1  0.3984510000000  0.4829740000000  0.4478210000000 1.0
C      1  0.5969160000000  0.5110440000000  0.4518250000000 1.0
C      1  0.5144370000000  0.3973260000000  0.4724290000000 1.0
C      1  0.4915010000000  0.6068990000000  0.4625060000000 1.0
C      1  0.4207410000000  0.4463420000000  0.4701250000000 1.0
C      1  0.5847640000000  0.5502740000000  0.4764190000000 1.0
C      1  0.4856220000000  0.4608030000000  0.5466580000000 1.0
C      1  0.5258800000000  0.5411200000000  0.5552860000000 1.0
C      1  0.5483620000000  0.5818460000000  0.4667330000000 1.0
C      1  0.4468760000000  0.4159900000000  0.4587020000000 1.0
C      1  0.4404300000000  0.4460460000000  0.5172600000000 1.0
C      1  0.5614570000000  0.5618200000000  0.5156240000000 1.0
C      1  0.4500850000000  0.4420220000000  0.5678530000000 1.0
C      1  0.5333160000000  0.5565970000000  0.5909850000000 1.0
C      1  0.5040960000000  0.5640060000000  0.6025250000000 1.0
C      1  0.4893490000000  0.4389570000000  0.5950000000000 1.0
C      1  0.5425170000000  0.3947470000000  0.5540730000000 1.0
C      1  0.4491800000000  0.5946190000000  0.5451220000000 1.0
C      1  0.4047810000000  0.5347960000000  0.4571470000000 1.0
C      1  0.5928710000000  0.4641490000000  0.4508160000000 1.0
C      1  0.4879600000000  0.4787790000000  0.5955650000000 1.0
C      1  0.5041970000000  0.5084270000000  0.6004280000000 1.0
C      1  0.5309170000000  0.4547760000000  0.4097530000000 1.0
C      1  0.4645750000000  0.5473690000000  0.4236750000000 1.0
C      1  0.4188230000000  0.5517930000000  0.5457730000000 1.0
C      1  0.5849000000000  0.4520820000000  0.5423930000000 1.0
C      1  0.4217300000000  0.5926200000000  0.4722390000000 1.0
C      1  0.5773210000000  0.4101820000000  0.4650020000000 1.0
C      1  0.5555440000000  0.4769950000000  0.5843810000000 1.0
C      1  0.4504360000000  0.5212700000000  0.5880510000000 1.0
C      1  0.5909050000000  0.4889370000000  0.4351450000000 1.0
C      1  0.4111850000000  0.5082810000000  0.4371680000000 1.0
C      1  0.5924980000000  0.5499810000000  0.5083600000000 1.0
C      1  0.4119720000000  0.4544600000000  0.5006570000000 1.0
C      1  0.5311980000000  0.4276440000000  0.4727450000000 1.0
C      1  0.4710800000000  0.5875270000000  0.4760660000000 1.0
C      1  0.4091050000000  0.5274990000000  0.5240430000000 1.0
C      1  0.5901270000000  0.4752540000000  0.5180620000000 1.0
C      1  0.5030350000000  0.5801070000000  0.4536210000000 1.0
C      1  0.5005360000000  0.4249540000000  0.4582920000000 1.0
C      1  0.4882730000000  0.5655570000000  0.4956820000000 1.0
C      1  0.5116320000000  0.4466680000000  0.4931740000000 1.0
C      1  0.5738200000000  0.4299640000000  0.5190510000000 1.0
C      1  0.4295450000000  0.5745360000000  0.5254160000000 1.0
C      1  0.5298920000000  0.4321560000000  0.5520880000000 1.0
C      1  0.4774910000000  0.5660370000000  0.5494880000000 1.0
C      1  0.5340790000000  0.5803670000000  0.5212920000000 1.0
C      1  0.4691150000000  0.4369780000000  0.5331200000000 1.0
C      1  0.5385210000000  0.4760270000000  0.4912740000000 1.0
C      1  0.4589690000000  0.5146560000000  0.4891180000000 1.0
C      1  0.4632290000000  0.5168920000000  0.4300120000000 1.0
C      1  0.5394500000000  0.4788750000000  0.4317740000000 1.0
C      1  0.5420840000000  0.5415120000000  0.4009360000000 1.0
C      1  0.4587120000000  0.4599490000000  0.3943900000000 1.0
C      1  0.4996390000000  0.3836170000000  0.4899260000000 1.0
C      1  0.5077150000000  0.6204120000000  0.4801560000000 1.0
C      1  0.5308800000000  0.4524670000000  0.4495120000000 1.0
C      1  0.4606430000000  0.5510680000000  0.4635050000000 1.0
C      1  0.4693620000000  0.5491290000000  0.5874440000000 1.0
C      1  0.5358480000000  0.4511800000000  0.5862420000000 1.0
C      1  0.4241670000000  0.4539000000000  0.4224110000000 1.0
C      1  0.5719210000000  0.5453190000000  0.4300420000000 1.0
C      1  0.5195540000000  0.5997390000000  0.4999410000000 1.0
C      1  0.4807670000000  0.3983460000000  0.5027310000000 1.0
C      1  0.5799160000000  0.5062960000000  0.4793820000000 1.0
C      1  0.4173760000000  0.4913090000000  0.4728020000000 1.0
C      1  0.5067170000000  0.5426490000000  0.4804140000000 1.0
C      1  0.4836860000000  0.4447210000000  0.4783130000000 1.0
C      1  0.4342710000000  0.5044090000000  0.4197060000000 1.0
C      1  0.5668970000000  0.4915430000000  0.4182720000000 1.0
C      1  0.5591170000000  0.5299870000000  0.4694030000000 1.0
C      1  0.4415450000000  0.4705570000000  0.4609040000000 1.0
C      1  0.4706990000000  0.5528530000000  0.3942060000000 1.0
C      1  0.5030140000000  0.4132710000000  0.4099390000000 1.0
C      1  0.5241040000000  0.5509240000000  0.5247840000000 1.0
C      1  0.4873240000000  0.4705410000000  0.5140710000000 1.0
C      1  0.4674770000000  0.4707970000000  0.4770670000000 1.0
C      1  0.5302660000000  0.5224850000000  0.4808010000000 1.0
C      1  0.5648040000000  0.4527950000000  0.4471510000000 1.0
C      1  0.4350320000000  0.5379790000000  0.4487400000000 1.0
C      1  0.5996550000000  0.5195440000000  0.5037110000000 1.0
C      1  0.4024530000000  0.4833380000000  0.5013160000000 1.0
C      1  0.5291040000000  0.5187620000000  0.5796740000000 1.0
C      1  0.4747180000000  0.4833500000000  0.5649110000000 1.0
C      1  0.4821310000000  0.4576410000000  0.4264950000000 1.0
C      1  0.5151210000000  0.5428750000000  0.4303550000000 1.0
C      1  0.5523970000000  0.4318890000000  0.4233590000000 1.0
C      1  0.4407580000000  0.5684440000000  0.4347720000000 1.0
C      1  0.5936510000000  0.5060460000000  0.5320700000000 1.0
C      1  0.4076960000000  0.4945900000000  0.5325360000000 1.0
C      1  0.5329980000000  0.5947570000000  0.5584380000000 1.0
C      1  0.4639270000000  0.4133440000000  0.5558080000000 1.0
C      1  0.5202340000000  0.4841650000000  0.3971330000000 1.0
C      1  0.4932810000000  0.4885930000000  0.3907130000000 1.0
C      1  0.4059560000000  0.4559280000000  0.4435970000000 1.0
C      1  0.5933330000000  0.5391430000000  0.4481860000000 1.0
C      1  0.3789990000000  0.5052630000000  0.4970020000000 1.0
C      1  0.6209900000000  0.4977240000000  0.4919300000000 1.0
C      1  0.4824890000000  0.5312490000000  0.6098080000000 1.0
C      1  0.5119090000000  0.4571590000000  0.6063380000000 1.0
END
