TITL C-2622955-8511-446 0.0029822146628982 125000 -761.08832006306 0 0 147 (C1) n - 1
REM
REM in /nfs/bkarasulu/CARBON/AIRSS/Generating-Clusters/AIREBO/with-SteepDescent/Higher-Symm/SD-CG/HFTN-CG
REM
REM
REM
REM
REM
REM ./C.cell (b20cbc046b6831c77cfcea5457e17084)
REM
REM compiler GCC version 9.2.1 20190827 (Red Hat 9.2.1-1)
REM options -cpp -mtune=generic -march=x86-64 -g -O0 -fpre-include=/usr/include/finclude/math-vector-fortran.h
REM seed -399507462 1408754734 806176699 -635588143 1111765573 207706435 1953477534 -1317545361 1671253668 -1721575228 -1006612662 260897277 -209789057 -395439878 -725979509 2106679149 2040940822 147222096 116157546 1588424491 -1677142791 -2115488695 253885505 523877111 260476394 1081379585 1742451765 1629998661 342266071 -819089399 -136643062 954440665 760298772
REM
CELL 1.54180   50.00000   50.00000   50.00000   90.00000   90.00000   90.00000
LATT -1
SFAC C  
C      1  0.5668560000000  0.5099420000000  0.4724150000000 1.0
C      1  0.5606410000000  0.5172650000000  0.5170420000000 1.0
C      1  0.5609280000000  0.4632990000000  0.5104210000000 1.0
C      1  0.4310620000000  0.4966550000000  0.4825180000000 1.0
C      1  0.4416880000000  0.5303870000000  0.5230530000000 1.0
C      1  0.4351350000000  0.4706190000000  0.5021350000000 1.0
C      1  0.4841900000000  0.4550600000000  0.4267740000000 1.0
C      1  0.4862360000000  0.5841560000000  0.4909750000000 1.0
C      1  0.4830250000000  0.4610850000000  0.5751250000000 1.0
C      1  0.5166200000000  0.4510770000000  0.4361830000000 1.0
C      1  0.5163420000000  0.5764670000000  0.4969520000000 1.0
C      1  0.5163780000000  0.4674940000000  0.5768160000000 1.0
C      1  0.4737520000000  0.4323140000000  0.5705490000000 1.0
C      1  0.4706510000000  0.4661370000000  0.4033050000000 1.0
C      1  0.4757380000000  0.5978400000000  0.5132590000000 1.0
C      1  0.5334020000000  0.4435910000000  0.5804470000000 1.0
C      1  0.5313560000000  0.4673400000000  0.4159690000000 1.0
C      1  0.5280160000000  0.5946000000000  0.5169950000000 1.0
C      1  0.4846030000000  0.3913480000000  0.4817840000000 1.0
C      1  0.4851170000000  0.5598120000000  0.4205820000000 1.0
C      1  0.4859470000000  0.5432050000000  0.5953670000000 1.0
C      1  0.5133720000000  0.4012310000000  0.4823560000000 1.0
C      1  0.5163700000000  0.5642640000000  0.4190530000000 1.0
C      1  0.5164070000000  0.5476490000000  0.5982430000000 1.0
C      1  0.4428840000000  0.4769480000000  0.5647660000000 1.0
C      1  0.4317070000000  0.4533030000000  0.4310490000000 1.0
C      1  0.4403890000000  0.5765850000000  0.4961610000000 1.0
C      1  0.5588880000000  0.4676750000000  0.5612920000000 1.0
C      1  0.5702610000000  0.4502370000000  0.4384090000000 1.0
C      1  0.5700360000000  0.5766400000000  0.4949950000000 1.0
C      1  0.5408880000000  0.5430170000000  0.5088040000000 1.0
C      1  0.5382370000000  0.4717170000000  0.5344120000000 1.0
C      1  0.5424070000000  0.4878630000000  0.4631610000000 1.0
C      1  0.4561970000000  0.5465350000000  0.4979490000000 1.0
C      1  0.4521410000000  0.4751310000000  0.5318480000000 1.0
C      1  0.4499010000000  0.4882920000000  0.4573410000000 1.0
C      1  0.5470030000000  0.5730200000000  0.4719890000000 1.0
C      1  0.5466750000000  0.4949980000000  0.5752580000000 1.0
C      1  0.5485240000000  0.4374090000000  0.4559320000000 1.0
C      1  0.4545420000000  0.5788850000000  0.4673740000000 1.0
C      1  0.4561220000000  0.4888420000000  0.5851770000000 1.0
C      1  0.4545330000000  0.4372450000000  0.4501870000000 1.0
C      1  0.4775130000000  0.5051300000000  0.5284990000000 1.0
C      1  0.4812730000000  0.4849110000000  0.4841430000000 1.0
C      1  0.4812420000000  0.5178410000000  0.4861400000000 1.0
C      1  0.5192040000000  0.5042080000000  0.5206190000000 1.0
C      1  0.5213850000000  0.4791090000000  0.4977840000000 1.0
C      1  0.5204830000000  0.5125370000000  0.4896940000000 1.0
C      1  0.4812410000000  0.5011050000000  0.4542170000000 1.0
C      1  0.4809450000000  0.5325810000000  0.5167830000000 1.0
C      1  0.4800680000000  0.4680970000000  0.5137110000000 1.0
C      1  0.5143790000000  0.5067460000000  0.4593440000000 1.0
C      1  0.5128890000000  0.5371850000000  0.5271970000000 1.0
C      1  0.5111710000000  0.4562510000000  0.5207990000000 1.0
C      1  0.5877190000000  0.5394750000000  0.5362830000000 1.0
C      1  0.5871220000000  0.4451710000000  0.5223230000000 1.0
C      1  0.5863880000000  0.5149440000000  0.4450340000000 1.0
C      1  0.4141980000000  0.5326860000000  0.5429300000000 1.0
C      1  0.4141970000000  0.4454950000000  0.5114310000000 1.0
C      1  0.4193950000000  0.5190630000000  0.4515610000000 1.0
C      1  0.5410170000000  0.4062740000000  0.4656620000000 1.0
C      1  0.5356960000000  0.5795500000000  0.4404330000000 1.0
C      1  0.5367310000000  0.5213950000000  0.5942660000000 1.0
C      1  0.4659830000000  0.4070180000000  0.4611870000000 1.0
C      1  0.4639390000000  0.5822730000000  0.4348700000000 1.0
C      1  0.4700740000000  0.5142500000000  0.6034920000000 1.0
C      1  0.4185890000000  0.4218430000000  0.4928520000000 1.0
C      1  0.4213900000000  0.5455300000000  0.4353880000000 1.0
C      1  0.4237060000000  0.5285890000000  0.5744850000000 1.0
C      1  0.5772590000000  0.4295580000000  0.4965290000000 1.0
C      1  0.5833380000000  0.5452630000000  0.4488170000000 1.0
C      1  0.5806280000000  0.5246850000000  0.5585800000000 1.0
C      1  0.4686200000000  0.5466830000000  0.5446810000000 1.0
C      1  0.4683800000000  0.4239420000000  0.4971760000000 1.0
C      1  0.4683020000000  0.5277740000000  0.4375530000000 1.0
C      1  0.5317240000000  0.5438060000000  0.5618090000000 1.0
C      1  0.5322010000000  0.4290420000000  0.5203200000000 1.0
C      1  0.5247090000000  0.5155460000000  0.4303920000000 1.0
C      1  0.4497230000000  0.5281080000000  0.5813580000000 1.0
C      1  0.4427390000000  0.4176820000000  0.4827960000000 1.0
C      1  0.4475660000000  0.5535550000000  0.4326940000000 1.0
C      1  0.5582060000000  0.5329730000000  0.5714320000000 1.0
C      1  0.5499600000000  0.4238470000000  0.4933630000000 1.0
C      1  0.5583920000000  0.5542530000000  0.4391840000000 1.0
C      1  0.5193600000000  0.5457780000000  0.4826090000000 1.0
C      1  0.5128680000000  0.4882290000000  0.5499550000000 1.0
C      1  0.5174820000000  0.4651080000000  0.4674650000000 1.0
C      1  0.4858060000000  0.5512670000000  0.4818850000000 1.0
C      1  0.4793740000000  0.4839720000000  0.5502450000000 1.0
C      1  0.4854240000000  0.4619130000000  0.4598490000000 1.0
C      1  0.4330500000000  0.5028770000000  0.5366540000000 1.0
C      1  0.4372330000000  0.4593210000000  0.4698400000000 1.0
C      1  0.4326550000000  0.5287940000000  0.4806600000000 1.0
C      1  0.5532470000000  0.5014340000000  0.5413190000000 1.0
C      1  0.5552730000000  0.4609710000000  0.4795310000000 1.0
C      1  0.5589720000000  0.5413260000000  0.4800620000000 1.0
C      1  0.4066660000000  0.4895410000000  0.4607030000000 1.0
C      1  0.3988110000000  0.5434500000000  0.5147360000000 1.0
C      1  0.3994850000000  0.4617740000000  0.5351090000000 1.0
C      1  0.5900400000000  0.4866520000000  0.4628950000000 1.0
C      1  0.5874870000000  0.5303720000000  0.5058500000000 1.0
C      1  0.5864220000000  0.4775230000000  0.5280460000000 1.0
C      1  0.5867070000000  0.4286070000000  0.5488190000000 1.0
C      1  0.5616590000000  0.4944980000000  0.4359290000000 1.0
C      1  0.5666860000000  0.5594040000000  0.5237080000000 1.0
C      1  0.4359080000000  0.4455390000000  0.5358780000000 1.0
C      1  0.4337960000000  0.4960540000000  0.4320790000000 1.0
C      1  0.4246980000000  0.5649560000000  0.5451560000000 1.0
C      1  0.5192720000000  0.4208520000000  0.4456470000000 1.0
C      1  0.5171030000000  0.5880690000000  0.4659890000000 1.0
C      1  0.5200300000000  0.4933270000000  0.5968010000000 1.0
C      1  0.4857140000000  0.4260860000000  0.4424250000000 1.0
C      1  0.4847760000000  0.5928230000000  0.4591870000000 1.0
C      1  0.4881210000000  0.4874970000000  0.5959920000000 1.0
C      1  0.5290010000000  0.5408020000000  0.4112390000000 1.0
C      1  0.5253810000000  0.5700960000000  0.5770520000000 1.0
C      1  0.5236410000000  0.4006170000000  0.5121830000000 1.0
C      1  0.4725580000000  0.5324260000000  0.4044450000000 1.0
C      1  0.4724620000000  0.5650480000000  0.5730700000000 1.0
C      1  0.4785780000000  0.4000550000000  0.5141030000000 1.0
C      1  0.4771130000000  0.4165010000000  0.5402670000000 1.0
C      1  0.4640430000000  0.4994690000000  0.4045590000000 1.0
C      1  0.4759820000000  0.5797000000000  0.5412540000000 1.0
C      1  0.5327420000000  0.4245010000000  0.5531190000000 1.0
C      1  0.5179870000000  0.4912190000000  0.4123690000000 1.0
C      1  0.5356570000000  0.5825830000000  0.5477080000000 1.0
C      1  0.5085480000000  0.5212350000000  0.5569090000000 1.0
C      1  0.5190820000000  0.4347470000000  0.4830790000000 1.0
C      1  0.5316090000000  0.5416130000000  0.4511110000000 1.0
C      1  0.4807300000000  0.5267950000000  0.5671810000000 1.0
C      1  0.4881940000000  0.4460620000000  0.4898050000000 1.0
C      1  0.4818360000000  0.5519980000000  0.4523970000000 1.0
C      1  0.5593120000000  0.5909790000000  0.5242220000000 1.0
C      1  0.5616090000000  0.4371720000000  0.5636790000000 1.0
C      1  0.5587010000000  0.4701350000000  0.4215560000000 1.0
C      1  0.4443110000000  0.5762480000000  0.5293520000000 1.0
C      1  0.4484460000000  0.4270010000000  0.5513420000000 1.0
C      1  0.4400240000000  0.4752350000000  0.4089860000000 1.0
C      1  0.4159280000000  0.4779490000000  0.5487320000000 1.0
C      1  0.4096290000000  0.4625360000000  0.4502430000000 1.0
C      1  0.4167700000000  0.5521400000000  0.4953010000000 1.0
C      1  0.5820530000000  0.4921660000000  0.5568260000000 1.0
C      1  0.5918560000000  0.4614280000000  0.4536630000000 1.0
C      1  0.5905750000000  0.5534100000000  0.4810260000000 1.0
C      1  0.4904580000000  0.4947040000000  0.4221470000000 1.0
C      1  0.5023220000000  0.4341030000000  0.5450360000000 1.0
C      1  0.5079180000000  0.5681620000000  0.5387800000000 1.0
END
