TITL C-2622953-3516-144 3.17809234695768e-08 125000 -55.7258426627266 0 0 10 (D(inf)h) n - 1
REM
REM in /nfs/bkarasulu/CARBON/AIRSS/Generating-Clusters/AIREBO/with-SteepDescent/Higher-Symm/SD-CG/HFTN-CG
REM
REM
REM
REM
REM
REM ./C.cell (b20cbc046b6831c77cfcea5457e17084)
REM
REM compiler GCC version 9.2.1 20190827 (Red Hat 9.2.1-1)
REM options -cpp -mtune=generic -march=x86-64 -g -O0 -fpre-include=/usr/include/finclude/math-vector-fortran.h
REM seed -214830858 259640304 1439058831 1505565344 1845713554 376764735 643305763 -336163599 139739135 199381281 -797524385 -1447076820 -1899293822 -545979677 -310827867 -2097520765 2101804098 -2017426297 417001910 1937157949 144825519 1884244032 -119724699 1537913630 1988639551 1857706073 178926783 -1290999741 -1256450443 -1840876906 -73253556 362417037 88769237
REM
CELL 1.54180   50.00000   50.00000   50.00000   90.00000   90.00000   90.00000
LATT -1
SFAC C  
C      1  0.5000760000000  0.4600560000000  0.4999060000000 1.0
C      1  0.5000760000000  0.5665740000000  0.4999060000000 1.0
C      1  0.5000760000000  0.5932040000000  0.4999060000000 1.0
C      1  0.5000760000000  0.5133150000000  0.4999060000000 1.0
C      1  0.5000760000000  0.3805890000000  0.4999060000000 1.0
C      1  0.5000760000000  0.4866850000000  0.4999060000000 1.0
C      1  0.5000760000000  0.6194110000000  0.4999060000000 1.0
C      1  0.5000760000000  0.4334260000000  0.4999060000000 1.0
C      1  0.5000760000000  0.5399440000000  0.4999060000000 1.0
C      1  0.5000760000000  0.4067960000000  0.4999060000000 1.0
END
