TITL C-2622961-1971-189 0.0021958539790619 125000 -543.713296840463 0 0 104 (C1) n - 1
REM
REM in /nfs/bkarasulu/CARBON/AIRSS/Generating-Clusters/AIREBO/with-SteepDescent/Higher-Symm/SD-CG/HFTN-CG
REM
REM
REM
REM
REM
REM ./C.cell (b20cbc046b6831c77cfcea5457e17084)
REM
REM compiler GCC version 9.2.1 20190827 (Red Hat 9.2.1-1)
REM options -cpp -mtune=generic -march=x86-64 -g -O0 -fpre-include=/usr/include/finclude/math-vector-fortran.h
REM seed -387480720 387096097 1392006965 -1872407376 1354617269 315233348 886754273 973054013 -558141787 -1376417253 -109491498 -353871337 -492734328 -1835556343 1233401626 2094577787 546652547 6844142 744976295 -1548687694 -476654371 863579436 -1169543384 -605914205 -287976431 634452152 -144839709 -1038251569 495526360 -1201762322 996368027 1281919564 -54992305
REM
CELL 1.54180   50.00000   50.00000   50.00000   90.00000   90.00000   90.00000
LATT -1
SFAC C  
C      1  0.4403990000000  0.4430840000000  0.5562780000000 1.0
C      1  0.5570270000000  0.4403100000000  0.5475040000000 1.0
C      1  0.5484090000000  0.4428750000000  0.4428200000000 1.0
C      1  0.4323750000000  0.4406660000000  0.4503560000000 1.0
C      1  0.4456830000000  0.5567240000000  0.4369490000000 1.0
C      1  0.5632770000000  0.5547230000000  0.4474020000000 1.0
C      1  0.5515650000000  0.5732590000000  0.5614880000000 1.0
C      1  0.4452600000000  0.5569490000000  0.5474870000000 1.0
C      1  0.5142370000000  0.4177380000000  0.4683090000000 1.0
C      1  0.4611680000000  0.4071400000000  0.4830750000000 1.0
C      1  0.4786910000000  0.4124220000000  0.5086630000000 1.0
C      1  0.5104890000000  0.4118100000000  0.4978340000000 1.0
C      1  0.5075170000000  0.5862920000000  0.5129520000000 1.0
C      1  0.4755690000000  0.5819340000000  0.5175790000000 1.0
C      1  0.4847500000000  0.5875730000000  0.4631640000000 1.0
C      1  0.5114090000000  0.5853730000000  0.4789210000000 1.0
C      1  0.5171540000000  0.5027260000000  0.5701640000000 1.0
C      1  0.5725420000000  0.4935210000000  0.4703800000000 1.0
C      1  0.4618160000000  0.5024680000000  0.4227370000000 1.0
C      1  0.4454660000000  0.5041700000000  0.5129160000000 1.0
C      1  0.5113340000000  0.4935730000000  0.4383370000000 1.0
C      1  0.5595710000000  0.4973720000000  0.5155750000000 1.0
C      1  0.4673880000000  0.5029850000000  0.5740620000000 1.0
C      1  0.4297360000000  0.4951860000000  0.4696020000000 1.0
C      1  0.4312590000000  0.4608160000000  0.5327000000000 1.0
C      1  0.5349170000000  0.4594960000000  0.5815410000000 1.0
C      1  0.5826190000000  0.4517200000000  0.4883960000000 1.0
C      1  0.4783480000000  0.4560470000000  0.4242240000000 1.0
C      1  0.4323330000000  0.5412490000000  0.4870410000000 1.0
C      1  0.5368740000000  0.5319760000000  0.4247330000000 1.0
C      1  0.5815810000000  0.5356790000000  0.5361550000000 1.0
C      1  0.4810800000000  0.5522530000000  0.5903160000000 1.0
C      1  0.5166030000000  0.4783870000000  0.4783430000000 1.0
C      1  0.4848860000000  0.4905740000000  0.4768740000000 1.0
C      1  0.4885990000000  0.4797080000000  0.5068280000000 1.0
C      1  0.5094040000000  0.4886360000000  0.5246300000000 1.0
C      1  0.5196390000000  0.5180950000000  0.5165550000000 1.0
C      1  0.4889600000000  0.5260330000000  0.5287330000000 1.0
C      1  0.4851050000000  0.5181510000000  0.4967050000000 1.0
C      1  0.5170390000000  0.5117540000000  0.4848850000000 1.0
C      1  0.4332370000000  0.4058040000000  0.4935400000000 1.0
C      1  0.4920800000000  0.4058980000000  0.5382870000000 1.0
C      1  0.5362180000000  0.4155090000000  0.5104900000000 1.0
C      1  0.5023930000000  0.4038760000000  0.4402980000000 1.0
C      1  0.4493710000000  0.5973460000000  0.5037390000000 1.0
C      1  0.4927830000000  0.5915970000000  0.4348330000000 1.0
C      1  0.5403410000000  0.5939760000000  0.4904140000000 1.0
C      1  0.5009320000000  0.5950000000000  0.5451760000000 1.0
C      1  0.4902850000000  0.5710030000000  0.5657340000000 1.0
C      1  0.5487650000000  0.5750930000000  0.5077650000000 1.0
C      1  0.5096340000000  0.5670750000000  0.4398230000000 1.0
C      1  0.4492940000000  0.5659020000000  0.4924190000000 1.0
C      1  0.4882470000000  0.4345010000000  0.4432740000000 1.0
C      1  0.5566670000000  0.4299970000000  0.4916550000000 1.0
C      1  0.5109250000000  0.4245700000000  0.5481710000000 1.0
C      1  0.4412130000000  0.4318920000000  0.5069370000000 1.0
C      1  0.5436240000000  0.5169410000000  0.5659900000000 1.0
C      1  0.5661910000000  0.5210150000000  0.4544780000000 1.0
C      1  0.4547700000000  0.5273310000000  0.4299070000000 1.0
C      1  0.4431930000000  0.5044750000000  0.5527320000000 1.0
C      1  0.5511430000000  0.4971210000000  0.4372340000000 1.0
C      1  0.5632240000000  0.4973970000000  0.5596610000000 1.0
C      1  0.4532520000000  0.4738260000000  0.5633700000000 1.0
C      1  0.4316470000000  0.4702120000000  0.4607150000000 1.0
C      1  0.5906760000000  0.4729120000000  0.4730160000000 1.0
C      1  0.4679120000000  0.4770690000000  0.4069210000000 1.0
C      1  0.4208690000000  0.4844220000000  0.5196530000000 1.0
C      1  0.5200430000000  0.4800440000000  0.5919430000000 1.0
C      1  0.5867300000000  0.5129990000000  0.5214920000000 1.0
C      1  0.4719700000000  0.5292110000000  0.5922330000000 1.0
C      1  0.4147910000000  0.5198040000000  0.4786680000000 1.0
C      1  0.5189010000000  0.5136040000000  0.4147190000000 1.0
C      1  0.5502870000000  0.5293290000000  0.5225400000000 1.0
C      1  0.5209230000000  0.5232000000000  0.4534600000000 1.0
C      1  0.4543600000000  0.5157730000000  0.4823530000000 1.0
C      1  0.4921960000000  0.5167910000000  0.5600730000000 1.0
C      1  0.5472100000000  0.4852650000000  0.4872820000000 1.0
C      1  0.5225030000000  0.4741780000000  0.5524860000000 1.0
C      1  0.4592460000000  0.4734300000000  0.5180720000000 1.0
C      1  0.4811550000000  0.4835520000000  0.4440230000000 1.0
C      1  0.4481250000000  0.5281230000000  0.5326710000000 1.0
C      1  0.5371980000000  0.5446890000000  0.5499120000000 1.0
C      1  0.5440500000000  0.5404070000000  0.4715190000000 1.0
C      1  0.4697080000000  0.5341920000000  0.4582340000000 1.0
C      1  0.4641370000000  0.4602860000000  0.4620810000000 1.0
C      1  0.5328480000000  0.4705920000000  0.4426990000000 1.0
C      1  0.5533840000000  0.4728370000000  0.5382910000000 1.0
C      1  0.4748160000000  0.4569000000000  0.5433820000000 1.0
C      1  0.4682010000000  0.5495660000000  0.5156330000000 1.0
C      1  0.5064570000000  0.5451080000000  0.5602830000000 1.0
C      1  0.5527000000000  0.5489910000000  0.4990410000000 1.0
C      1  0.4977150000000  0.5431150000000  0.4492250000000 1.0
C      1  0.4507610000000  0.4547410000000  0.4920850000000 1.0
C      1  0.5125340000000  0.4507080000000  0.4607860000000 1.0
C      1  0.5555620000000  0.4589720000000  0.5071010000000 1.0
C      1  0.5017850000000  0.4503470000000  0.5512230000000 1.0
C      1  0.5318890000000  0.5738160000000  0.5331720000000 1.0
C      1  0.5344600000000  0.5704130000000  0.4586950000000 1.0
C      1  0.4627070000000  0.5668040000000  0.4648350000000 1.0
C      1  0.4664770000000  0.5747580000000  0.5465570000000 1.0
C      1  0.5440580000000  0.4263720000000  0.4643440000000 1.0
C      1  0.5370280000000  0.4222820000000  0.5374730000000 1.0
C      1  0.4602190000000  0.4291740000000  0.5319320000000 1.0
C      1  0.4619040000000  0.4264180000000  0.4600360000000 1.0
END
