TITL C-2622954-8726-671 -80.3238449881962 125000 -973.088687579642 0 0 179 (C1) n - 1
REM
REM in /nfs/bkarasulu/CARBON/AIRSS/Generating-Clusters/AIREBO/with-SteepDescent/Higher-Symm/SD-CG/HFTN-CG
REM
REM
REM
REM
REM
REM ./C.cell (b20cbc046b6831c77cfcea5457e17084)
REM
REM compiler GCC version 9.2.1 20190827 (Red Hat 9.2.1-1)
REM options -cpp -mtune=generic -march=x86-64 -g -O0 -fpre-include=/usr/include/finclude/math-vector-fortran.h
REM seed 1491820809 160739485 -1088273169 -2104443143 -622021129 -306909306 -1561410615 -805827966 -1924473851 1330887866 -785801716 473070538 242241689 1125249778 -821839057 1091087554 1645417378 471791634 -1076580754 1102254020 1802297522 1082189319 -295506956 387388805 -147141572 2056723327 -1601155363 983245238 -539449605 981404872 1384901621 1741461729 -1903582713
REM
CELL 1.54180   50.00000   50.00000   50.00000   90.00000   90.00000   90.00000
LATT -1
SFAC C  
C      1  0.4565480000000  0.5275570000000  0.5114750000000 1.0
C      1  0.4917990000000  0.4388100000000  0.5083860000000 1.0
C      1  0.5470020000000  0.5264770000000  0.5094200000000 1.0
C      1  0.5109430000000  0.4859900000000  0.4674070000000 1.0
C      1  0.5203800000000  0.5118890000000  0.4552430000000 1.0
C      1  0.4901420000000  0.5095100000000  0.4617680000000 1.0
C      1  0.5031400000000  0.5766050000000  0.5533200000000 1.0
C      1  0.4232310000000  0.4596780000000  0.5610450000000 1.0
C      1  0.5623810000000  0.4521920000000  0.5646620000000 1.0
C      1  0.4798630000000  0.5430610000000  0.5275060000000 1.0
C      1  0.4699350000000  0.4586590000000  0.5191510000000 1.0
C      1  0.5490980000000  0.4946320000000  0.5192650000000 1.0
C      1  0.4521810000000  0.4525780000000  0.5736640000000 1.0
C      1  0.5545580000000  0.4830200000000  0.5717360000000 1.0
C      1  0.4775660000000  0.5636350000000  0.5679450000000 1.0
C      1  0.4658640000000  0.4104190000000  0.4404910000000 1.0
C      1  0.5991810000000  0.5181770000000  0.4289810000000 1.0
C      1  0.4484660000000  0.5761130000000  0.4364760000000 1.0
C      1  0.5148480000000  0.4014550000000  0.4318890000000 1.0
C      1  0.5604220000000  0.5553570000000  0.4305430000000 1.0
C      1  0.4086780000000  0.5437430000000  0.4326030000000 1.0
C      1  0.5087950000000  0.5920440000000  0.4306910000000 1.0
C      1  0.4205510000000  0.4688700000000  0.4318570000000 1.0
C      1  0.5788350000000  0.4424590000000  0.4231240000000 1.0
C      1  0.4117970000000  0.4912680000000  0.4249530000000 1.0
C      1  0.5575350000000  0.4347860000000  0.4122450000000 1.0
C      1  0.5084190000000  0.5736830000000  0.4108840000000 1.0
C      1  0.5751180000000  0.5730570000000  0.5147200000000 1.0
C      1  0.4065630000000  0.5346380000000  0.5211550000000 1.0
C      1  0.5306240000000  0.4036870000000  0.5145770000000 1.0
C      1  0.4764010000000  0.5681420000000  0.4972780000000 1.0
C      1  0.4517360000000  0.4352760000000  0.4936800000000 1.0
C      1  0.5792590000000  0.4916870000000  0.4941710000000 1.0
C      1  0.4354560000000  0.4622120000000  0.4584070000000 1.0
C      1  0.5783590000000  0.4663900000000  0.4450300000000 1.0
C      1  0.5015090000000  0.5827210000000  0.4601620000000 1.0
C      1  0.5955450000000  0.5410710000000  0.4441050000000 1.0
C      1  0.4248230000000  0.5637340000000  0.4532430000000 1.0
C      1  0.4885810000000  0.3866640000000  0.4476160000000 1.0
C      1  0.5427480000000  0.5365430000000  0.5878790000000 1.0
C      1  0.4385540000000  0.5258990000000  0.5884190000000 1.0
C      1  0.5021830000000  0.4352220000000  0.5875270000000 1.0
C      1  0.5031880000000  0.4031580000000  0.5218560000000 1.0
C      1  0.5822130000000  0.5475340000000  0.5249110000000 1.0
C      1  0.4151670000000  0.5660930000000  0.5237020000000 1.0
C      1  0.5836810000000  0.4539280000000  0.5222070000000 1.0
C      1  0.4899530000000  0.5918880000000  0.5168680000000 1.0
C      1  0.4150540000000  0.4449240000000  0.5317810000000 1.0
C      1  0.4725900000000  0.4583410000000  0.4792490000000 1.0
C      1  0.5504560000000  0.5011490000000  0.4787420000000 1.0
C      1  0.4787070000000  0.5439610000000  0.4783080000000 1.0
C      1  0.6011270000000  0.4899330000000  0.5523320000000 1.0
C      1  0.4563650000000  0.5954910000000  0.5563780000000 1.0
C      1  0.4397820000000  0.4073310000000  0.5429640000000 1.0
C      1  0.5315410000000  0.4822980000000  0.4283610000000 1.0
C      1  0.5077470000000  0.5373890000000  0.4272400000000 1.0
C      1  0.4711890000000  0.4831800000000  0.4348870000000 1.0
C      1  0.5724330000000  0.5040170000000  0.5573050000000 1.0
C      1  0.4454850000000  0.5649140000000  0.5566290000000 1.0
C      1  0.4632790000000  0.4253550000000  0.5585270000000 1.0
C      1  0.5906330000000  0.5290220000000  0.5003810000000 1.0
C      1  0.4369830000000  0.5688730000000  0.5017520000000 1.0
C      1  0.4833030000000  0.4109080000000  0.4963350000000 1.0
C      1  0.5593830000000  0.5344570000000  0.4035220000000 1.0
C      1  0.4338250000000  0.5381270000000  0.4103720000000 1.0
C      1  0.5030740000000  0.4226070000000  0.4077690000000 1.0
C      1  0.5284600000000  0.4378620000000  0.4236010000000 1.0
C      1  0.5328180000000  0.5541350000000  0.4114860000000 1.0
C      1  0.4199600000000  0.5155420000000  0.4412310000000 1.0
C      1  0.5013910000000  0.4388740000000  0.4441830000000 1.0
C      1  0.5552270000000  0.5311210000000  0.4527290000000 1.0
C      1  0.4524220000000  0.5199340000000  0.4448890000000 1.0
C      1  0.4951350000000  0.4151050000000  0.5527370000000 1.0
C      1  0.5667970000000  0.5365680000000  0.5489760000000 1.0
C      1  0.4175310000000  0.5461280000000  0.5512240000000 1.0
C      1  0.5091820000000  0.4759170000000  0.5422840000000 1.0
C      1  0.5026390000000  0.5214300000000  0.5440440000000 1.0
C      1  0.4811140000000  0.4951160000000  0.5427830000000 1.0
C      1  0.4747440000000  0.6021850000000  0.5411220000000 1.0
C      1  0.4128730000000  0.4149460000000  0.5402090000000 1.0
C      1  0.6016930000000  0.4652330000000  0.5404970000000 1.0
C      1  0.4663950000000  0.4547690000000  0.4168180000000 1.0
C      1  0.5646590000000  0.4870300000000  0.4217330000000 1.0
C      1  0.4839760000000  0.5553040000000  0.4099360000000 1.0
C      1  0.5370490000000  0.5643320000000  0.4770190000000 1.0
C      1  0.4245760000000  0.5076470000000  0.4708640000000 1.0
C      1  0.5360300000000  0.4212110000000  0.4497070000000 1.0
C      1  0.5001680000000  0.5680760000000  0.5919780000000 1.0
C      1  0.4363920000000  0.4724210000000  0.5963260000000 1.0
C      1  0.5484720000000  0.4615760000000  0.5974300000000 1.0
C      1  0.4731150000000  0.4832270000000  0.6275790000000 1.0
C      1  0.5232760000000  0.4914470000000  0.6265480000000 1.0
C      1  0.4904520000000  0.5316460000000  0.6252520000000 1.0
C      1  0.5791840000000  0.5428010000000  0.4738600000000 1.0
C      1  0.4346660000000  0.5450220000000  0.4807300000000 1.0
C      1  0.4967050000000  0.4132730000000  0.4662480000000 1.0
C      1  0.5603060000000  0.5590010000000  0.5716910000000 1.0
C      1  0.4099470000000  0.5268880000000  0.5744990000000 1.0
C      1  0.5170870000000  0.4081450000000  0.5768740000000 1.0
C      1  0.4310500000000  0.4986870000000  0.5030170000000 1.0
C      1  0.5350660000000  0.4486980000000  0.4696970000000 1.0
C      1  0.5483940000000  0.5889850000000  0.4904270000000 1.0
C      1  0.5764880000000  0.5110500000000  0.4133000000000 1.0
C      1  0.4561390000000  0.5562290000000  0.4130330000000 1.0
C      1  0.4747030000000  0.4286320000000  0.4162120000000 1.0
C      1  0.4617610000000  0.5487930000000  0.4518310000000 1.0
C      1  0.4711380000000  0.4411600000000  0.4540260000000 1.0
C      1  0.5744040000000  0.5043040000000  0.4568360000000 1.0
C      1  0.4899170000000  0.5324290000000  0.5735030000000 1.0
C      1  0.4746090000000  0.4780980000000  0.5714950000000 1.0
C      1  0.5208030000000  0.4868320000000  0.5700270000000 1.0
C      1  0.4941310000000  0.6144890000000  0.4965130000000 1.0
C      1  0.4251830000000  0.4492230000000  0.5024880000000 1.0
C      1  0.5844260000000  0.4630180000000  0.4963710000000 1.0
C      1  0.6030080000000  0.4897300000000  0.4472440000000 1.0
C      1  0.4709640000000  0.5805480000000  0.4597680000000 1.0
C      1  0.4410260000000  0.4287380000000  0.4557210000000 1.0
C      1  0.5342870000000  0.5243530000000  0.3850170000000 1.0
C      1  0.4377070000000  0.5130530000000  0.3973400000000 1.0
C      1  0.5144260000000  0.4475530000000  0.3876480000000 1.0
C      1  0.5329780000000  0.5163410000000  0.5721690000000 1.0
C      1  0.4590230000000  0.5290920000000  0.5707760000000 1.0
C      1  0.4915460000000  0.4516530000000  0.5685400000000 1.0
C      1  0.5343160000000  0.5161920000000  0.4286120000000 1.0
C      1  0.4823910000000  0.5148570000000  0.4296540000000 1.0
C      1  0.5022410000000  0.4708700000000  0.4413410000000 1.0
C      1  0.4263310000000  0.5119680000000  0.5324420000000 1.0
C      1  0.5471710000000  0.4162340000000  0.5327850000000 1.0
C      1  0.5455430000000  0.5843280000000  0.5237630000000 1.0
C      1  0.4579620000000  0.4867730000000  0.4663500000000 1.0
C      1  0.5477190000000  0.4746240000000  0.4572730000000 1.0
C      1  0.5093220000000  0.5494450000000  0.4633120000000 1.0
C      1  0.4149320000000  0.4919300000000  0.5541920000000 1.0
C      1  0.5506920000000  0.4212740000000  0.5622340000000 1.0
C      1  0.5353430000000  0.5827510000000  0.5545190000000 1.0
C      1  0.5054380000000  0.4515030000000  0.4850190000000 1.0
C      1  0.5331730000000  0.5305870000000  0.4786210000000 1.0
C      1  0.4558480000000  0.5184630000000  0.4786990000000 1.0
C      1  0.5115740000000  0.5233020000000  0.3965090000000 1.0
C      1  0.4521580000000  0.4921970000000  0.4081730000000 1.0
C      1  0.5243040000000  0.4684170000000  0.3981460000000 1.0
C      1  0.4547960000000  0.5915480000000  0.4853880000000 1.0
C      1  0.4546180000000  0.4074910000000  0.4785290000000 1.0
C      1  0.6022370000000  0.5083570000000  0.4759440000000 1.0
C      1  0.4180840000000  0.4661970000000  0.4836860000000 1.0
C      1  0.5782480000000  0.4483470000000  0.4741530000000 1.0
C      1  0.5092120000000  0.6086350000000  0.4751790000000 1.0
C      1  0.5342800000000  0.4358790000000  0.5878420000000 1.0
C      1  0.5280220000000  0.5647290000000  0.5824130000000 1.0
C      1  0.4246360000000  0.4974500000000  0.5847540000000 1.0
C      1  0.5358650000000  0.6129830000000  0.4776390000000 1.0
C      1  0.4002850000000  0.4923460000000  0.4887160000000 1.0
C      1  0.5583220000000  0.4263660000000  0.4805010000000 1.0
C      1  0.5191550000000  0.4790970000000  0.4977890000000 1.0
C      1  0.5115390000000  0.5123460000000  0.4974900000000 1.0
C      1  0.4815640000000  0.5021860000000  0.4938790000000 1.0
C      1  0.5017240000000  0.4444910000000  0.5379800000000 1.0
C      1  0.5365290000000  0.5229560000000  0.5415880000000 1.0
C      1  0.4550320000000  0.5169130000000  0.5437380000000 1.0
C      1  0.4037380000000  0.5413970000000  0.4670750000000 1.0
C      1  0.5200010000000  0.3890830000000  0.4632210000000 1.0
C      1  0.5832430000000  0.5720440000000  0.4474650000000 1.0
C      1  0.5761030000000  0.5738270000000  0.4806760000000 1.0
C      1  0.3966780000000  0.5250340000000  0.4935500000000 1.0
C      1  0.5390490000000  0.4037680000000  0.4872860000000 1.0
C      1  0.4597650000000  0.5676910000000  0.5269640000000 1.0
C      1  0.4571550000000  0.4298420000000  0.5259900000000 1.0
C      1  0.5790290000000  0.5077180000000  0.5241540000000 1.0
C      1  0.5347820000000  0.4693160000000  0.5240940000000 1.0
C      1  0.5105530000000  0.5402780000000  0.5168550000000 1.0
C      1  0.4603190000000  0.4881060000000  0.5167720000000 1.0
C      1  0.4345970000000  0.4730510000000  0.5331540000000 1.0
C      1  0.5555470000000  0.4478340000000  0.5329820000000 1.0
C      1  0.5146340000000  0.5713060000000  0.5226270000000 1.0
C      1  0.4944480000000  0.5567260000000  0.6159010000000 1.0
C      1  0.4487040000000  0.4745510000000  0.6202260000000 1.0
C      1  0.5408050000000  0.4743220000000  0.6219860000000 1.0
C      1  0.4956100000000  0.5017900000000  0.6169360000000 1.0
C      1  0.4948600000000  0.5016780000000  0.5855630000000 1.0
END
