TITL C-2622960-5345-313 -0.00183521329280473 125000 -768.701631460721 0 0 144 (C1) n - 1
REM
REM in /nfs/bkarasulu/CARBON/AIRSS/Generating-Clusters/AIREBO/with-SteepDescent/Higher-Symm/SD-CG/HFTN-CG
REM
REM
REM
REM
REM
REM ./C.cell (b20cbc046b6831c77cfcea5457e17084)
REM
REM compiler GCC version 9.2.1 20190827 (Red Hat 9.2.1-1)
REM options -cpp -mtune=generic -march=x86-64 -g -O0 -fpre-include=/usr/include/finclude/math-vector-fortran.h
REM seed -2123764691 646557836 -1702751037 -1713470973 -1239554719 580920070 477909108 1082339249 -1935865255 -1781370304 1064259219 255741231 1267860867 -1316886643 1235972230 -829416598 -1339013417 -1843666524 -1463208866 2043770071 325502990 505037220 -78841907 66398169 -1142007607 154757226 1943256838 342175764 -127801711 843069647 -2057039578 -727203932 -703491358
REM
CELL 1.54180   50.00000   50.00000   50.00000   90.00000   90.00000   90.00000
LATT -1
SFAC C  
C      1  0.5567300000000  0.4997570000000  0.4050650000000 1.0
C      1  0.3998150000000  0.5479550000000  0.5025000000000 1.0
C      1  0.4991090000000  0.4058570000000  0.5421180000000 1.0
C      1  0.4403850000000  0.4999170000000  0.5962500000000 1.0
C      1  0.5581410000000  0.5008930000000  0.5942340000000 1.0
C      1  0.4477800000000  0.4986520000000  0.4061160000000 1.0
C      1  0.5931210000000  0.5528510000000  0.5047810000000 1.0
C      1  0.4125550000000  0.4492840000000  0.4914050000000 1.0
C      1  0.5938270000000  0.4507730000000  0.4990370000000 1.0
C      1  0.5009000000000  0.4120990000000  0.4496140000000 1.0
C      1  0.5003790000000  0.5927050000000  0.4499540000000 1.0
C      1  0.4991290000000  0.5967820000000  0.5587160000000 1.0
C      1  0.4034390000000  0.5000810000000  0.5479070000000 1.0
C      1  0.4993460000000  0.5520230000000  0.4054050000000 1.0
C      1  0.5494180000000  0.4031970000000  0.4978410000000 1.0
C      1  0.5983770000000  0.5008620000000  0.4455250000000 1.0
C      1  0.5956840000000  0.5029840000000  0.5524080000000 1.0
C      1  0.4140810000000  0.4922100000000  0.4521220000000 1.0
C      1  0.4991130000000  0.5561070000000  0.5981190000000 1.0
C      1  0.5017360000000  0.4443070000000  0.4010260000000 1.0
C      1  0.5000780000000  0.4470940000000  0.5939640000000 1.0
C      1  0.4494110000000  0.4033360000000  0.4959930000000 1.0
C      1  0.4477100000000  0.5951530000000  0.5006430000000 1.0
C      1  0.5561590000000  0.5962780000000  0.5003750000000 1.0
C      1  0.5270570000000  0.4497830000000  0.4242900000000 1.0
C      1  0.4273780000000  0.5241030000000  0.4533370000000 1.0
C      1  0.4509460000000  0.4281610000000  0.5201940000000 1.0
C      1  0.4720370000000  0.4493860000000  0.5727100000000 1.0
C      1  0.5267670000000  0.5522350000000  0.5762820000000 1.0
C      1  0.4714430000000  0.5501040000000  0.4265060000000 1.0
C      1  0.5740960000000  0.5305810000000  0.5500160000000 1.0
C      1  0.4256750000000  0.4725720000000  0.5500880000000 1.0
C      1  0.5754090000000  0.4752770000000  0.4504010000000 1.0
C      1  0.5482080000000  0.4270380000000  0.4725940000000 1.0
C      1  0.4473050000000  0.5729370000000  0.4736360000000 1.0
C      1  0.5501820000000  0.5760060000000  0.5270280000000 1.0
C      1  0.4291090000000  0.4542570000000  0.5211910000000 1.0
C      1  0.4473820000000  0.5265670000000  0.4270130000000 1.0
C      1  0.5279740000000  0.4251070000000  0.4453080000000 1.0
C      1  0.5730250000000  0.4491680000000  0.4715570000000 1.0
C      1  0.5766320000000  0.5564990000000  0.5304950000000 1.0
C      1  0.4221770000000  0.5500070000000  0.4752220000000 1.0
C      1  0.5530010000000  0.5304030000000  0.5753180000000 1.0
C      1  0.5538220000000  0.4709540000000  0.4250620000000 1.0
C      1  0.4482320000000  0.4738210000000  0.5740750000000 1.0
C      1  0.4702960000000  0.4258810000000  0.5480790000000 1.0
C      1  0.4715490000000  0.5731580000000  0.4497020000000 1.0
C      1  0.5276430000000  0.5768080000000  0.5527190000000 1.0
C      1  0.4998590000000  0.4684720000000  0.5684480000000 1.0
C      1  0.5692950000000  0.5006970000000  0.4721520000000 1.0
C      1  0.4686590000000  0.5685300000000  0.4997350000000 1.0
C      1  0.4992120000000  0.4673040000000  0.4313290000000 1.0
C      1  0.4985540000000  0.5301330000000  0.4312660000000 1.0
C      1  0.5007830000000  0.5339350000000  0.5671200000000 1.0
C      1  0.4334400000000  0.5010760000000  0.5332450000000 1.0
C      1  0.5715080000000  0.5043380000000  0.5285370000000 1.0
C      1  0.4261160000000  0.5113880000000  0.4848670000000 1.0
C      1  0.5327700000000  0.5661770000000  0.4995280000000 1.0
C      1  0.4724420000000  0.4343860000000  0.4945970000000 1.0
C      1  0.5275690000000  0.4354060000000  0.4966680000000 1.0
C      1  0.5649590000000  0.4654320000000  0.4999770000000 1.0
C      1  0.4646630000000  0.5020920000000  0.5668450000000 1.0
C      1  0.5004640000000  0.5636580000000  0.4633040000000 1.0
C      1  0.4235110000000  0.4844040000000  0.5064280000000 1.0
C      1  0.4371070000000  0.5386390000000  0.5020130000000 1.0
C      1  0.5705710000000  0.5212310000000  0.4988230000000 1.0
C      1  0.5347130000000  0.4984610000000  0.4309430000000 1.0
C      1  0.5359680000000  0.5016490000000  0.5690410000000 1.0
C      1  0.4615960000000  0.4977940000000  0.4349840000000 1.0
C      1  0.5008260000000  0.5667650000000  0.5351640000000 1.0
C      1  0.5001950000000  0.4236100000000  0.4876510000000 1.0
C      1  0.4994400000000  0.4379220000000  0.5402180000000 1.0
C      1  0.5012470000000  0.5419260000000  0.5222240000000 1.0
C      1  0.5237100000000  0.5015380000000  0.5437700000000 1.0
C      1  0.5385350000000  0.5192280000000  0.4990670000000 1.0
C      1  0.5005800000000  0.5386590000000  0.4760830000000 1.0
C      1  0.5001230000000  0.4572080000000  0.4775150000000 1.0
C      1  0.4992630000000  0.4616600000000  0.5255300000000 1.0
C      1  0.4746240000000  0.4975160000000  0.4595850000000 1.0
C      1  0.5214400000000  0.4974810000000  0.4558490000000 1.0
C      1  0.4784150000000  0.5024930000000  0.5425460000000 1.0
C      1  0.4616430000000  0.5239910000000  0.5005960000000 1.0
C      1  0.5406640000000  0.4794110000000  0.5009730000000 1.0
C      1  0.4565690000000  0.4774010000000  0.5025990000000 1.0
C      1  0.5212570000000  0.5404920000000  0.4991060000000 1.0
C      1  0.5414640000000  0.4996990000000  0.5229760000000 1.0
C      1  0.5014630000000  0.5221570000000  0.5416220000000 1.0
C      1  0.4816370000000  0.5427960000000  0.4994130000000 1.0
C      1  0.4789980000000  0.4618880000000  0.5029900000000 1.0
C      1  0.5187290000000  0.4628720000000  0.5029610000000 1.0
C      1  0.4577800000000  0.4998730000000  0.4813720000000 1.0
C      1  0.4610050000000  0.5027650000000  0.5210630000000 1.0
C      1  0.5388000000000  0.4974170000000  0.4769700000000 1.0
C      1  0.4983430000000  0.5173050000000  0.4574380000000 1.0
C      1  0.5004890000000  0.4824960000000  0.5437590000000 1.0
C      1  0.4981670000000  0.4774830000000  0.4579270000000 1.0
C      1  0.4229070000000  0.5517820000000  0.5273490000000 1.0
C      1  0.5282220000000  0.4252370000000  0.5488420000000 1.0
C      1  0.5531190000000  0.5267970000000  0.4270980000000 1.0
C      1  0.5736580000000  0.5474650000000  0.4773900000000 1.0
C      1  0.4274430000000  0.4462360000000  0.4673880000000 1.0
C      1  0.5737130000000  0.4485390000000  0.5271220000000 1.0
C      1  0.4736920000000  0.4237540000000  0.4441460000000 1.0
C      1  0.5291080000000  0.5729780000000  0.4494010000000 1.0
C      1  0.4729940000000  0.5741820000000  0.5526450000000 1.0
C      1  0.4467920000000  0.5284970000000  0.5765870000000 1.0
C      1  0.5531090000000  0.4726470000000  0.5736670000000 1.0
C      1  0.4488020000000  0.4690040000000  0.4244430000000 1.0
C      1  0.5268730000000  0.5484490000000  0.4268650000000 1.0
C      1  0.5480160000000  0.4267410000000  0.5224270000000 1.0
C      1  0.4241660000000  0.5284450000000  0.5511700000000 1.0
C      1  0.4729310000000  0.5505230000000  0.5771270000000 1.0
C      1  0.4745820000000  0.4472100000000  0.4228060000000 1.0
C      1  0.5278640000000  0.4496370000000  0.5726320000000 1.0
C      1  0.4521210000000  0.4257390000000  0.4704240000000 1.0
C      1  0.4497300000000  0.5728340000000  0.5276660000000 1.0
C      1  0.5524500000000  0.5734960000000  0.4742170000000 1.0
C      1  0.5750670000000  0.5262020000000  0.4504080000000 1.0
C      1  0.5741770000000  0.4760150000000  0.5471900000000 1.0
C      1  0.4268650000000  0.4673230000000  0.4479550000000 1.0
C      1  0.4994640000000  0.3900550000000  0.5162420000000 1.0
C      1  0.5227610000000  0.4984720000000  0.3991060000000 1.0
C      1  0.3896780000000  0.5200310000000  0.5007470000000 1.0
C      1  0.5003580000000  0.3934960000000  0.4765580000000 1.0
C      1  0.5015470000000  0.6096030000000  0.4757480000000 1.0
C      1  0.5020320000000  0.5980700000000  0.5248620000000 1.0
C      1  0.4742500000000  0.5014530000000  0.5988840000000 1.0
C      1  0.5242280000000  0.5015090000000  0.6009570000000 1.0
C      1  0.4736290000000  0.4986520000000  0.3890710000000 1.0
C      1  0.6099080000000  0.5277270000000  0.5005510000000 1.0
C      1  0.3919920000000  0.4716520000000  0.5059040000000 1.0
C      1  0.6117330000000  0.4761810000000  0.4990850000000 1.0
C      1  0.5250440000000  0.3873770000000  0.4991310000000 1.0
C      1  0.3887510000000  0.4989410000000  0.5198180000000 1.0
C      1  0.4975760000000  0.5179430000000  0.3995310000000 1.0
C      1  0.4745510000000  0.3878750000000  0.4981940000000 1.0
C      1  0.4820330000000  0.5998000000000  0.4997780000000 1.0
C      1  0.5219290000000  0.5984050000000  0.4994270000000 1.0
C      1  0.6025270000000  0.5019960000000  0.4792650000000 1.0
C      1  0.6040030000000  0.5010790000000  0.5190390000000 1.0
C      1  0.3943910000000  0.5076200000000  0.4732060000000 1.0
C      1  0.4992580000000  0.5215960000000  0.5982170000000 1.0
C      1  0.4976790000000  0.4780160000000  0.3990960000000 1.0
C      1  0.4993490000000  0.4814860000000  0.5998600000000 1.0
END
