TITL C-2622956-4641-751 0.00439182677286499 125000 -542.018877193266 0 0 90 (C1) n - 1
REM
REM in /nfs/bkarasulu/CARBON/AIRSS/Generating-Clusters/AIREBO/with-SteepDescent/Higher-Symm/SD-CG/HFTN-CG
REM
REM
REM
REM
REM
REM ./C.cell (b20cbc046b6831c77cfcea5457e17084)
REM
REM compiler GCC version 9.2.1 20190827 (Red Hat 9.2.1-1)
REM options -cpp -mtune=generic -march=x86-64 -g -O0 -fpre-include=/usr/include/finclude/math-vector-fortran.h
REM seed 852478563 1370220538 -1810964404 -188071255 -129428897 747770367 -1915986275 -632360584 548307261 -401129155 1691533059 -1280528269 1699818061 1605893059 2092602963 -456146597 -370790493 -2122390339 172777738 2018165409 1549905309 2062334864 1704735968 1886536847 554637137 -890281692 -1309353476 -2038893968 1779268877 -1201667998 1586251436 86650136 -727755539
REM
CELL 1.54180   50.00000   50.00000   50.00000   90.00000   90.00000   90.00000
LATT -1
SFAC C  
C      1  0.4684410000000  0.4521090000000  0.4235080000000 1.0
C      1  0.4805400000000  0.4157550000000  0.4682600000000 1.0
C      1  0.4769370000000  0.4116920000000  0.5281700000000 1.0
C      1  0.4709870000000  0.4530320000000  0.5779600000000 1.0
C      1  0.4716220000000  0.5142440000000  0.5873400000000 1.0
C      1  0.4721590000000  0.5690900000000  0.5605940000000 1.0
C      1  0.4727200000000  0.5922250000000  0.5015270000000 1.0
C      1  0.4774100000000  0.5662560000000  0.4415820000000 1.0
C      1  0.4683720000000  0.5126040000000  0.4117860000000 1.0
C      1  0.5099390000000  0.5147250000000  0.5290710000000 1.0
C      1  0.4892790000000  0.5261690000000  0.5155470000000 1.0
C      1  0.5013910000000  0.5355740000000  0.4923370000000 1.0
C      1  0.4926850000000  0.5286190000000  0.4674110000000 1.0
C      1  0.5031080000000  0.5058000000000  0.4573370000000 1.0
C      1  0.4912560000000  0.4823440000000  0.4686140000000 1.0
C      1  0.4994790000000  0.4701850000000  0.4946750000000 1.0
C      1  0.4883060000000  0.4733550000000  0.5208840000000 1.0
C      1  0.5075510000000  0.4883000000000  0.5355910000000 1.0
C      1  0.4996140000000  0.5581790000000  0.4230790000000 1.0
C      1  0.4807250000000  0.4906620000000  0.3988890000000 1.0
C      1  0.4931850000000  0.4378570000000  0.4284660000000 1.0
C      1  0.5005180000000  0.4066930000000  0.4859200000000 1.0
C      1  0.4932120000000  0.4189870000000  0.5499700000000 1.0
C      1  0.4878000000000  0.4690150000000  0.5940390000000 1.0
C      1  0.4905400000000  0.5351360000000  0.5895210000000 1.0
C      1  0.4910120000000  0.5844910000000  0.5460050000000 1.0
C      1  0.4928750000000  0.5920960000000  0.4814700000000 1.0
C      1  0.4465380000000  0.5476590000000  0.4803390000000 1.0
C      1  0.4405900000000  0.5202130000000  0.4611730000000 1.0
C      1  0.4504350000000  0.4876810000000  0.4573600000000 1.0
C      1  0.4427040000000  0.4617210000000  0.4771140000000 1.0
C      1  0.4627000000000  0.4580810000000  0.5043880000000 1.0
C      1  0.4419510000000  0.4597580000000  0.5312790000000 1.0
C      1  0.4515780000000  0.4916260000000  0.5382070000000 1.0
C      1  0.4610340000000  0.5233900000000  0.5305470000000 1.0
C      1  0.4439160000000  0.5475250000000  0.5137720000000 1.0
C      1  0.5686750000000  0.5163040000000  0.4685070000000 1.0
C      1  0.5620840000000  0.4891170000000  0.4605050000000 1.0
C      1  0.5624010000000  0.4620920000000  0.4711000000000 1.0
C      1  0.5630910000000  0.4619680000000  0.5009770000000 1.0
C      1  0.5699100000000  0.4655620000000  0.5276630000000 1.0
C      1  0.5614790000000  0.4932820000000  0.5395130000000 1.0
C      1  0.5618250000000  0.5184560000000  0.5305840000000 1.0
C      1  0.5778860000000  0.5343430000000  0.5121020000000 1.0
C      1  0.5873750000000  0.5253510000000  0.4874090000000 1.0
C      1  0.5450890000000  0.5365780000000  0.4641820000000 1.0
C      1  0.5325810000000  0.4994700000000  0.4471420000000 1.0
C      1  0.5246380000000  0.4722820000000  0.4645930000000 1.0
C      1  0.5312650000000  0.4615380000000  0.4961710000000 1.0
C      1  0.5489060000000  0.4571230000000  0.5485710000000 1.0
C      1  0.5321740000000  0.4856190000000  0.5529940000000 1.0
C      1  0.5337790000000  0.5321440000000  0.5345030000000 1.0
C      1  0.5505030000000  0.5520870000000  0.5125810000000 1.0
C      1  0.5288400000000  0.5404170000000  0.4919550000000 1.0
C      1  0.5197350000000  0.5820970000000  0.4860440000000 1.0
C      1  0.5257780000000  0.5553960000000  0.4348970000000 1.0
C      1  0.5087330000000  0.4868990000000  0.4019900000000 1.0
C      1  0.5193220000000  0.4493160000000  0.4328290000000 1.0
C      1  0.5234480000000  0.4234820000000  0.4877060000000 1.0
C      1  0.5178740000000  0.4322920000000  0.5440530000000 1.0
C      1  0.5149510000000  0.4709530000000  0.5856940000000 1.0
C      1  0.5162400000000  0.5292800000000  0.5787080000000 1.0
C      1  0.5160110000000  0.5722800000000  0.5406450000000 1.0
C      1  0.4825020000000  0.5900710000000  0.4554230000000 1.0
C      1  0.4845390000000  0.5340630000000  0.4178820000000 1.0
C      1  0.4662920000000  0.4665670000000  0.3995050000000 1.0
C      1  0.4873630000000  0.4135120000000  0.4412110000000 1.0
C      1  0.4894550000000  0.3950520000000  0.5091350000000 1.0
C      1  0.4794320000000  0.4267480000000  0.5731970000000 1.0
C      1  0.4753860000000  0.4921050000000  0.6042670000000 1.0
C      1  0.4797820000000  0.5609390000000  0.5864210000000 1.0
C      1  0.4802150000000  0.6018610000000  0.5267670000000 1.0
C      1  0.4568030000000  0.4298480000000  0.5224070000000 1.0
C      1  0.4541940000000  0.4664360000000  0.5611240000000 1.0
C      1  0.4571710000000  0.5129270000000  0.5641160000000 1.0
C      1  0.4553680000000  0.5533660000000  0.5455870000000 1.0
C      1  0.4500890000000  0.5761390000000  0.4974900000000 1.0
C      1  0.4583450000000  0.5471120000000  0.4492770000000 1.0
C      1  0.4478830000000  0.5080640000000  0.4302650000000 1.0
C      1  0.4503960000000  0.4571570000000  0.4441390000000 1.0
C      1  0.4656520000000  0.4366210000000  0.4770360000000 1.0
C      1  0.5250070000000  0.5482840000000  0.5585440000000 1.0
C      1  0.5274470000000  0.5741260000000  0.5133590000000 1.0
C      1  0.5319820000000  0.5679530000000  0.4634190000000 1.0
C      1  0.5399710000000  0.5278520000000  0.4311080000000 1.0
C      1  0.5237940000000  0.4765910000000  0.4235640000000 1.0
C      1  0.5362030000000  0.4416950000000  0.4618260000000 1.0
C      1  0.5249450000000  0.4356980000000  0.5164610000000 1.0
C      1  0.5269820000000  0.4493990000000  0.5689930000000 1.0
C      1  0.5251020000000  0.5012350000000  0.5801280000000 1.0
END
