TITL C-2622968-4806-98 0.00137130669851658 125000 -275.254245352078 0 0 54 (C1) n - 1
REM
REM in /nfs/bkarasulu/CARBON/AIRSS/Generating-Clusters/AIREBO/with-SteepDescent/Higher-Symm/SD-CG/HFTN-CG
REM
REM
REM
REM
REM
REM ./C.cell (b20cbc046b6831c77cfcea5457e17084)
REM
REM compiler GCC version 9.2.1 20190827 (Red Hat 9.2.1-1)
REM options -cpp -mtune=generic -march=x86-64 -g -O0 -fpre-include=/usr/include/finclude/math-vector-fortran.h
REM seed -219696326 -1374971044 922741557 -1512379542 2132940976 1143741455 -872976607 1998648382 227618609 -1761528311 -1132650762 -744489764 711887179 -564379399 -1189986094 558043453 -1284798992 1480389221 685838081 -1892623040 -1888282253 -376436528 -1815992822 -157644367 885911078 -837023756 1968142857 1831194261 1712042147 -380877501 -2045453611 -1410952858 -1378324170
REM
CELL 1.54180   50.00000   50.00000   50.00000   90.00000   90.00000   90.00000
LATT -1
SFAC C  
C      1  0.4900690000000  0.4763170000000  0.4702790000000 1.0
C      1  0.5259680000000  0.4823510000000  0.4906410000000 1.0
C      1  0.5236750000000  0.4701550000000  0.5220030000000 1.0
C      1  0.4886590000000  0.4871570000000  0.5343790000000 1.0
C      1  0.4614610000000  0.4759700000000  0.5077090000000 1.0
C      1  0.5571200000000  0.5239720000000  0.4727460000000 1.0
C      1  0.5436290000000  0.5132330000000  0.5439270000000 1.0
C      1  0.4804500000000  0.5319410000000  0.5528190000000 1.0
C      1  0.4392070000000  0.5125710000000  0.5110060000000 1.0
C      1  0.4927750000000  0.5207380000000  0.4458510000000 1.0
C      1  0.4665730000000  0.4428010000000  0.4274280000000 1.0
C      1  0.5535510000000  0.4598630000000  0.4502440000000 1.0
C      1  0.5703850000000  0.4338700000000  0.5285220000000 1.0
C      1  0.4775960000000  0.4458000000000  0.5613530000000 1.0
C      1  0.4285620000000  0.4403770000000  0.4941130000000 1.0
C      1  0.4155190000000  0.4981320000000  0.5308550000000 1.0
C      1  0.4816110000000  0.4901300000000  0.4342480000000 1.0
C      1  0.5813040000000  0.5011960000000  0.4659180000000 1.0
C      1  0.5573150000000  0.4818180000000  0.5389620000000 1.0
C      1  0.4826810000000  0.5169680000000  0.5833320000000 1.0
C      1  0.5339020000000  0.5407970000000  0.5587770000000 1.0
C      1  0.4590550000000  0.5455280000000  0.5316500000000 1.0
C      1  0.4314350000000  0.5290540000000  0.4862950000000 1.0
C      1  0.5123820000000  0.5423530000000  0.4354890000000 1.0
C      1  0.5557600000000  0.5383850000000  0.4984430000000 1.0
C      1  0.4709400000000  0.5177550000000  0.5158580000000 1.0
C      1  0.4794510000000  0.5305750000000  0.4732030000000 1.0
C      1  0.5364190000000  0.5329870000000  0.4544820000000 1.0
C      1  0.5305900000000  0.5315560000000  0.5200700000000 1.0
C      1  0.4973310000000  0.5376700000000  0.5238530000000 1.0
C      1  0.5355240000000  0.5615440000000  0.5044500000000 1.0
C      1  0.5139050000000  0.5534450000000  0.5490200000000 1.0
C      1  0.4688830000000  0.5657310000000  0.5143530000000 1.0
C      1  0.4488250000000  0.5348810000000  0.4690320000000 1.0
C      1  0.5231400000000  0.5616380000000  0.4588720000000 1.0
C      1  0.4536580000000  0.4481670000000  0.4993130000000 1.0
C      1  0.4785290000000  0.4560500000000  0.4483400000000 1.0
C      1  0.5338080000000  0.4592370000000  0.4689420000000 1.0
C      1  0.5475310000000  0.4488040000000  0.5254780000000 1.0
C      1  0.4891850000000  0.4554150000000  0.5386760000000 1.0
C      1  0.4918580000000  0.4364810000000  0.4715200000000 1.0
C      1  0.5201280000000  0.4364050000000  0.4782260000000 1.0
C      1  0.5232300000000  0.4332450000000  0.5074730000000 1.0
C      1  0.4963800000000  0.4363610000000  0.5180870000000 1.0
C      1  0.4775240000000  0.4334120000000  0.4961360000000 1.0
C      1  0.4836620000000  0.4990180000000  0.5576860000000 1.0
C      1  0.4319170000000  0.4793660000000  0.5116730000000 1.0
C      1  0.5099870000000  0.4928130000000  0.4510300000000 1.0
C      1  0.5542490000000  0.4915830000000  0.4797170000000 1.0
C      1  0.5258980000000  0.4864150000000  0.5487610000000 1.0
C      1  0.4908580000000  0.5527820000000  0.4940710000000 1.0
C      1  0.4951830000000  0.4737780000000  0.5037990000000 1.0
C      1  0.4845490000000  0.5032860000000  0.4902470000000 1.0
C      1  0.5157660000000  0.5663720000000  0.4852720000000 1.0
END
