TITL C-2622965-4321-298 -0.00037299681783942 125000 -391.456822548604 0 0 72 (C1) n - 1
REM
REM in /nfs/bkarasulu/CARBON/AIRSS/Generating-Clusters/AIREBO/with-SteepDescent/Higher-Symm/SD-CG/HFTN-CG
REM
REM
REM
REM
REM
REM ./C.cell (b20cbc046b6831c77cfcea5457e17084)
REM
REM compiler GCC version 9.2.1 20190827 (Red Hat 9.2.1-1)
REM options -cpp -mtune=generic -march=x86-64 -g -O0 -fpre-include=/usr/include/finclude/math-vector-fortran.h
REM seed -1546402097 766557317 1393882312 2095021300 -574874261 -339073915 1080008932 565050039 -265439786 -1255478054 -1718783090 -1802013277 111354249 1462087231 -1585156942 -2104787771 577702127 -1083018665 1924018435 -1027817292 1100372346 -1813345678 -1477147523 -2037936744 404175478 -2077267886 -425938896 -1403256435 -1257312723 -2024406097 -1259536952 1274043231 528042531
REM
CELL 1.54180   50.00000   50.00000   50.00000   90.00000   90.00000   90.00000
LATT -1
SFAC C  
C      1  0.5583300000000  0.5464430000000  0.4966710000000 1.0
C      1  0.5126120000000  0.4287010000000  0.4884330000000 1.0
C      1  0.4553190000000  0.5552810000000  0.4922750000000 1.0
C      1  0.5214120000000  0.4996070000000  0.4278810000000 1.0
C      1  0.5495750000000  0.4901460000000  0.5152890000000 1.0
C      1  0.5106830000000  0.5897540000000  0.4687370000000 1.0
C      1  0.5236240000000  0.5562680000000  0.5380620000000 1.0
C      1  0.5738370000000  0.4594130000000  0.4788600000000 1.0
C      1  0.5384870000000  0.5109920000000  0.5559330000000 1.0
C      1  0.5691550000000  0.5340160000000  0.5260860000000 1.0
C      1  0.5657650000000  0.5356670000000  0.4696770000000 1.0
C      1  0.4969160000000  0.5388420000000  0.4282100000000 1.0
C      1  0.4788440000000  0.4664220000000  0.5734640000000 1.0
C      1  0.5931090000000  0.4409910000000  0.4813740000000 1.0
C      1  0.4768690000000  0.4469190000000  0.5053390000000 1.0
C      1  0.4302740000000  0.5121070000000  0.4775830000000 1.0
C      1  0.4570780000000  0.5318850000000  0.4676340000000 1.0
C      1  0.4219300000000  0.4711500000000  0.5388500000000 1.0
C      1  0.5214870000000  0.4680620000000  0.4405830000000 1.0
C      1  0.4305220000000  0.5166100000000  0.5310350000000 1.0
C      1  0.4513690000000  0.4648540000000  0.5311220000000 1.0
C      1  0.4655820000000  0.4486970000000  0.5544870000000 1.0
C      1  0.4626490000000  0.4306670000000  0.4822700000000 1.0
C      1  0.4791680000000  0.5715910000000  0.5125010000000 1.0
C      1  0.5475850000000  0.4896740000000  0.4439350000000 1.0
C      1  0.4587520000000  0.4909380000000  0.5696130000000 1.0
C      1  0.5230060000000  0.5342310000000  0.5606280000000 1.0
C      1  0.5274780000000  0.5476810000000  0.4983300000000 1.0
C      1  0.5226530000000  0.5117830000000  0.4659510000000 1.0
C      1  0.4942190000000  0.5292750000000  0.5677260000000 1.0
C      1  0.5266080000000  0.4561120000000  0.4923360000000 1.0
C      1  0.5221920000000  0.5263300000000  0.4143150000000 1.0
C      1  0.4437100000000  0.5272410000000  0.5049090000000 1.0
C      1  0.4629390000000  0.4743120000000  0.4653880000000 1.0
C      1  0.5268680000000  0.4666350000000  0.5246810000000 1.0
C      1  0.5117220000000  0.5602310000000  0.4741880000000 1.0
C      1  0.4256210000000  0.4857380000000  0.4956560000000 1.0
C      1  0.5137490000000  0.5278100000000  0.5222640000000 1.0
C      1  0.5196180000000  0.5413930000000  0.4515010000000 1.0
C      1  0.5006830000000  0.5054680000000  0.5443260000000 1.0
C      1  0.5458970000000  0.5414940000000  0.4182520000000 1.0
C      1  0.5450890000000  0.4627740000000  0.4645800000000 1.0
C      1  0.4160560000000  0.4934710000000  0.5235460000000 1.0
C      1  0.4454420000000  0.4487580000000  0.4697800000000 1.0
C      1  0.4883020000000  0.5471450000000  0.4907810000000 1.0
C      1  0.5218990000000  0.5003410000000  0.5039480000000 1.0
C      1  0.4918550000000  0.4940870000000  0.4339780000000 1.0
C      1  0.5519180000000  0.5611720000000  0.5268770000000 1.0
C      1  0.5123330000000  0.4813600000000  0.4770980000000 1.0
C      1  0.5517130000000  0.5469260000000  0.4468310000000 1.0
C      1  0.4984160000000  0.5763580000000  0.5317540000000 1.0
C      1  0.4508460000000  0.5004120000000  0.4547940000000 1.0
C      1  0.5560800000000  0.5064570000000  0.4692640000000 1.0
C      1  0.4802350000000  0.5323850000000  0.5203400000000 1.0
C      1  0.4910020000000  0.4721190000000  0.4559490000000 1.0
C      1  0.5072000000000  0.4646470000000  0.5734620000000 1.0
C      1  0.4689630000000  0.5058030000000  0.5018080000000 1.0
C      1  0.4741800000000  0.5204800000000  0.4405450000000 1.0
C      1  0.4931860000000  0.4695980000000  0.5210420000000 1.0
C      1  0.4574210000000  0.4740970000000  0.4989490000000 1.0
C      1  0.5186310000000  0.4366850000000  0.5375660000000 1.0
C      1  0.5651960000000  0.4862480000000  0.4899090000000 1.0
C      1  0.5181840000000  0.4389050000000  0.5661800000000 1.0
C      1  0.4749690000000  0.4877090000000  0.5399020000000 1.0
C      1  0.5214780000000  0.4834500000000  0.5537610000000 1.0
C      1  0.4214730000000  0.4578280000000  0.4800410000000 1.0
C      1  0.4489530000000  0.5151400000000  0.5529220000000 1.0
C      1  0.4890560000000  0.4175830000000  0.4806610000000 1.0
C      1  0.4711240000000  0.5319640000000  0.5489040000000 1.0
C      1  0.4970600000000  0.5160720000000  0.4879520000000 1.0
C      1  0.4956870000000  0.4281350000000  0.5246530000000 1.0
C      1  0.5581560000000  0.5104620000000  0.5358710000000 1.0
END
