TITL C-2622955-8511-517 -0.00157661489223605 125000 -803.356696519933 0 0 147 (C1) n - 1
REM
REM in /nfs/bkarasulu/CARBON/AIRSS/Generating-Clusters/AIREBO/with-SteepDescent/Higher-Symm/SD-CG/HFTN-CG
REM
REM
REM
REM
REM
REM ./C.cell (b20cbc046b6831c77cfcea5457e17084)
REM
REM compiler GCC version 9.2.1 20190827 (Red Hat 9.2.1-1)
REM options -cpp -mtune=generic -march=x86-64 -g -O0 -fpre-include=/usr/include/finclude/math-vector-fortran.h
REM seed 1033878001 221211828 578596786 -673562900 996295894 -748977657 47368320 -928368324 -1238172222 1981625755 -271485619 1989185492 -968763694 1397984741 1797581517 -539628892 -1885559198 -2109773005 468155133 1252724493 238602829 2004837886 1771697240 636456237 468025369 1098867421 1036658631 -175748439 1613173894 1692097571 1866811198 -960323920 2133187632
REM
CELL 1.54180   50.00000   50.00000   50.00000   90.00000   90.00000   90.00000
LATT -1
SFAC C  
C      1  0.5230340000000  0.6028760000000  0.4922150000000 1.0
C      1  0.4667620000000  0.4027300000000  0.5047670000000 1.0
C      1  0.5265270000000  0.5218140000000  0.5661400000000 1.0
C      1  0.4664920000000  0.4865260000000  0.4236770000000 1.0
C      1  0.5548840000000  0.4656150000000  0.4946460000000 1.0
C      1  0.4439540000000  0.5342760000000  0.5157690000000 1.0
C      1  0.5350580000000  0.4930700000000  0.4451560000000 1.0
C      1  0.4621230000000  0.5123240000000  0.5683670000000 1.0
C      1  0.5706470000000  0.5263670000000  0.4404750000000 1.0
C      1  0.4354900000000  0.4737200000000  0.5670120000000 1.0
C      1  0.6092690000000  0.5044300000000  0.5007530000000 1.0
C      1  0.4031350000000  0.4879870000000  0.5064700000000 1.0
C      1  0.5892450000000  0.5395730000000  0.4249850000000 1.0
C      1  0.4168140000000  0.4712870000000  0.5849810000000 1.0
C      1  0.5151520000000  0.4549360000000  0.5002020000000 1.0
C      1  0.4894680000000  0.5371140000000  0.4976550000000 1.0
C      1  0.4570160000000  0.4182860000000  0.4520090000000 1.0
C      1  0.5362880000000  0.5892430000000  0.5380200000000 1.0
C      1  0.4857590000000  0.5737440000000  0.5322770000000 1.0
C      1  0.4996180000000  0.4393710000000  0.4669430000000 1.0
C      1  0.5863670000000  0.5797770000000  0.4659800000000 1.0
C      1  0.4437440000000  0.4171680000000  0.5212000000000 1.0
C      1  0.5388870000000  0.4370630000000  0.4917720000000 1.0
C      1  0.4672490000000  0.5549060000000  0.5108570000000 1.0
C      1  0.4583590000000  0.5842730000000  0.4989330000000 1.0
C      1  0.5395420000000  0.4074770000000  0.5031750000000 1.0
C      1  0.4168890000000  0.4503240000000  0.4736150000000 1.0
C      1  0.5789180000000  0.5432690000000  0.5199370000000 1.0
C      1  0.5323530000000  0.4481510000000  0.5806870000000 1.0
C      1  0.4687100000000  0.5517670000000  0.4197200000000 1.0
C      1  0.5874540000000  0.4618780000000  0.4972750000000 1.0
C      1  0.4120950000000  0.5343680000000  0.5044450000000 1.0
C      1  0.4547620000000  0.5770330000000  0.5458860000000 1.0
C      1  0.5250350000000  0.4363490000000  0.4481000000000 1.0
C      1  0.5202770000000  0.4460300000000  0.4222000000000 1.0
C      1  0.4836530000000  0.5605640000000  0.5625880000000 1.0
C      1  0.5252250000000  0.4699110000000  0.5482150000000 1.0
C      1  0.4742600000000  0.5279970000000  0.4686340000000 1.0
C      1  0.5995910000000  0.5114870000000  0.4726840000000 1.0
C      1  0.4117910000000  0.4754250000000  0.5349180000000 1.0
C      1  0.5397000000000  0.5534180000000  0.5737650000000 1.0
C      1  0.4561770000000  0.4537780000000  0.4129340000000 1.0
C      1  0.5096080000000  0.5327570000000  0.4077400000000 1.0
C      1  0.4944250000000  0.4750590000000  0.5945200000000 1.0
C      1  0.5953970000000  0.5350320000000  0.4950430000000 1.0
C      1  0.4253940000000  0.4663620000000  0.4993450000000 1.0
C      1  0.5215530000000  0.5770900000000  0.5868720000000 1.0
C      1  0.4777560000000  0.4308400000000  0.4043340000000 1.0
C      1  0.4689920000000  0.4447850000000  0.4629210000000 1.0
C      1  0.5189640000000  0.5665720000000  0.5306790000000 1.0
C      1  0.4448720000000  0.5387470000000  0.4819830000000 1.0
C      1  0.5500300000000  0.4585790000000  0.5276670000000 1.0
C      1  0.4808690000000  0.5343190000000  0.4023890000000 1.0
C      1  0.5224560000000  0.4683120000000  0.5979830000000 1.0
C      1  0.4857480000000  0.5311930000000  0.5590330000000 1.0
C      1  0.5167280000000  0.4752660000000  0.4227250000000 1.0
C      1  0.5389680000000  0.4908910000000  0.6009230000000 1.0
C      1  0.4665060000000  0.5069100000000  0.3964770000000 1.0
C      1  0.5780120000000  0.5054510000000  0.4577550000000 1.0
C      1  0.4355760000000  0.4948280000000  0.5432230000000 1.0
C      1  0.4246870000000  0.5245150000000  0.4422360000000 1.0
C      1  0.5761240000000  0.4711880000000  0.5601020000000 1.0
C      1  0.5512560000000  0.5364890000000  0.5479930000000 1.0
C      1  0.4523530000000  0.4642000000000  0.4450710000000 1.0
C      1  0.4400750000000  0.5244610000000  0.5885050000000 1.0
C      1  0.5618610000000  0.4906060000000  0.4243800000000 1.0
C      1  0.4826800000000  0.4408800000000  0.5776160000000 1.0
C      1  0.5075850000000  0.5583840000000  0.4256810000000 1.0
C      1  0.4594850000000  0.4539620000000  0.5626350000000 1.0
C      1  0.5470560000000  0.5437030000000  0.4504970000000 1.0
C      1  0.5769660000000  0.4686540000000  0.4330860000000 1.0
C      1  0.4169330000000  0.5312040000000  0.5751510000000 1.0
C      1  0.5385950000000  0.5433960000000  0.5210380000000 1.0
C      1  0.4623430000000  0.4520710000000  0.4941480000000 1.0
C      1  0.4266190000000  0.4727030000000  0.4569550000000 1.0
C      1  0.5775050000000  0.5228430000000  0.5417230000000 1.0
C      1  0.4632490000000  0.5164880000000  0.4385930000000 1.0
C      1  0.5452330000000  0.4954710000000  0.5583370000000 1.0
C      1  0.5319970000000  0.5663600000000  0.4344880000000 1.0
C      1  0.4794520000000  0.4246570000000  0.5977690000000 1.0
C      1  0.4388190000000  0.5273800000000  0.5486870000000 1.0
C      1  0.5599130000000  0.4769170000000  0.4618480000000 1.0
C      1  0.4937600000000  0.3963760000000  0.5244420000000 1.0
C      1  0.4975060000000  0.6079070000000  0.4703280000000 1.0
C      1  0.4941390000000  0.4864670000000  0.4409870000000 1.0
C      1  0.5062410000000  0.4978520000000  0.5521390000000 1.0
C      1  0.4167330000000  0.5630300000000  0.5199030000000 1.0
C      1  0.5782950000000  0.4365990000000  0.4808200000000 1.0
C      1  0.4223720000000  0.5642130000000  0.4802100000000 1.0
C      1  0.5656170000000  0.4283310000000  0.5251430000000 1.0
C      1  0.4847380000000  0.5200990000000  0.5268530000000 1.0
C      1  0.5152240000000  0.4685910000000  0.4696470000000 1.0
C      1  0.5767440000000  0.4914800000000  0.5343120000000 1.0
C      1  0.4249190000000  0.5040410000000  0.4653370000000 1.0
C      1  0.5519120000000  0.4438650000000  0.4613810000000 1.0
C      1  0.4326980000000  0.5604610000000  0.5437020000000 1.0
C      1  0.5427340000000  0.5860980000000  0.5650800000000 1.0
C      1  0.4557220000000  0.4208880000000  0.4245870000000 1.0
C      1  0.5245490000000  0.5005250000000  0.4767050000000 1.0
C      1  0.4620720000000  0.4945840000000  0.5253510000000 1.0
C      1  0.5125600000000  0.5025080000000  0.5210620000000 1.0
C      1  0.4848700000000  0.4838350000000  0.4736400000000 1.0
C      1  0.5553300000000  0.4460020000000  0.5588320000000 1.0
C      1  0.4416090000000  0.5482840000000  0.4495030000000 1.0
C      1  0.5959580000000  0.4834530000000  0.5124170000000 1.0
C      1  0.4072000000000  0.5106000000000  0.4908630000000 1.0
C      1  0.5462800000000  0.5040570000000  0.5254510000000 1.0
C      1  0.4561190000000  0.4997620000000  0.4741780000000 1.0
C      1  0.4739880000000  0.4833640000000  0.5701420000000 1.0
C      1  0.5257740000000  0.5244710000000  0.4359920000000 1.0
C      1  0.5121260000000  0.4893340000000  0.3953370000000 1.0
C      1  0.4946090000000  0.5199640000000  0.5899110000000 1.0
C      1  0.4747810000000  0.6077030000000  0.5146860000000 1.0
C      1  0.5136580000000  0.4068050000000  0.4849030000000 1.0
C      1  0.5027220000000  0.5144280000000  0.4558730000000 1.0
C      1  0.4847510000000  0.4750090000000  0.5389750000000 1.0
C      1  0.4691620000000  0.5884250000000  0.4698350000000 1.0
C      1  0.5262700000000  0.4049500000000  0.5312720000000 1.0
C      1  0.4993110000000  0.5752450000000  0.4645090000000 1.0
C      1  0.5023030000000  0.4259820000000  0.5376820000000 1.0
C      1  0.4947020000000  0.5747920000000  0.5848010000000 1.0
C      1  0.5050800000000  0.4319600000000  0.4034170000000 1.0
C      1  0.5418980000000  0.5481240000000  0.4815400000000 1.0
C      1  0.4581030000000  0.4430830000000  0.5352770000000 1.0
C      1  0.4866770000000  0.4485340000000  0.5176470000000 1.0
C      1  0.5126290000000  0.5589240000000  0.4879060000000 1.0
C      1  0.4980130000000  0.5858170000000  0.5029450000000 1.0
C      1  0.4898070000000  0.4231600000000  0.4951870000000 1.0
C      1  0.5079480000000  0.4435710000000  0.5610510000000 1.0
C      1  0.4828840000000  0.5538460000000  0.4482790000000 1.0
C      1  0.4392850000000  0.5146500000000  0.4156290000000 1.0
C      1  0.5645360000000  0.4887300000000  0.5842520000000 1.0
C      1  0.5443190000000  0.5982370000000  0.5095470000000 1.0
C      1  0.4486550000000  0.4038770000000  0.4771980000000 1.0
C      1  0.4274070000000  0.4468860000000  0.5245930000000 1.0
C      1  0.5741800000000  0.5585970000000  0.4836350000000 1.0
C      1  0.4275180000000  0.5836120000000  0.5009300000000 1.0
C      1  0.5719600000000  0.4160720000000  0.4992680000000 1.0
C      1  0.4489800000000  0.5750270000000  0.4490170000000 1.0
C      1  0.5516780000000  0.4137270000000  0.5486890000000 1.0
C      1  0.5228230000000  0.5142680000000  0.5975190000000 1.0
C      1  0.4903000000000  0.4909060000000  0.3825490000000 1.0
C      1  0.5383600000000  0.5198980000000  0.4964140000000 1.0
C      1  0.4538920000000  0.4817170000000  0.4987690000000 1.0
C      1  0.5582460000000  0.5689570000000  0.5114690000000 1.0
C      1  0.4380400000000  0.4316980000000  0.4844260000000 1.0
C      1  0.4994530000000  0.4833070000000  0.5025730000000 1.0
END
