TITL C-2622954-8726-628 -0.000979975795007582 125000 -427.235700199972 0 0 81 (C1) n - 1
REM
REM in /nfs/bkarasulu/CARBON/AIRSS/Generating-Clusters/AIREBO/with-SteepDescent/Higher-Symm/SD-CG/HFTN-CG
REM
REM
REM
REM
REM
REM ./C.cell (b20cbc046b6831c77cfcea5457e17084)
REM
REM compiler GCC version 9.2.1 20190827 (Red Hat 9.2.1-1)
REM options -cpp -mtune=generic -march=x86-64 -g -O0 -fpre-include=/usr/include/finclude/math-vector-fortran.h
REM seed 2002608478 566219164 89167355 -508067163 1673110830 -1285958054 1272686654 186371424 1865335330 1252671750 -1680207023 1058398308 -1860358073 -1733031462 -967922131 -1649423795 22091334 531014650 -653966406 -1160628673 -1671992927 1186178702 420419458 1371283348 890960242 -829402343 536692906 1649771774 -310930465 -996571906 -103932611 -1793105653 177622502
REM
CELL 1.54180   50.00000   50.00000   50.00000   90.00000   90.00000   90.00000
LATT -1
SFAC C  
C      1  0.4893410000000  0.4586070000000  0.4536990000000 1.0
C      1  0.4387980000000  0.4942770000000  0.5386660000000 1.0
C      1  0.4458380000000  0.4244640000000  0.5490460000000 1.0
C      1  0.5046360000000  0.5392080000000  0.4616550000000 1.0
C      1  0.5462860000000  0.5101660000000  0.5255060000000 1.0
C      1  0.5308080000000  0.5348760000000  0.5616170000000 1.0
C      1  0.5137890000000  0.4698510000000  0.5010670000000 1.0
C      1  0.5338760000000  0.4632360000000  0.5257740000000 1.0
C      1  0.5493260000000  0.4852380000000  0.5109020000000 1.0
C      1  0.5237050000000  0.4192780000000  0.5312090000000 1.0
C      1  0.4524970000000  0.5381340000000  0.4625830000000 1.0
C      1  0.5491650000000  0.5656200000000  0.4605360000000 1.0
C      1  0.4787610000000  0.4317560000000  0.4716850000000 1.0
C      1  0.4997340000000  0.4908050000000  0.5550730000000 1.0
C      1  0.4885930000000  0.4281120000000  0.5159440000000 1.0
C      1  0.5581790000000  0.5387470000000  0.4614180000000 1.0
C      1  0.5307840000000  0.5517250000000  0.4930630000000 1.0
C      1  0.4667940000000  0.4478360000000  0.4991540000000 1.0
C      1  0.5140080000000  0.4503790000000  0.4756250000000 1.0
C      1  0.4230320000000  0.4477800000000  0.5394410000000 1.0
C      1  0.5288720000000  0.4535620000000  0.4270010000000 1.0
C      1  0.4821700000000  0.5263310000000  0.5600810000000 1.0
C      1  0.5154470000000  0.4647780000000  0.5544440000000 1.0
C      1  0.5328410000000  0.5236220000000  0.4503640000000 1.0
C      1  0.5034360000000  0.4498680000000  0.4259800000000 1.0
C      1  0.4441850000000  0.4573950000000  0.4761910000000 1.0
C      1  0.5406000000000  0.5000840000000  0.5771290000000 1.0
C      1  0.4734080000000  0.5113070000000  0.4626110000000 1.0
C      1  0.4173560000000  0.4567070000000  0.4810590000000 1.0
C      1  0.5770500000000  0.5386060000000  0.5045110000000 1.0
C      1  0.5327270000000  0.5696330000000  0.5220050000000 1.0
C      1  0.5767700000000  0.4641740000000  0.4757200000000 1.0
C      1  0.4972240000000  0.5866570000000  0.4876070000000 1.0
C      1  0.4878620000000  0.5529910000000  0.5410580000000 1.0
C      1  0.4933170000000  0.5299170000000  0.4918460000000 1.0
C      1  0.4991790000000  0.4989600000000  0.5267670000000 1.0
C      1  0.4924550000000  0.5349860000000  0.4086870000000 1.0
C      1  0.5168290000000  0.5213970000000  0.5148960000000 1.0
C      1  0.5582860000000  0.4436970000000  0.4700270000000 1.0
C      1  0.4690480000000  0.4095170000000  0.5295600000000 1.0
C      1  0.4300910000000  0.5374120000000  0.5066380000000 1.0
C      1  0.4660080000000  0.5068670000000  0.4236900000000 1.0
C      1  0.5408030000000  0.4719590000000  0.5734500000000 1.0
C      1  0.5010910000000  0.4390710000000  0.5456180000000 1.0
C      1  0.4515170000000  0.4920870000000  0.4450780000000 1.0
C      1  0.4449470000000  0.5721130000000  0.5235820000000 1.0
C      1  0.5167900000000  0.5698160000000  0.4701220000000 1.0
C      1  0.4566550000000  0.4662290000000  0.4533430000000 1.0
C      1  0.4514220000000  0.5843250000000  0.4974410000000 1.0
C      1  0.4162800000000  0.4734070000000  0.5422780000000 1.0
C      1  0.5754870000000  0.5250420000000  0.5293150000000 1.0
C      1  0.4490320000000  0.5165930000000  0.5179370000000 1.0
C      1  0.4488320000000  0.5538340000000  0.4883130000000 1.0
C      1  0.5602510000000  0.5615170000000  0.5048150000000 1.0
C      1  0.5181280000000  0.4261010000000  0.4990910000000 1.0
C      1  0.4780020000000  0.5547550000000  0.5017990000000 1.0
C      1  0.5313170000000  0.5201740000000  0.4841550000000 1.0
C      1  0.4695380000000  0.5064170000000  0.4960950000000 1.0
C      1  0.5573630000000  0.5177030000000  0.5560780000000 1.0
C      1  0.4942470000000  0.4987080000000  0.4253440000000 1.0
C      1  0.5616250000000  0.4910550000000  0.4826520000000 1.0
C      1  0.5371530000000  0.5177980000000  0.4207780000000 1.0
C      1  0.4707040000000  0.4453920000000  0.5472290000000 1.0
C      1  0.4726290000000  0.5983300000000  0.4853720000000 1.0
C      1  0.5532610000000  0.4536630000000  0.5520270000000 1.0
C      1  0.5452300000000  0.4224150000000  0.4808690000000 1.0
C      1  0.5182130000000  0.5450660000000  0.5362690000000 1.0
C      1  0.5378550000000  0.4613570000000  0.4553760000000 1.0
C      1  0.4573470000000  0.5449220000000  0.5348650000000 1.0
C      1  0.4424120000000  0.4365820000000  0.5170700000000 1.0
C      1  0.4688420000000  0.4948490000000  0.5646070000000 1.0
C      1  0.4814080000000  0.4770900000000  0.5085510000000 1.0
C      1  0.5129630000000  0.5128920000000  0.4075400000000 1.0
C      1  0.4999390000000  0.4907690000000  0.4568570000000 1.0
C      1  0.5286460000000  0.4875150000000  0.4750670000000 1.0
C      1  0.5712320000000  0.5230540000000  0.4809330000000 1.0
C      1  0.4485440000000  0.5211020000000  0.5574750000000 1.0
C      1  0.4656810000000  0.4738450000000  0.5385270000000 1.0
C      1  0.4993940000000  0.5744950000000  0.5173290000000 1.0
C      1  0.4821340000000  0.5342670000000  0.4390850000000 1.0
C      1  0.5099780000000  0.5151340000000  0.5761300000000 1.0
END
