TITL C-2622962-9663-648 -5.88310182319258e-07 125000 -170.694198347455 0 0 28 (Td) n - 1
REM
REM in /nfs/bkarasulu/CARBON/AIRSS/Generating-Clusters/AIREBO/with-SteepDescent/Higher-Symm/SD-CG/HFTN-CG
REM
REM
REM
REM
REM
REM ./C.cell (b20cbc046b6831c77cfcea5457e17084)
REM
REM compiler GCC version 9.2.1 20190827 (Red Hat 9.2.1-1)
REM options -cpp -mtune=generic -march=x86-64 -g -O0 -fpre-include=/usr/include/finclude/math-vector-fortran.h
REM seed 150055093 15018343 -1212651264 225562459 -413794170 1585068743 -1489453966 -1149480158 -801985315 -990148441 1531637206 1510755246 -1259011190 1264494657 730950006 8345236 -64667560 1417393695 -1173340605 -1232312216 2042437575 -1239572534 1340412945 -1990057017 724089249 -913593714 2115387764 -1270999285 1792027878 -538523298 -1656661414 924145960 1381885841
REM
CELL 1.54180   50.00000   50.00000   50.00000   90.00000   90.00000   90.00000
LATT -1
SFAC C  
C      1  0.5177040000000  0.4524930000000  0.5196280000000 1.0
C      1  0.4530480000000  0.5186120000000  0.5212700000000 1.0
C      1  0.5164500000000  0.5175910000000  0.4539350000000 1.0
C      1  0.4870040000000  0.5518450000000  0.5200960000000 1.0
C      1  0.5178260000000  0.5513490000000  0.4873610000000 1.0
C      1  0.4849690000000  0.4526980000000  0.4888020000000 1.0
C      1  0.5516590000000  0.4857260000000  0.5184540000000 1.0
C      1  0.4517460000000  0.4866730000000  0.4896460000000 1.0
C      1  0.5510490000000  0.5173740000000  0.4865170000000 1.0
C      1  0.4843240000000  0.4861490000000  0.4550460000000 1.0
C      1  0.5190810000000  0.4862510000000  0.5530540000000 1.0
C      1  0.4876480000000  0.5183950000000  0.5538520000000 1.0
C      1  0.5024540000000  0.4679690000000  0.5384140000000 1.0
C      1  0.4679770000000  0.5367590000000  0.5047540000000 1.0
C      1  0.5351130000000  0.5014820000000  0.4686720000000 1.0
C      1  0.5033590000000  0.5365370000000  0.5380730000000 1.0
C      1  0.5011390000000  0.5362250000000  0.4695350000000 1.0
C      1  0.5005500000000  0.4676540000000  0.4698660000000 1.0
C      1  0.5357690000000  0.4674330000000  0.5030320000000 1.0
C      1  0.4672350000000  0.4681900000000  0.5052480000000 1.0
C      1  0.5365210000000  0.5360030000000  0.5028530000000 1.0
C      1  0.4665760000000  0.5023970000000  0.4707290000000 1.0
C      1  0.5371770000000  0.5019540000000  0.5372130000000 1.0
C      1  0.4686360000000  0.5025520000000  0.5392730000000 1.0
C      1  0.5283370000000  0.5273630000000  0.5285050000000 1.0
C      1  0.4769430000000  0.4770620000000  0.5302810000000 1.0
C      1  0.5262540000000  0.4762680000000  0.4779120000000 1.0
C      1  0.4759680000000  0.5276920000000  0.4791890000000 1.0
END
