TITL C-2622960-5345-137 0.00206929397308251 125000 -339.59350153248 0 0 63 (C1) n - 1
REM
REM in /nfs/bkarasulu/CARBON/AIRSS/Generating-Clusters/AIREBO/with-SteepDescent/Higher-Symm/SD-CG/HFTN-CG
REM
REM
REM
REM
REM
REM ./C.cell (b20cbc046b6831c77cfcea5457e17084)
REM
REM compiler GCC version 9.2.1 20190827 (Red Hat 9.2.1-1)
REM options -cpp -mtune=generic -march=x86-64 -g -O0 -fpre-include=/usr/include/finclude/math-vector-fortran.h
REM seed 1035233165 1069479288 -1219609341 592704992 -1464232117 -264657531 1249786963 -303592906 -1153337091 -745118089 -1008800057 1308522360 -1648713694 1619889785 -896379328 -861339233 -9984544 -824489583 1899056828 1782908306 1405636541 -908180208 1337801780 -1402938596 -1906898672 961466966 659983356 -1026406427 1105823570 -2113231592 677428861 -1250085481 1331045445
REM
CELL 1.54180   50.00000   50.00000   50.00000   90.00000   90.00000   90.00000
LATT -1
SFAC C  
C      1  0.4829500000000  0.4355520000000  0.4900700000000 1.0
C      1  0.4982160000000  0.4350100000000  0.5215310000000 1.0
C      1  0.5168990000000  0.4321120000000  0.4924950000000 1.0
C      1  0.4509500000000  0.4676950000000  0.5461760000000 1.0
C      1  0.5654580000000  0.4671330000000  0.5114280000000 1.0
C      1  0.4880910000000  0.4664380000000  0.4354690000000 1.0
C      1  0.4364430000000  0.4677170000000  0.5089240000000 1.0
C      1  0.5414760000000  0.4664690000000  0.5497660000000 1.0
C      1  0.5297120000000  0.4657850000000  0.4439780000000 1.0
C      1  0.5153670000000  0.5701810000000  0.4969810000000 1.0
C      1  0.4842380000000  0.5660660000000  0.4880550000000 1.0
C      1  0.4921400000000  0.5628950000000  0.5208510000000 1.0
C      1  0.5556990000000  0.5346530000000  0.4710990000000 1.0
C      1  0.4520920000000  0.5343580000000  0.4661010000000 1.0
C      1  0.4983170000000  0.5358130000000  0.5653120000000 1.0
C      1  0.4829590000000  0.4997360000000  0.4400410000000 1.0
C      1  0.4574410000000  0.5009890000000  0.5485150000000 1.0
C      1  0.5540150000000  0.4989390000000  0.5076760000000 1.0
C      1  0.4347690000000  0.4797340000000  0.4828690000000 1.0
C      1  0.5223990000000  0.4800410000000  0.5666540000000 1.0
C      1  0.5559960000000  0.4868910000000  0.4485500000000 1.0
C      1  0.5288110000000  0.4490270000000  0.5264620000000 1.0
C      1  0.5097260000000  0.4474220000000  0.4629940000000 1.0
C      1  0.4609280000000  0.4465490000000  0.5135410000000 1.0
C      1  0.4669870000000  0.5461100000000  0.5365070000000 1.0
C      1  0.5333300000000  0.5434480000000  0.5032070000000 1.0
C      1  0.4842720000000  0.5448280000000  0.4615020000000 1.0
C      1  0.5620670000000  0.4878290000000  0.5387990000000 1.0
C      1  0.5126200000000  0.4891960000000  0.4282190000000 1.0
C      1  0.4299780000000  0.4903040000000  0.5315520000000 1.0
C      1  0.5415590000000  0.5620510000000  0.4766050000000 1.0
C      1  0.4550180000000  0.5650550000000  0.4787250000000 1.0
C      1  0.5011410000000  0.5597540000000  0.5520930000000 1.0
C      1  0.4657210000000  0.4979230000000  0.5156590000000 1.0
C      1  0.5219280000000  0.4970330000000  0.5187600000000 1.0
C      1  0.5030560000000  0.4966530000000  0.4663180000000 1.0
C      1  0.5491550000000  0.5156930000000  0.4492740000000 1.0
C      1  0.4359150000000  0.5134690000000  0.4857570000000 1.0
C      1  0.5246040000000  0.5145860000000  0.5655580000000 1.0
C      1  0.5464620000000  0.4448010000000  0.4977040000000 1.0
C      1  0.4758530000000  0.4479850000000  0.4600480000000 1.0
C      1  0.4789370000000  0.4526030000000  0.5417450000000 1.0
C      1  0.5497360000000  0.5168960000000  0.5441710000000 1.0
C      1  0.5235150000000  0.5186420000000  0.4358820000000 1.0
C      1  0.4292810000000  0.5186010000000  0.5152440000000 1.0
C      1  0.4796390000000  0.4717210000000  0.5067870000000 1.0
C      1  0.5122520000000  0.4707290000000  0.5108900000000 1.0
C      1  0.4999980000000  0.4707630000000  0.4818940000000 1.0
C      1  0.4675740000000  0.5019910000000  0.4837380000000 1.0
C      1  0.5048460000000  0.5048380000000  0.5411260000000 1.0
C      1  0.5334140000000  0.4924110000000  0.4807820000000 1.0
C      1  0.4597320000000  0.4740390000000  0.4660180000000 1.0
C      1  0.4941130000000  0.4758850000000  0.5553750000000 1.0
C      1  0.5502440000000  0.4663170000000  0.4746000000000 1.0
C      1  0.4908350000000  0.5223340000000  0.4817120000000 1.0
C      1  0.4841660000000  0.5208910000000  0.5268250000000 1.0
C      1  0.5192470000000  0.5188610000000  0.4953270000000 1.0
C      1  0.5557150000000  0.5354880000000  0.5237960000000 1.0
C      1  0.5049510000000  0.5386220000000  0.4383610000000 1.0
C      1  0.4373240000000  0.5427080000000  0.5266380000000 1.0
C      1  0.5679520000000  0.5250990000000  0.4956150000000 1.0
C      1  0.4619500000000  0.5212070000000  0.4382900000000 1.0
C      1  0.4698240000000  0.5254300000000  0.5633550000000 1.0
END
