TITL C-2622953-3516-112 0.00139669009935796 125000 -739.223126367266 0 0 146 (C1) n - 1
REM
REM in /nfs/bkarasulu/CARBON/AIRSS/Generating-Clusters/AIREBO/with-SteepDescent/Higher-Symm/SD-CG/HFTN-CG
REM
REM
REM
REM
REM
REM ./C.cell (b20cbc046b6831c77cfcea5457e17084)
REM
REM compiler GCC version 9.2.1 20190827 (Red Hat 9.2.1-1)
REM options -cpp -mtune=generic -march=x86-64 -g -O0 -fpre-include=/usr/include/finclude/math-vector-fortran.h
REM seed -788755620 -83829849 -1215822533 163468418 1020810007 -1490416304 -1887599100 111439406 260273906 -1847631987 -933446923 -603588078 130953292 -238456384 -382852322 -823235153 -1831319371 -13175443 1258504339 1368454943 1538450890 -1607795356 449111231 1055920860 415415230 -2094318107 2068465138 1190651047 -2067786364 -841247353 1916858928 -1444558488 -1239489155
REM
CELL 1.54180   50.00000   50.00000   50.00000   90.00000   90.00000   90.00000
LATT -1
SFAC C  
C      1  0.5039310000000  0.4148020000000  0.4840500000000 1.0
C      1  0.5071610000000  0.4873820000000  0.5978710000000 1.0
C      1  0.4949620000000  0.6002630000000  0.5056810000000 1.0
C      1  0.4995590000000  0.5008010000000  0.3988580000000 1.0
C      1  0.5381440000000  0.4203210000000  0.5440870000000 1.0
C      1  0.4611480000000  0.5509730000000  0.5715870000000 1.0
C      1  0.5424430000000  0.5666740000000  0.4398060000000 1.0
C      1  0.4585600000000  0.4500010000000  0.4249620000000 1.0
C      1  0.5591310000000  0.5165870000000  0.5714820000000 1.0
C      1  0.4481480000000  0.5722240000000  0.4865970000000 1.0
C      1  0.5622770000000  0.4861270000000  0.4273010000000 1.0
C      1  0.4351380000000  0.4297470000000  0.5250370000000 1.0
C      1  0.4752830000000  0.5854170000000  0.4822570000000 1.0
C      1  0.5344190000000  0.4950080000000  0.4396170000000 1.0
C      1  0.4631720000000  0.4235140000000  0.5155910000000 1.0
C      1  0.5274450000000  0.5059920000000  0.5778980000000 1.0
C      1  0.4705610000000  0.5804750000000  0.5728750000000 1.0
C      1  0.5245220000000  0.5664590000000  0.4108710000000 1.0
C      1  0.5149330000000  0.3966770000000  0.4263140000000 1.0
C      1  0.5270800000000  0.4311090000000  0.5743760000000 1.0
C      1  0.5414690000000  0.5655720000000  0.5581450000000 1.0
C      1  0.4618380000000  0.5553120000000  0.4366490000000 1.0
C      1  0.5445850000000  0.4426140000000  0.4440160000000 1.0
C      1  0.4519540000000  0.4436770000000  0.5714190000000 1.0
C      1  0.4988320000000  0.5172090000000  0.4961050000000 1.0
C      1  0.5066350000000  0.4831000000000  0.4762460000000 1.0
C      1  0.4893250000000  0.4765230000000  0.5165680000000 1.0
C      1  0.5023410000000  0.5256760000000  0.5273140000000 1.0
C      1  0.5504040000000  0.4237790000000  0.4784960000000 1.0
C      1  0.4565000000000  0.4850960000000  0.5835000000000 1.0
C      1  0.5446880000000  0.5831540000000  0.5223900000000 1.0
C      1  0.4558530000000  0.5184930000000  0.4223080000000 1.0
C      1  0.4715530000000  0.5140580000000  0.5603840000000 1.0
C      1  0.5112460000000  0.5725070000000  0.4946370000000 1.0
C      1  0.4813610000000  0.4874900000000  0.4243120000000 1.0
C      1  0.5110300000000  0.4439000000000  0.5001510000000 1.0
C      1  0.5026780000000  0.5127520000000  0.4652810000000 1.0
C      1  0.4840900000000  0.4601260000000  0.4872200000000 1.0
C      1  0.5050230000000  0.4747210000000  0.5466790000000 1.0
C      1  0.5001320000000  0.5569940000000  0.5213790000000 1.0
C      1  0.5924850000000  0.5195600000000  0.5322750000000 1.0
C      1  0.4143130000000  0.5333060000000  0.4761910000000 1.0
C      1  0.5862200000000  0.4796410000000  0.4652110000000 1.0
C      1  0.4047380000000  0.4686810000000  0.5309040000000 1.0
C      1  0.4924340000000  0.4491940000000  0.4218580000000 1.0
C      1  0.5060040000000  0.4116940000000  0.5422370000000 1.0
C      1  0.4918800000000  0.5467880000000  0.5752530000000 1.0
C      1  0.5110730000000  0.5790710000000  0.4443180000000 1.0
C      1  0.4941810000000  0.4515010000000  0.4557420000000 1.0
C      1  0.5004260000000  0.4423180000000  0.5559210000000 1.0
C      1  0.4993090000000  0.5826410000000  0.5576850000000 1.0
C      1  0.5140700000000  0.5389510000000  0.4526310000000 1.0
C      1  0.4299970000000  0.5007060000000  0.5687410000000 1.0
C      1  0.5623570000000  0.5603620000000  0.5043710000000 1.0
C      1  0.4271460000000  0.5038790000000  0.4331910000000 1.0
C      1  0.5785710000000  0.4373990000000  0.4918100000000 1.0
C      1  0.5336880000000  0.4513750000000  0.5193920000000 1.0
C      1  0.4627660000000  0.5228010000000  0.5312370000000 1.0
C      1  0.5284020000000  0.5471100000000  0.4799020000000 1.0
C      1  0.4690350000000  0.4748250000000  0.4533660000000 1.0
C      1  0.4551780000000  0.4611970000000  0.5051080000000 1.0
C      1  0.5234150000000  0.4994750000000  0.5323540000000 1.0
C      1  0.4516210000000  0.5306770000000  0.4912750000000 1.0
C      1  0.5446300000000  0.4965450000000  0.4680900000000 1.0
C      1  0.5854360000000  0.5348290000000  0.5029010000000 1.0
C      1  0.4168650000000  0.5020550000000  0.4629860000000 1.0
C      1  0.5878190000000  0.4697930000000  0.4972450000000 1.0
C      1  0.4243040000000  0.4958460000000  0.5368410000000 1.0
C      1  0.4516060000000  0.5537870000000  0.5390720000000 1.0
C      1  0.5597320000000  0.5379310000000  0.4341660000000 1.0
C      1  0.4551230000000  0.4441870000000  0.4582870000000 1.0
C      1  0.5489140000000  0.4522550000000  0.5486360000000 1.0
C      1  0.4732110000000  0.4834040000000  0.5547780000000 1.0
C      1  0.5303650000000  0.5539250000000  0.5306850000000 1.0
C      1  0.4795830000000  0.5199070000000  0.4467600000000 1.0
C      1  0.5302850000000  0.4486510000000  0.4727970000000 1.0
C      1  0.4152150000000  0.5397360000000  0.5048250000000 1.0
C      1  0.5821070000000  0.5065930000000  0.4586110000000 1.0
C      1  0.4047220000000  0.4599720000000  0.5005600000000 1.0
C      1  0.5914340000000  0.4897980000000  0.5466860000000 1.0
C      1  0.4484510000000  0.5242020000000  0.5829290000000 1.0
C      1  0.5538100000000  0.5662800000000  0.4719800000000 1.0
C      1  0.4431580000000  0.4774950000000  0.4188310000000 1.0
C      1  0.5569320000000  0.4290860000000  0.5170610000000 1.0
C      1  0.5230430000000  0.5226780000000  0.4028840000000 1.0
C      1  0.4565900000000  0.4002150000000  0.4741030000000 1.0
C      1  0.5339650000000  0.4724560000000  0.5985810000000 1.0
C      1  0.4651510000000  0.5977170000000  0.5189220000000 1.0
C      1  0.4787510000000  0.4486720000000  0.5775910000000 1.0
C      1  0.5194350000000  0.5666860000000  0.5782200000000 1.0
C      1  0.4929870000000  0.5591680000000  0.4234990000000 1.0
C      1  0.5181560000000  0.4301320000000  0.4321040000000 1.0
C      1  0.4311470000000  0.4541370000000  0.5466360000000 1.0
C      1  0.5657030000000  0.5321480000000  0.5449010000000 1.0
C      1  0.4421870000000  0.5480430000000  0.4634470000000 1.0
C      1  0.5723680000000  0.4611730000000  0.4443710000000 1.0
C      1  0.4352060000000  0.5616140000000  0.5102850000000 1.0
C      1  0.5784730000000  0.5124720000000  0.4293520000000 1.0
C      1  0.4130090000000  0.4297250000000  0.5077090000000 1.0
C      1  0.5795270000000  0.4972170000000  0.5745080000000 1.0
C      1  0.4722430000000  0.4284890000000  0.4831920000000 1.0
C      1  0.5335870000000  0.4743870000000  0.5651330000000 1.0
C      1  0.4766630000000  0.5734380000000  0.5340360000000 1.0
C      1  0.5316260000000  0.5249340000000  0.4304900000000 1.0
C      1  0.4697540000000  0.5020830000000  0.5051710000000 1.0
C      1  0.5328790000000  0.5216540000000  0.4967210000000 1.0
C      1  0.4557870000000  0.4892750000000  0.4769240000000 1.0
C      1  0.5420920000000  0.4816010000000  0.5168260000000 1.0
C      1  0.5420500000000  0.5264040000000  0.5256870000000 1.0
C      1  0.4542430000000  0.5162790000000  0.4620490000000 1.0
C      1  0.5344920000000  0.4764080000000  0.4879030000000 1.0
C      1  0.4521530000000  0.4764080000000  0.5336810000000 1.0
C      1  0.5325760000000  0.4104110000000  0.5023740000000 1.0
C      1  0.4436620000000  0.5252460000000  0.6127270000000 1.0
C      1  0.5371890000000  0.5918470000000  0.4841220000000 1.0
C      1  0.4610770000000  0.4881410000000  0.3970280000000 1.0
C      1  0.4841110000000  0.4020890000000  0.5290130000000 1.0
C      1  0.5190500000000  0.5358360000000  0.5925130000000 1.0
C      1  0.4898070000000  0.6001470000000  0.4551360000000 1.0
C      1  0.5014470000000  0.4671570000000  0.3968040000000 1.0
C      1  0.4106020000000  0.5263970000000  0.5308920000000 1.0
C      1  0.5822880000000  0.5476880000000  0.4721700000000 1.0
C      1  0.4054350000000  0.4704550000000  0.4682230000000 1.0
C      1  0.6006760000000  0.4630190000000  0.5285730000000 1.0
C      1  0.5800120000000  0.4515020000000  0.5464970000000 1.0
C      1  0.4207330000000  0.5446150000000  0.5499800000000 1.0
C      1  0.5818050000000  0.5616060000000  0.4438900000000 1.0
C      1  0.4228060000000  0.4480130000000  0.4551980000000 1.0
C      1  0.4878130000000  0.4424440000000  0.5243430000000 1.0
C      1  0.5030540000000  0.5205960000000  0.5592440000000 1.0
C      1  0.4942550000000  0.5626600000000  0.4668810000000 1.0
C      1  0.5069540000000  0.4801360000000  0.4425820000000 1.0
C      1  0.5150430000000  0.5929680000000  0.5303800000000 1.0
C      1  0.4855700000000  0.5271050000000  0.4152480000000 1.0
C      1  0.5096450000000  0.4074540000000  0.4557390000000 1.0
C      1  0.4842910000000  0.4733270000000  0.5923410000000 1.0
C      1  0.5685140000000  0.5645610000000  0.5379760000000 1.0
C      1  0.4319000000000  0.5382170000000  0.4325510000000 1.0
C      1  0.5749040000000  0.4313460000000  0.4579380000000 1.0
C      1  0.4277370000000  0.4679820000000  0.5775150000000 1.0
C      1  0.4359870000000  0.5056720000000  0.5073550000000 1.0
C      1  0.5594990000000  0.5226750000000  0.4755420000000 1.0
C      1  0.4328620000000  0.4703870000000  0.4867080000000 1.0
C      1  0.5698840000000  0.4868680000000  0.5205490000000 1.0
C      1  0.5956490000000  0.5023880000000  0.5030340000000 1.0
C      1  0.4073280000000  0.4995250000000  0.4955260000000 1.0
END
