TITL C-2622960-5345-130 0.0002465864575375 125000 -414.433111911087 0 0 77 (C1) n - 1
REM
REM in /nfs/bkarasulu/CARBON/AIRSS/Generating-Clusters/AIREBO/with-SteepDescent/Higher-Symm/SD-CG/HFTN-CG
REM
REM
REM
REM
REM
REM ./C.cell (b20cbc046b6831c77cfcea5457e17084)
REM
REM compiler GCC version 9.2.1 20190827 (Red Hat 9.2.1-1)
REM options -cpp -mtune=generic -march=x86-64 -g -O0 -fpre-include=/usr/include/finclude/math-vector-fortran.h
REM seed -175182610 -253451234 727245377 592338879 298832977 -1588671008 -289419860 637252888 -1444789368 -1817713147 -566801052 -378507205 -1709595071 1454977692 -986694799 945120966 -384845217 574459365 -2042106876 -182288429 -657597160 244421032 -1814403131 -1784577730 1934968115 767255553 -493320649 1687357362 -2038895032 -1238663869 -235084257 -378414781 1809047319
REM
CELL 1.54180   50.00000   50.00000   50.00000   90.00000   90.00000   90.00000
LATT -1
SFAC C  
C      1  0.5168770000000  0.4234640000000  0.4816710000000 1.0
C      1  0.5235580000000  0.5563860000000  0.5251160000000 1.0
C      1  0.4855270000000  0.4308320000000  0.5304080000000 1.0
C      1  0.4754360000000  0.5756490000000  0.4832060000000 1.0
C      1  0.5163340000000  0.4885460000000  0.4311360000000 1.0
C      1  0.5135010000000  0.5228110000000  0.5613570000000 1.0
C      1  0.4873690000000  0.5327290000000  0.4230330000000 1.0
C      1  0.4794240000000  0.4844520000000  0.5636370000000 1.0
C      1  0.5054290000000  0.5399820000000  0.4847290000000 1.0
C      1  0.5220410000000  0.4480230000000  0.5018860000000 1.0
C      1  0.4730010000000  0.5620640000000  0.5108660000000 1.0
C      1  0.4889840000000  0.4507250000000  0.4734100000000 1.0
C      1  0.5088470000000  0.4729850000000  0.5391280000000 1.0
C      1  0.5113400000000  0.5083630000000  0.4583530000000 1.0
C      1  0.4852350000000  0.5087370000000  0.5495650000000 1.0
C      1  0.4864410000000  0.4773480000000  0.4548000000000 1.0
C      1  0.5011500000000  0.5662610000000  0.4749920000000 1.0
C      1  0.5082140000000  0.4160660000000  0.5393920000000 1.0
C      1  0.5003590000000  0.5699830000000  0.5295990000000 1.0
C      1  0.4875860000000  0.4211660000000  0.4743810000000 1.0
C      1  0.5046550000000  0.4696360000000  0.5682130000000 1.0
C      1  0.5128940000000  0.5281690000000  0.4338090000000 1.0
C      1  0.4897270000000  0.5357960000000  0.5785970000000 1.0
C      1  0.4899810000000  0.4741320000000  0.4239130000000 1.0
C      1  0.4624030000000  0.5246520000000  0.4317060000000 1.0
C      1  0.4535750000000  0.4757840000000  0.5555510000000 1.0
C      1  0.5454230000000  0.5148260000000  0.5602790000000 1.0
C      1  0.5440230000000  0.4799400000000  0.4327530000000 1.0
C      1  0.4583500000000  0.4326690000000  0.5277260000000 1.0
C      1  0.4524350000000  0.5660290000000  0.4690630000000 1.0
C      1  0.5471360000000  0.5636380000000  0.5067480000000 1.0
C      1  0.5449370000000  0.4296260000000  0.4748960000000 1.0
C      1  0.4453290000000  0.4684090000000  0.4542660000000 1.0
C      1  0.4480170000000  0.5363860000000  0.5493420000000 1.0
C      1  0.5502090000000  0.4839750000000  0.5586320000000 1.0
C      1  0.5539080000000  0.5320320000000  0.4609540000000 1.0
C      1  0.4419780000000  0.4431840000000  0.4807500000000 1.0
C      1  0.4509580000000  0.5674430000000  0.5357650000000 1.0
C      1  0.5496750000000  0.5647030000000  0.4772610000000 1.0
C      1  0.5508370000000  0.4492070000000  0.5177700000000 1.0
C      1  0.5554590000000  0.4583680000000  0.4826150000000 1.0
C      1  0.5576070000000  0.5369120000000  0.5179370000000 1.0
C      1  0.4489530000000  0.4575720000000  0.5089890000000 1.0
C      1  0.4485640000000  0.5384860000000  0.4751750000000 1.0
C      1  0.5545080000000  0.4803290000000  0.4585080000000 1.0
C      1  0.5610150000000  0.5300040000000  0.5443490000000 1.0
C      1  0.4502300000000  0.5182740000000  0.4563850000000 1.0
C      1  0.4477210000000  0.4836850000000  0.5288600000000 1.0
C      1  0.5764040000000  0.4687660000000  0.5517940000000 1.0
C      1  0.5859270000000  0.5372140000000  0.4593850000000 1.0
C      1  0.4157460000000  0.4608090000000  0.4563010000000 1.0
C      1  0.4141700000000  0.5385650000000  0.5517250000000 1.0
C      1  0.5784180000000  0.5630990000000  0.4661440000000 1.0
C      1  0.5763420000000  0.4518690000000  0.5326240000000 1.0
C      1  0.4104700000000  0.4403420000000  0.4740200000000 1.0
C      1  0.4197950000000  0.5632640000000  0.5407160000000 1.0
C      1  0.4784370000000  0.5820070000000  0.5447930000000 1.0
C      1  0.4599590000000  0.4175540000000  0.4755640000000 1.0
C      1  0.5250910000000  0.5780120000000  0.4658470000000 1.0
C      1  0.5336890000000  0.4225520000000  0.5301090000000 1.0
C      1  0.4650150000000  0.5362960000000  0.5752670000000 1.0
C      1  0.4602820000000  0.4687840000000  0.4259840000000 1.0
C      1  0.5308030000000  0.4701640000000  0.5794300000000 1.0
C      1  0.5389830000000  0.5368420000000  0.4339460000000 1.0
C      1  0.4660790000000  0.5307700000000  0.5018560000000 1.0
C      1  0.4762820000000  0.4718220000000  0.4968580000000 1.0
C      1  0.5312270000000  0.5281400000000  0.4980720000000 1.0
C      1  0.5339100000000  0.4797050000000  0.4982400000000 1.0
C      1  0.4598270000000  0.5154710000000  0.5280570000000 1.0
C      1  0.4625820000000  0.4913640000000  0.4724760000000 1.0
C      1  0.5330960000000  0.4917500000000  0.5300460000000 1.0
C      1  0.5399170000000  0.5051950000000  0.4765260000000 1.0
C      1  0.4972000000000  0.4556490000000  0.5182460000000 1.0
C      1  0.4850940000000  0.5163880000000  0.4773240000000 1.0
C      1  0.5220250000000  0.5227750000000  0.5290850000000 1.0
C      1  0.5123690000000  0.4730530000000  0.4727800000000 1.0
C      1  0.5027020000000  0.4922610000000  0.5032060000000 1.0
END
