TITL C-2622958-629-388 -0.000411309549644625 125000 -773.447337218619 0 0 137 (C1) n - 1
REM
REM in /nfs/bkarasulu/CARBON/AIRSS/Generating-Clusters/AIREBO/with-SteepDescent/Higher-Symm/SD-CG/HFTN-CG
REM
REM
REM
REM
REM
REM ./C.cell (b20cbc046b6831c77cfcea5457e17084)
REM
REM compiler GCC version 9.2.1 20190827 (Red Hat 9.2.1-1)
REM options -cpp -mtune=generic -march=x86-64 -g -O0 -fpre-include=/usr/include/finclude/math-vector-fortran.h
REM seed 1828052558 -390420035 -1807619855 1049535586 351746075 -1537508382 893332593 -708401702 637747077 1808634954 202168634 -880096932 268602120 2106352513 -2036611093 732552055 -552156498 902630582 -744151892 -587208117 -2082129203 1955568741 -831403592 -1601493417 -152844630 -1791960334 504111786 709762388 88036747 711418732 1193597144 2019658526 -935277329
REM
CELL 1.54180   50.00000   50.00000   50.00000   90.00000   90.00000   90.00000
LATT -1
SFAC C  
C      1  0.4860540000000  0.4063720000000  0.4734450000000 1.0
C      1  0.4977380000000  0.3975610000000  0.5548520000000 1.0
C      1  0.4854080000000  0.4468330000000  0.5977500000000 1.0
C      1  0.4941580000000  0.5135170000000  0.5978080000000 1.0
C      1  0.4849600000000  0.5733150000000  0.5571890000000 1.0
C      1  0.4804020000000  0.6126310000000  0.4992370000000 1.0
C      1  0.4890330000000  0.5669690000000  0.4394300000000 1.0
C      1  0.4846180000000  0.5183990000000  0.3871300000000 1.0
C      1  0.4918930000000  0.4556360000000  0.4120870000000 1.0
C      1  0.4600230000000  0.4841830000000  0.5312600000000 1.0
C      1  0.4518730000000  0.5047690000000  0.5141820000000 1.0
C      1  0.4581360000000  0.5306840000000  0.5222690000000 1.0
C      1  0.4686840000000  0.5532700000000  0.5014510000000 1.0
C      1  0.4583120000000  0.5370380000000  0.4734280000000 1.0
C      1  0.4643770000000  0.5184230000000  0.4488900000000 1.0
C      1  0.4588770000000  0.4717730000000  0.4685570000000 1.0
C      1  0.4569170000000  0.4539910000000  0.4906950000000 1.0
C      1  0.4549040000000  0.4566410000000  0.5219060000000 1.0
C      1  0.5739270000000  0.4631540000000  0.5451900000000 1.0
C      1  0.5856770000000  0.5124050000000  0.5632320000000 1.0
C      1  0.5724260000000  0.5402120000000  0.5358230000000 1.0
C      1  0.5745450000000  0.5699990000000  0.5095100000000 1.0
C      1  0.5745410000000  0.5565650000000  0.4558000000000 1.0
C      1  0.5759250000000  0.5184080000000  0.4442990000000 1.0
C      1  0.5850690000000  0.4796730000000  0.4419370000000 1.0
C      1  0.5759810000000  0.4481380000000  0.4643430000000 1.0
C      1  0.5659610000000  0.4236780000000  0.4937130000000 1.0
C      1  0.4977500000000  0.5198970000000  0.4706300000000 1.0
C      1  0.4792530000000  0.4930560000000  0.4609600000000 1.0
C      1  0.5027130000000  0.4707400000000  0.4612900000000 1.0
C      1  0.4823740000000  0.4431650000000  0.5079830000000 1.0
C      1  0.5040100000000  0.4651430000000  0.5106410000000 1.0
C      1  0.4907520000000  0.4790360000000  0.5349090000000 1.0
C      1  0.4969730000000  0.5070750000000  0.5478700000000 1.0
C      1  0.4903730000000  0.5317820000000  0.5272780000000 1.0
C      1  0.4976980000000  0.5370150000000  0.4943390000000 1.0
C      1  0.4965690000000  0.4582960000000  0.5578760000000 1.0
C      1  0.5088130000000  0.4914070000000  0.5765200000000 1.0
C      1  0.5024030000000  0.5477770000000  0.5547770000000 1.0
C      1  0.5075200000000  0.5671390000000  0.5066750000000 1.0
C      1  0.5240650000000  0.5977720000000  0.4757300000000 1.0
C      1  0.5023480000000  0.5154040000000  0.4372240000000 1.0
C      1  0.5167540000000  0.4787820000000  0.4104510000000 1.0
C      1  0.5244190000000  0.4479270000000  0.4519060000000 1.0
C      1  0.5032910000000  0.4151620000000  0.5274030000000 1.0
C      1  0.5635420000000  0.5135210000000  0.5783240000000 1.0
C      1  0.5519980000000  0.5621540000000  0.5414990000000 1.0
C      1  0.5600150000000  0.5953270000000  0.5153530000000 1.0
C      1  0.5596010000000  0.5809840000000  0.4454980000000 1.0
C      1  0.5571840000000  0.5178180000000  0.4204330000000 1.0
C      1  0.5686090000000  0.4644530000000  0.4232600000000 1.0
C      1  0.5724300000000  0.4189410000000  0.4538550000000 1.0
C      1  0.5538480000000  0.4132090000000  0.5157350000000 1.0
C      1  0.5544290000000  0.4553390000000  0.5696120000000 1.0
C      1  0.4240230000000  0.4761840000000  0.5679190000000 1.0
C      1  0.4474810000000  0.5209560000000  0.5722580000000 1.0
C      1  0.4365790000000  0.5505850000000  0.5348910000000 1.0
C      1  0.4382760000000  0.5661950000000  0.4933780000000 1.0
C      1  0.4370800000000  0.5476010000000  0.4490530000000 1.0
C      1  0.4378110000000  0.5063080000000  0.4345440000000 1.0
C      1  0.4384010000000  0.4615290000000  0.4463850000000 1.0
C      1  0.4320590000000  0.4323460000000  0.4868030000000 1.0
C      1  0.4327900000000  0.4392690000000  0.5356460000000 1.0
C      1  0.4056340000000  0.5096980000000  0.5309960000000 1.0
C      1  0.4143700000000  0.5338450000000  0.5195380000000 1.0
C      1  0.4172160000000  0.5434760000000  0.4931810000000 1.0
C      1  0.4185930000000  0.5302010000000  0.4689730000000 1.0
C      1  0.4188260000000  0.5036670000000  0.4597020000000 1.0
C      1  0.4193450000000  0.4769830000000  0.4692280000000 1.0
C      1  0.4176090000000  0.4610780000000  0.4925870000000 1.0
C      1  0.4154860000000  0.4632510000000  0.5209480000000 1.0
C      1  0.4095380000000  0.4830450000000  0.5398490000000 1.0
C      1  0.4804460000000  0.5741540000000  0.5260200000000 1.0
C      1  0.4926890000000  0.5868890000000  0.4830240000000 1.0
C      1  0.4806310000000  0.5400570000000  0.4304670000000 1.0
C      1  0.4825300000000  0.5034170000000  0.4146150000000 1.0
C      1  0.4941660000000  0.4419560000000  0.4401050000000 1.0
C      1  0.4832480000000  0.4119610000000  0.5030130000000 1.0
C      1  0.4881120000000  0.4292070000000  0.5534920000000 1.0
C      1  0.4774540000000  0.4783810000000  0.5746210000000 1.0
C      1  0.4782750000000  0.5178940000000  0.5704810000000 1.0
C      1  0.4908840000000  0.4378770000000  0.3904280000000 1.0
C      1  0.4971980000000  0.3828040000000  0.4650000000000 1.0
C      1  0.5011150000000  0.3761440000000  0.5678960000000 1.0
C      1  0.5062210000000  0.4661230000000  0.5991390000000 1.0
C      1  0.5114320000000  0.5370340000000  0.5803530000000 1.0
C      1  0.5003940000000  0.5974000000000  0.5678380000000 1.0
C      1  0.5058040000000  0.6239590000000  0.4875740000000 1.0
C      1  0.5127770000000  0.5798770000000  0.4321790000000 1.0
C      1  0.5098990000000  0.5005890000000  0.3858060000000 1.0
C      1  0.5485740000000  0.4576410000000  0.4822640000000 1.0
C      1  0.5327970000000  0.4553020000000  0.5123710000000 1.0
C      1  0.5444020000000  0.4718810000000  0.5348400000000 1.0
C      1  0.5399070000000  0.5021610000000  0.5390490000000 1.0
C      1  0.5452390000000  0.5270730000000  0.5239010000000 1.0
C      1  0.5470320000000  0.5489430000000  0.4988990000000 1.0
C      1  0.5522190000000  0.5373240000000  0.4712430000000 1.0
C      1  0.5461020000000  0.5099350000000  0.4577770000000 1.0
C      1  0.5520400000000  0.4788230000000  0.4566630000000 1.0
C      1  0.4623770000000  0.4954130000000  0.5990880000000 1.0
C      1  0.4583370000000  0.5683840000000  0.5729820000000 1.0
C      1  0.4647790000000  0.6009250000000  0.5194450000000 1.0
C      1  0.4754460000000  0.5781300000000  0.4606530000000 1.0
C      1  0.4673090000000  0.5381410000000  0.4023330000000 1.0
C      1  0.4705910000000  0.4782390000000  0.4127890000000 1.0
C      1  0.4750460000000  0.4256680000000  0.4558330000000 1.0
C      1  0.4563550000000  0.3996420000000  0.5138880000000 1.0
C      1  0.4670340000000  0.4385840000000  0.5760620000000 1.0
C      1  0.4322070000000  0.4983280000000  0.5925420000000 1.0
C      1  0.4409630000000  0.5486810000000  0.5641050000000 1.0
C      1  0.4414120000000  0.5813800000000  0.5213050000000 1.0
C      1  0.4478420000000  0.5741950000000  0.4640250000000 1.0
C      1  0.4423200000000  0.5356920000000  0.4198700000000 1.0
C      1  0.4440850000000  0.4786340000000  0.4221940000000 1.0
C      1  0.4482970000000  0.4330640000000  0.4578290000000 1.0
C      1  0.4341480000000  0.4163060000000  0.5134610000000 1.0
C      1  0.4407840000000  0.4466090000000  0.5663360000000 1.0
C      1  0.5869430000000  0.4508060000000  0.4957410000000 1.0
C      1  0.5958250000000  0.4620100000000  0.5213190000000 1.0
C      1  0.5965860000000  0.4870500000000  0.5444000000000 1.0
C      1  0.5966340000000  0.5179010000000  0.5314530000000 1.0
C      1  0.5995890000000  0.5481670000000  0.5169690000000 1.0
C      1  0.5861640000000  0.5511470000000  0.4864940000000 1.0
C      1  0.5999640000000  0.5342510000000  0.4620370000000 1.0
C      1  0.5980890000000  0.5014500000000  0.4639580000000 1.0
C      1  0.6011160000000  0.4683900000000  0.4698310000000 1.0
C      1  0.5305990000000  0.4257580000000  0.5214580000000 1.0
C      1  0.5265320000000  0.4653530000000  0.5630710000000 1.0
C      1  0.5384110000000  0.5059540000000  0.5682270000000 1.0
C      1  0.5240110000000  0.5525790000000  0.5326000000000 1.0
C      1  0.5375570000000  0.5814650000000  0.4996890000000 1.0
C      1  0.5337740000000  0.5882500000000  0.4488990000000 1.0
C      1  0.5299510000000  0.5047690000000  0.4280050000000 1.0
C      1  0.5392640000000  0.4654260000000  0.4287380000000 1.0
C      1  0.5429640000000  0.4269130000000  0.4688310000000 1.0
C      1  0.5060480000000  0.4818070000000  0.4880610000000 1.0
C      1  0.4523570000000  0.4897100000000  0.5596520000000 1.0
END
