TITL C-2622956-4641-641 -0.000290041882011984 125000 -399.849872150956 0 0 77 (C1) n - 1
REM
REM in /nfs/bkarasulu/CARBON/AIRSS/Generating-Clusters/AIREBO/with-SteepDescent/Higher-Symm/SD-CG/HFTN-CG
REM
REM
REM
REM
REM
REM ./C.cell (b20cbc046b6831c77cfcea5457e17084)
REM
REM compiler GCC version 9.2.1 20190827 (Red Hat 9.2.1-1)
REM options -cpp -mtune=generic -march=x86-64 -g -O0 -fpre-include=/usr/include/finclude/math-vector-fortran.h
REM seed 1916815129 -395522670 -1783521284 -881013027 -554313017 -1577918114 1944095574 -1048692828 243127163 -1749104734 -1181127025 -633237334 -750123767 517362138 1164345823 93650364 -832040069 -1692330988 464949406 2119836202 436986543 1814659066 936058517 -558493885 1118425596 2080535112 -1290865175 337080154 -1528348542 -1065687355 -148789500 2093976975 227814771
REM
CELL 1.54180   50.00000   50.00000   50.00000   90.00000   90.00000   90.00000
LATT -1
SFAC C  
C      1  0.5326520000000  0.4841840000000  0.5195070000000 1.0
C      1  0.5278790000000  0.5145250000000  0.5135990000000 1.0
C      1  0.5062220000000  0.5311270000000  0.5262630000000 1.0
C      1  0.4779070000000  0.5260240000000  0.5159320000000 1.0
C      1  0.4690020000000  0.4954720000000  0.5128470000000 1.0
C      1  0.4809380000000  0.4715590000000  0.5235260000000 1.0
C      1  0.5078320000000  0.4650270000000  0.5135040000000 1.0
C      1  0.5022130000000  0.5295620000000  0.4740250000000 1.0
C      1  0.4768390000000  0.5221890000000  0.4844810000000 1.0
C      1  0.4706420000000  0.4921160000000  0.4808430000000 1.0
C      1  0.4831960000000  0.4690980000000  0.4664100000000 1.0
C      1  0.5080540000000  0.4624650000000  0.4814580000000 1.0
C      1  0.5291440000000  0.4851100000000  0.4865590000000 1.0
C      1  0.5249400000000  0.5147420000000  0.4826430000000 1.0
C      1  0.5157500000000  0.4379050000000  0.5248340000000 1.0
C      1  0.5620350000000  0.4763380000000  0.5293270000000 1.0
C      1  0.5571840000000  0.5239390000000  0.5216630000000 1.0
C      1  0.5112010000000  0.5611490000000  0.5143730000000 1.0
C      1  0.4598890000000  0.5512480000000  0.5234940000000 1.0
C      1  0.4361070000000  0.4932470000000  0.5130760000000 1.0
C      1  0.4601650000000  0.4487070000000  0.5254510000000 1.0
C      1  0.5123670000000  0.5530600000000  0.4087530000000 1.0
C      1  0.4814730000000  0.5681000000000  0.4317490000000 1.0
C      1  0.4601230000000  0.5183150000000  0.4274440000000 1.0
C      1  0.4363330000000  0.4759720000000  0.4158560000000 1.0
C      1  0.4908970000000  0.4560330000000  0.4073550000000 1.0
C      1  0.5431470000000  0.4776180000000  0.4127310000000 1.0
C      1  0.5571830000000  0.5303780000000  0.4201120000000 1.0
C      1  0.4536280000000  0.4885670000000  0.4340720000000 1.0
C      1  0.4816720000000  0.4748290000000  0.4375860000000 1.0
C      1  0.5121550000000  0.4732890000000  0.4247440000000 1.0
C      1  0.5361740000000  0.4896590000000  0.4425140000000 1.0
C      1  0.5365630000000  0.5218840000000  0.4419960000000 1.0
C      1  0.5098890000000  0.5403940000000  0.4366360000000 1.0
C      1  0.4767930000000  0.5390930000000  0.4443910000000 1.0
C      1  0.5364340000000  0.5418830000000  0.5506100000000 1.0
C      1  0.4910070000000  0.5951420000000  0.5202560000000 1.0
C      1  0.4499060000000  0.5228450000000  0.5502730000000 1.0
C      1  0.4079950000000  0.4656960000000  0.5200260000000 1.0
C      1  0.4843010000000  0.4430890000000  0.5567660000000 1.0
C      1  0.5379680000000  0.4558670000000  0.5525610000000 1.0
C      1  0.5981270000000  0.4927000000000  0.5245750000000 1.0
C      1  0.5481540000000  0.4475210000000  0.5211140000000 1.0
C      1  0.5749760000000  0.5037400000000  0.5081460000000 1.0
C      1  0.5441830000000  0.5553230000000  0.5202430000000 1.0
C      1  0.4790640000000  0.5689850000000  0.5064830000000 1.0
C      1  0.4370740000000  0.5267800000000  0.5186270000000 1.0
C      1  0.4368230000000  0.4596760000000  0.5076970000000 1.0
C      1  0.4855440000000  0.4261270000000  0.5270510000000 1.0
C      1  0.4697930000000  0.5135940000000  0.5685880000000 1.0
C      1  0.4757620000000  0.4867770000000  0.5772130000000 1.0
C      1  0.4939020000000  0.4648650000000  0.5717980000000 1.0
C      1  0.5219760000000  0.4720660000000  0.5695420000000 1.0
C      1  0.5279380000000  0.4995550000000  0.5748890000000 1.0
C      1  0.5196820000000  0.5257730000000  0.5663830000000 1.0
C      1  0.4925160000000  0.5306270000000  0.5723650000000 1.0
C      1  0.4467310000000  0.4588300000000  0.4792190000000 1.0
C      1  0.4905210000000  0.4286340000000  0.4935070000000 1.0
C      1  0.5446990000000  0.4484630000000  0.4887240000000 1.0
C      1  0.5652350000000  0.5026980000000  0.4804920000000 1.0
C      1  0.5311650000000  0.5536900000000  0.4878570000000 1.0
C      1  0.4778660000000  0.5614930000000  0.4773430000000 1.0
C      1  0.4377990000000  0.5139420000000  0.4861180000000 1.0
C      1  0.5498140000000  0.5304770000000  0.4707790000000 1.0
C      1  0.5073940000000  0.5599450000000  0.4643420000000 1.0
C      1  0.4538980000000  0.5391880000000  0.4696400000000 1.0
C      1  0.4429320000000  0.4880080000000  0.4646180000000 1.0
C      1  0.4715140000000  0.4414540000000  0.4773340000000 1.0
C      1  0.5192950000000  0.4311600000000  0.4826190000000 1.0
C      1  0.5528430000000  0.4744040000000  0.4679740000000 1.0
C      1  0.5896940000000  0.4746730000000  0.5442910000000 1.0
C      1  0.5674310000000  0.5406740000000  0.5491960000000 1.0
C      1  0.5163410000000  0.5913320000000  0.5301110000000 1.0
C      1  0.4386980000000  0.5519950000000  0.5494890000000 1.0
C      1  0.4048240000000  0.4920520000000  0.5272760000000 1.0
C      1  0.4560760000000  0.4304120000000  0.5536340000000 1.0
C      1  0.5339130000000  0.4249250000000  0.5504810000000 1.0
END
