TITL C-2622961-1971-722 0.0020567401105935 125000 -753.668880968518 0 0 140 (C1) n - 1
REM
REM in /nfs/bkarasulu/CARBON/AIRSS/Generating-Clusters/AIREBO/with-SteepDescent/Higher-Symm/SD-CG/HFTN-CG
REM
REM
REM
REM
REM
REM ./C.cell (b20cbc046b6831c77cfcea5457e17084)
REM
REM compiler GCC version 9.2.1 20190827 (Red Hat 9.2.1-1)
REM options -cpp -mtune=generic -march=x86-64 -g -O0 -fpre-include=/usr/include/finclude/math-vector-fortran.h
REM seed 2058451079 349941976 1355194907 -2105938456 -1577097263 -1004685349 -85866372 1768795018 166177361 -1373203203 1587657365 1155409208 1250004120 850630310 554882892 1930671467 -550424107 -1241982515 -84971465 1734950321 1769314715 1975848547 1730082567 -176628601 -585501462 -869353196 365474428 -736654401 -1719325717 795752329 -337915918 -1930508514 -1457063523
REM
CELL 1.54180   50.00000   50.00000   50.00000   90.00000   90.00000   90.00000
LATT -1
SFAC C  
C      1  0.5641610000000  0.5308360000000  0.4216320000000 1.0
C      1  0.4569300000000  0.5146330000000  0.5128440000000 1.0
C      1  0.5193490000000  0.4471650000000  0.4960550000000 1.0
C      1  0.4598850000000  0.5514960000000  0.4413750000000 1.0
C      1  0.5056350000000  0.5891250000000  0.5437100000000 1.0
C      1  0.4389890000000  0.4703780000000  0.5253680000000 1.0
C      1  0.4334870000000  0.4993100000000  0.5678180000000 1.0
C      1  0.4742350000000  0.5682910000000  0.5306440000000 1.0
C      1  0.5462850000000  0.4935400000000  0.4948210000000 1.0
C      1  0.5414470000000  0.5689610000000  0.4479530000000 1.0
C      1  0.5052240000000  0.5881090000000  0.4907640000000 1.0
C      1  0.4626410000000  0.4489260000000  0.5692400000000 1.0
C      1  0.4100850000000  0.4909810000000  0.4842140000000 1.0
C      1  0.5885700000000  0.4899050000000  0.4418600000000 1.0
C      1  0.5122450000000  0.5737390000000  0.4311910000000 1.0
C      1  0.4123290000000  0.5552760000000  0.5429090000000 1.0
C      1  0.4392270000000  0.4225960000000  0.5351080000000 1.0
C      1  0.5556890000000  0.4762370000000  0.4670950000000 1.0
C      1  0.5069840000000  0.4787180000000  0.4931980000000 1.0
C      1  0.4942450000000  0.4242350000000  0.4969360000000 1.0
C      1  0.4069570000000  0.4940790000000  0.5286000000000 1.0
C      1  0.5881990000000  0.4730760000000  0.5017750000000 1.0
C      1  0.5112690000000  0.4812670000000  0.4309510000000 1.0
C      1  0.5504520000000  0.4462810000000  0.4823470000000 1.0
C      1  0.4854490000000  0.4163480000000  0.4451020000000 1.0
C      1  0.4224280000000  0.4490860000000  0.5435600000000 1.0
C      1  0.5104890000000  0.4989600000000  0.5479590000000 1.0
C      1  0.4712430000000  0.5600900000000  0.4138190000000 1.0
C      1  0.5828940000000  0.5224320000000  0.5188170000000 1.0
C      1  0.5595100000000  0.5100860000000  0.5657320000000 1.0
C      1  0.5296860000000  0.5084330000000  0.6058380000000 1.0
C      1  0.4567890000000  0.4116080000000  0.4575810000000 1.0
C      1  0.5437420000000  0.5572090000000  0.5462250000000 1.0
C      1  0.5142540000000  0.5155380000000  0.4600570000000 1.0
C      1  0.4842490000000  0.5427090000000  0.4634120000000 1.0
C      1  0.5134700000000  0.4664300000000  0.4607410000000 1.0
C      1  0.4590670000000  0.5941020000000  0.4649610000000 1.0
C      1  0.5351390000000  0.4009650000000  0.4667480000000 1.0
C      1  0.5158700000000  0.4467280000000  0.5710230000000 1.0
C      1  0.5142470000000  0.4080990000000  0.5192090000000 1.0
C      1  0.5324890000000  0.5867770000000  0.5449860000000 1.0
C      1  0.4994510000000  0.5489930000000  0.5184710000000 1.0
C      1  0.5085320000000  0.5116460000000  0.5015370000000 1.0
C      1  0.4541280000000  0.4565180000000  0.4982600000000 1.0
C      1  0.5801610000000  0.5531290000000  0.5617790000000 1.0
C      1  0.4424820000000  0.4037970000000  0.5151680000000 1.0
C      1  0.4330200000000  0.4187740000000  0.4793330000000 1.0
C      1  0.5508380000000  0.5269210000000  0.4956120000000 1.0
C      1  0.4323370000000  0.5118420000000  0.5361940000000 1.0
C      1  0.5939530000000  0.4426170000000  0.5725400000000 1.0
C      1  0.4341680000000  0.4616150000000  0.4304820000000 1.0
C      1  0.4643340000000  0.4534540000000  0.4658560000000 1.0
C      1  0.5041510000000  0.4545980000000  0.4154840000000 1.0
C      1  0.4386990000000  0.4656940000000  0.5674640000000 1.0
C      1  0.4952870000000  0.5089250000000  0.4207190000000 1.0
C      1  0.5223620000000  0.4685840000000  0.5221720000000 1.0
C      1  0.4458770000000  0.5307750000000  0.4236480000000 1.0
C      1  0.5504690000000  0.5417780000000  0.5738860000000 1.0
C      1  0.4657220000000  0.5840410000000  0.4950190000000 1.0
C      1  0.5849020000000  0.5518240000000  0.5342670000000 1.0
C      1  0.4364560000000  0.5476680000000  0.4791350000000 1.0
C      1  0.4245270000000  0.4448790000000  0.4862370000000 1.0
C      1  0.4354610000000  0.4859130000000  0.4423540000000 1.0
C      1  0.5358920000000  0.4968100000000  0.4486180000000 1.0
C      1  0.5363330000000  0.5830760000000  0.4983750000000 1.0
C      1  0.4823950000000  0.5302640000000  0.5394190000000 1.0
C      1  0.4367690000000  0.4923170000000  0.5018900000000 1.0
C      1  0.4920680000000  0.5790120000000  0.4142290000000 1.0
C      1  0.5643900000000  0.4377060000000  0.5296840000000 1.0
C      1  0.5290790000000  0.5118230000000  0.5264040000000 1.0
C      1  0.4068070000000  0.5461910000000  0.4743620000000 1.0
C      1  0.5666980000000  0.5789770000000  0.4891810000000 1.0
C      1  0.5819270000000  0.5201650000000  0.4848990000000 1.0
C      1  0.5170380000000  0.4420820000000  0.5396600000000 1.0
C      1  0.5251160000000  0.5238680000000  0.4188410000000 1.0
C      1  0.5513940000000  0.5046510000000  0.4078620000000 1.0
C      1  0.4661740000000  0.4340140000000  0.5435830000000 1.0
C      1  0.5444480000000  0.4399140000000  0.4323830000000 1.0
C      1  0.5654400000000  0.5107740000000  0.4445700000000 1.0
C      1  0.5241770000000  0.5350990000000  0.4825280000000 1.0
C      1  0.4851520000000  0.5747140000000  0.4696660000000 1.0
C      1  0.4004200000000  0.4709990000000  0.5359330000000 1.0
C      1  0.4836470000000  0.4389580000000  0.4243780000000 1.0
C      1  0.4843060000000  0.4785960000000  0.4602730000000 1.0
C      1  0.5263040000000  0.4816930000000  0.5987340000000 1.0
C      1  0.4639960000000  0.4098430000000  0.4907630000000 1.0
C      1  0.5822060000000  0.4914800000000  0.5227670000000 1.0
C      1  0.4038530000000  0.4641160000000  0.4826140000000 1.0
C      1  0.5402600000000  0.4240210000000  0.5280000000000 1.0
C      1  0.5283200000000  0.5564690000000  0.5171320000000 1.0
C      1  0.4815070000000  0.5313880000000  0.4955310000000 1.0
C      1  0.5279860000000  0.4392850000000  0.4577960000000 1.0
C      1  0.4518350000000  0.5812610000000  0.5526900000000 1.0
C      1  0.5558630000000  0.4137500000000  0.4740720000000 1.0
C      1  0.4277750000000  0.5129090000000  0.4332960000000 1.0
C      1  0.5437410000000  0.5522230000000  0.4213130000000 1.0
C      1  0.4376250000000  0.5577680000000  0.5584070000000 1.0
C      1  0.4285260000000  0.5407020000000  0.5234930000000 1.0
C      1  0.4721130000000  0.5284930000000  0.4053390000000 1.0
C      1  0.4972540000000  0.4717610000000  0.5575000000000 1.0
C      1  0.4450180000000  0.5189860000000  0.5931640000000 1.0
C      1  0.5068450000000  0.4165250000000  0.4662750000000 1.0
C      1  0.4544190000000  0.4403490000000  0.4395030000000 1.0
C      1  0.5510950000000  0.4859410000000  0.5276120000000 1.0
C      1  0.4858220000000  0.5010110000000  0.5245110000000 1.0
C      1  0.4937820000000  0.5535280000000  0.5837210000000 1.0
C      1  0.4505130000000  0.5581930000000  0.5083530000000 1.0
C      1  0.5687510000000  0.5675740000000  0.4633440000000 1.0
C      1  0.5534250000000  0.4807270000000  0.5592260000000 1.0
C      1  0.5618020000000  0.5552830000000  0.5108870000000 1.0
C      1  0.4836630000000  0.5009420000000  0.5809930000000 1.0
C      1  0.4814340000000  0.4485960000000  0.5169180000000 1.0
C      1  0.4173040000000  0.5154140000000  0.4653260000000 1.0
C      1  0.4510950000000  0.5205200000000  0.4648210000000 1.0
C      1  0.4575750000000  0.5332840000000  0.5584580000000 1.0
C      1  0.4911940000000  0.5687980000000  0.5601250000000 1.0
C      1  0.5233230000000  0.5639060000000  0.4745570000000 1.0
C      1  0.5546480000000  0.5262360000000  0.5373970000000 1.0
C      1  0.4701020000000  0.4735940000000  0.5371120000000 1.0
C      1  0.5726460000000  0.4496840000000  0.5052340000000 1.0
C      1  0.5859170000000  0.4898880000000  0.4745870000000 1.0
C      1  0.5430710000000  0.4590400000000  0.5806900000000 1.0
C      1  0.4637510000000  0.4998450000000  0.5577920000000 1.0
C      1  0.5681220000000  0.4825410000000  0.4165110000000 1.0
C      1  0.4976250000000  0.4756840000000  0.5912830000000 1.0
C      1  0.5069650000000  0.5183230000000  0.5710260000000 1.0
C      1  0.5611950000000  0.4614770000000  0.4369550000000 1.0
C      1  0.4853030000000  0.5012010000000  0.3891440000000 1.0
C      1  0.5233140000000  0.5375140000000  0.5894050000000 1.0
C      1  0.5281130000000  0.4407470000000  0.4094630000000 1.0
C      1  0.4850900000000  0.4468980000000  0.5860590000000 1.0
C      1  0.4474870000000  0.4892260000000  0.4709560000000 1.0
C      1  0.5822040000000  0.5436260000000  0.4626850000000 1.0
C      1  0.4701300000000  0.5374570000000  0.5883870000000 1.0
C      1  0.4738630000000  0.4823420000000  0.4912810000000 1.0
C      1  0.4884860000000  0.5964600000000  0.5170400000000 1.0
C      1  0.5107920000000  0.5440280000000  0.4421940000000 1.0
C      1  0.4809190000000  0.5110320000000  0.4514830000000 1.0
C      1  0.4932690000000  0.4191840000000  0.5407670000000 1.0
C      1  0.5682420000000  0.4504770000000  0.5587710000000 1.0
END
