TITL C-2622953-3516-737 0.00306795066116266 125000 -837.396267352956 0 0 156 (C1) n - 1
REM
REM in /nfs/bkarasulu/CARBON/AIRSS/Generating-Clusters/AIREBO/with-SteepDescent/Higher-Symm/SD-CG/HFTN-CG
REM
REM
REM
REM
REM
REM ./C.cell (b20cbc046b6831c77cfcea5457e17084)
REM
REM compiler GCC version 9.2.1 20190827 (Red Hat 9.2.1-1)
REM options -cpp -mtune=generic -march=x86-64 -g -O0 -fpre-include=/usr/include/finclude/math-vector-fortran.h
REM seed -1785643425 1331983248 112090281 -847674595 -1043964050 -1117551676 748297717 224645778 1496444970 -236553834 -877963843 1427923943 -1039544731 16076759 -518328551 388510083 -2122304328 -353070360 -789449556 1694196779 817224523 -312045838 -330142983 -1335256447 2029455835 88238795 2024880322 -1677017409 -1438099709 -1792831604 -549885020 -1613339299 -903366464
REM
CELL 1.54180   50.00000   50.00000   50.00000   90.00000   90.00000   90.00000
LATT -1
SFAC C  
C      1  0.5244700000000  0.4452910000000  0.5276280000000 1.0
C      1  0.4759550000000  0.5540470000000  0.4751760000000 1.0
C      1  0.4485660000000  0.4991610000000  0.4866660000000 1.0
C      1  0.5573980000000  0.4988400000000  0.5033090000000 1.0
C      1  0.4371350000000  0.5289140000000  0.5097440000000 1.0
C      1  0.5703050000000  0.4678430000000  0.4979070000000 1.0
C      1  0.4648790000000  0.5856740000000  0.4694110000000 1.0
C      1  0.5325720000000  0.4144650000000  0.5328150000000 1.0
C      1  0.5759430000000  0.5203190000000  0.5508590000000 1.0
C      1  0.4251370000000  0.4763740000000  0.4430650000000 1.0
C      1  0.5910590000000  0.4531070000000  0.4768790000000 1.0
C      1  0.4161820000000  0.5499230000000  0.5196270000000 1.0
C      1  0.5474570000000  0.4735890000000  0.5554190000000 1.0
C      1  0.4520980000000  0.5296050000000  0.4353130000000 1.0
C      1  0.4149500000000  0.5487570000000  0.5496190000000 1.0
C      1  0.5964720000000  0.4674180000000  0.4509230000000 1.0
C      1  0.4723180000000  0.4865930000000  0.4505700000000 1.0
C      1  0.5250680000000  0.5093350000000  0.5475390000000 1.0
C      1  0.4700690000000  0.4069190000000  0.5496010000000 1.0
C      1  0.5296970000000  0.5896350000000  0.4519330000000 1.0
C      1  0.4941700000000  0.5608470000000  0.4362470000000 1.0
C      1  0.4873470000000  0.4326980000000  0.5628240000000 1.0
C      1  0.5422270000000  0.4764190000000  0.4710020000000 1.0
C      1  0.4659180000000  0.5335890000000  0.5368520000000 1.0
C      1  0.4513990000000  0.4713410000000  0.4727900000000 1.0
C      1  0.5464010000000  0.5233720000000  0.5241430000000 1.0
C      1  0.5748250000000  0.5655640000000  0.4611210000000 1.0
C      1  0.4144050000000  0.4409570000000  0.5329830000000 1.0
C      1  0.5203400000000  0.5950910000000  0.5133940000000 1.0
C      1  0.4834650000000  0.4117280000000  0.4908950000000 1.0
C      1  0.4662600000000  0.5272650000000  0.5702590000000 1.0
C      1  0.5269580000000  0.4713480000000  0.4439010000000 1.0
C      1  0.5443790000000  0.5493540000000  0.5448540000000 1.0
C      1  0.4558280000000  0.4434170000000  0.4563620000000 1.0
C      1  0.5085870000000  0.5163770000000  0.5197420000000 1.0
C      1  0.4901220000000  0.4785740000000  0.4759270000000 1.0
C      1  0.5125500000000  0.5879070000000  0.5689750000000 1.0
C      1  0.4981780000000  0.4087670000000  0.4442080000000 1.0
C      1  0.4773210000000  0.5572430000000  0.5707350000000 1.0
C      1  0.5316170000000  0.4423880000000  0.4310380000000 1.0
C      1  0.5068740000000  0.5472530000000  0.4639490000000 1.0
C      1  0.4956200000000  0.4491060000000  0.5358980000000 1.0
C      1  0.5223880000000  0.5430550000000  0.5102560000000 1.0
C      1  0.4726480000000  0.4560200000000  0.4929030000000 1.0
C      1  0.5417860000000  0.5802720000000  0.4808840000000 1.0
C      1  0.4585650000000  0.4191930000000  0.5212130000000 1.0
C      1  0.4307590000000  0.4260940000000  0.5097830000000 1.0
C      1  0.5701260000000  0.5763350000000  0.4931050000000 1.0
C      1  0.4555740000000  0.5782180000000  0.5254010000000 1.0
C      1  0.5451930000000  0.4189450000000  0.4758830000000 1.0
C      1  0.4824060000000  0.4957160000000  0.6028350000000 1.0
C      1  0.5100010000000  0.4964100000000  0.3924540000000 1.0
C      1  0.4543140000000  0.4312830000000  0.5674500000000 1.0
C      1  0.5273500000000  0.5642120000000  0.4341630000000 1.0
C      1  0.5703130000000  0.4272690000000  0.5145450000000 1.0
C      1  0.4360070000000  0.5768770000000  0.4816510000000 1.0
C      1  0.5691290000000  0.5107550000000  0.4753170000000 1.0
C      1  0.4360240000000  0.4960050000000  0.5165230000000 1.0
C      1  0.4319200000000  0.5035650000000  0.4278170000000 1.0
C      1  0.5658160000000  0.4916370000000  0.5644580000000 1.0
C      1  0.4759020000000  0.4619880000000  0.4273710000000 1.0
C      1  0.5288540000000  0.5268240000000  0.5745100000000 1.0
C      1  0.4053590000000  0.5241800000000  0.5644280000000 1.0
C      1  0.6101290000000  0.4925940000000  0.4525090000000 1.0
C      1  0.5488320000000  0.5165520000000  0.4291840000000 1.0
C      1  0.4466670000000  0.4818310000000  0.5660180000000 1.0
C      1  0.6098220000000  0.5041420000000  0.5136690000000 1.0
C      1  0.3934010000000  0.5071700000000  0.4805270000000 1.0
C      1  0.5166690000000  0.6028330000000  0.4804860000000 1.0
C      1  0.4866660000000  0.3996250000000  0.5208360000000 1.0
C      1  0.4427530000000  0.4544290000000  0.4278570000000 1.0
C      1  0.5586380000000  0.5366940000000  0.5723090000000 1.0
C      1  0.4352740000000  0.4644280000000  0.5199430000000 1.0
C      1  0.5590060000000  0.5412110000000  0.4778500000000 1.0
C      1  0.4963610000000  0.4884200000000  0.5291560000000 1.0
C      1  0.5035650000000  0.5065000000000  0.4656370000000 1.0
C      1  0.4807550000000  0.5187790000000  0.4435790000000 1.0
C      1  0.5167750000000  0.4774550000000  0.5542770000000 1.0
C      1  0.4814760000000  0.4993890000000  0.5577130000000 1.0
C      1  0.5130580000000  0.4972390000000  0.4343190000000 1.0
C      1  0.4859400000000  0.5372240000000  0.4154790000000 1.0
C      1  0.5054400000000  0.4559730000000  0.5781390000000 1.0
C      1  0.6017650000000  0.4733510000000  0.5021200000000 1.0
C      1  0.4011970000000  0.5371730000000  0.4945070000000 1.0
C      1  0.5198410000000  0.4368650000000  0.4624560000000 1.0
C      1  0.4836990000000  0.5629520000000  0.5381970000000 1.0
C      1  0.4888900000000  0.5892610000000  0.4894090000000 1.0
C      1  0.5180190000000  0.3985780000000  0.5150760000000 1.0
C      1  0.4362840000000  0.5428850000000  0.5742190000000 1.0
C      1  0.5733610000000  0.4709150000000  0.4360180000000 1.0
C      1  0.5478960000000  0.5933800000000  0.5218160000000 1.0
C      1  0.4537650000000  0.4118560000000  0.4804780000000 1.0
C      1  0.4805080000000  0.4639530000000  0.5998380000000 1.0
C      1  0.5068330000000  0.5278920000000  0.3971850000000 1.0
C      1  0.5029450000000  0.5665430000000  0.5105690000000 1.0
C      1  0.5009960000000  0.4406970000000  0.4885110000000 1.0
C      1  0.4713980000000  0.4675080000000  0.5513290000000 1.0
C      1  0.5197050000000  0.5303920000000  0.4379840000000 1.0
C      1  0.5864050000000  0.5429050000000  0.5323960000000 1.0
C      1  0.4123830000000  0.4611380000000  0.4696830000000 1.0
C      1  0.4314620000000  0.4374950000000  0.4793350000000 1.0
C      1  0.5661400000000  0.5661050000000  0.5247850000000 1.0
C      1  0.5809170000000  0.4959140000000  0.5277040000000 1.0
C      1  0.4235800000000  0.4993780000000  0.4665600000000 1.0
C      1  0.5301210000000  0.5513310000000  0.4826470000000 1.0
C      1  0.4645550000000  0.4513030000000  0.5222200000000 1.0
C      1  0.4869410000000  0.4904380000000  0.4135720000000 1.0
C      1  0.5045100000000  0.5065120000000  0.5817100000000 1.0
C      1  0.4308110000000  0.4410510000000  0.4039100000000 1.0
C      1  0.5722360000000  0.5465670000000  0.5969880000000 1.0
C      1  0.6011200000000  0.5329840000000  0.5109020000000 1.0
C      1  0.3979430000000  0.4773570000000  0.4879150000000 1.0
C      1  0.4350580000000  0.4516630000000  0.5577780000000 1.0
C      1  0.5552330000000  0.5485190000000  0.4388360000000 1.0
C      1  0.4546210000000  0.4820520000000  0.5949510000000 1.0
C      1  0.5351150000000  0.5138340000000  0.4017240000000 1.0
C      1  0.5938100000000  0.5158510000000  0.4553270000000 1.0
C      1  0.4139530000000  0.5004190000000  0.5537020000000 1.0
C      1  0.5308770000000  0.4338140000000  0.5814790000000 1.0
C      1  0.4646160000000  0.5632720000000  0.4100040000000 1.0
C      1  0.5263930000000  0.4970780000000  0.4894350000000 1.0
C      1  0.4740580000000  0.5006190000000  0.5064000000000 1.0
C      1  0.4929670000000  0.5228280000000  0.4923260000000 1.0
C      1  0.5082860000000  0.4713220000000  0.5022910000000 1.0
C      1  0.4667170000000  0.5396950000000  0.5037230000000 1.0
C      1  0.5404390000000  0.4622140000000  0.5028200000000 1.0
C      1  0.4603630000000  0.5066020000000  0.4116010000000 1.0
C      1  0.5188060000000  0.4803170000000  0.5977660000000 1.0
C      1  0.4774610000000  0.5965820000000  0.5175020000000 1.0
C      1  0.5251490000000  0.3993710000000  0.4871520000000 1.0
C      1  0.4449770000000  0.5076070000000  0.5438680000000 1.0
C      1  0.5585200000000  0.4953620000000  0.4479270000000 1.0
C      1  0.4222190000000  0.5324440000000  0.4706490000000 1.0
C      1  0.5823400000000  0.4681990000000  0.5366560000000 1.0
C      1  0.5568290000000  0.4457720000000  0.5382580000000 1.0
C      1  0.4453360000000  0.5523660000000  0.4591650000000 1.0
C      1  0.5018040000000  0.3963170000000  0.4689690000000 1.0
C      1  0.4986810000000  0.5934510000000  0.5397650000000 1.0
C      1  0.4030310000000  0.4738270000000  0.5146200000000 1.0
C      1  0.5917170000000  0.5413480000000  0.4871570000000 1.0
C      1  0.5089890000000  0.4244690000000  0.4206890000000 1.0
C      1  0.4987690000000  0.5667780000000  0.5855980000000 1.0
C      1  0.4878660000000  0.4397610000000  0.4508970000000 1.0
C      1  0.5159520000000  0.5597620000000  0.5502000000000 1.0
C      1  0.5148150000000  0.5461380000000  0.5959700000000 1.0
C      1  0.4903030000000  0.4395960000000  0.4065370000000 1.0
C      1  0.5881100000000  0.5405640000000  0.4422880000000 1.0
C      1  0.4081380000000  0.4706960000000  0.5482420000000 1.0
C      1  0.6328590000000  0.4808460000000  0.5038890000000 1.0
C      1  0.3699360000000  0.5317720000000  0.4822730000000 1.0
C      1  0.5594720000000  0.4528820000000  0.4218950000000 1.0
C      1  0.4332540000000  0.5566570000000  0.5978890000000 1.0
C      1  0.5689970000000  0.4293580000000  0.4871620000000 1.0
C      1  0.4337850000000  0.5732150000000  0.5096630000000 1.0
C      1  0.4641140000000  0.5729470000000  0.4396660000000 1.0
C      1  0.5448560000000  0.4233770000000  0.5607120000000 1.0
END
