TITL C-2622956-4641-97 0.00163331435863606 125000 -910.390963443815 0 0 156 (C1) n - 1
REM
REM in /nfs/bkarasulu/CARBON/AIRSS/Generating-Clusters/AIREBO/with-SteepDescent/Higher-Symm/SD-CG/HFTN-CG
REM
REM
REM
REM
REM
REM ./C.cell (b20cbc046b6831c77cfcea5457e17084)
REM
REM compiler GCC version 9.2.1 20190827 (Red Hat 9.2.1-1)
REM options -cpp -mtune=generic -march=x86-64 -g -O0 -fpre-include=/usr/include/finclude/math-vector-fortran.h
REM seed 1484209061 1001526672 1603799351 -738122185 1970219402 200608899 -333163162 538550676 -1595489463 -312252966 459651904 -1238669331 -1753892175 209353383 1213514584 1703487936 -1154155418 2109887068 2063379991 1833599473 -817434818 1229694938 -1715850051 976349754 -1998831212 -904675199 1831519565 284908956 1632357906 -64660568 525873826 -22065549 -981018178
REM
CELL 1.54180   50.00000   50.00000   50.00000   90.00000   90.00000   90.00000
LATT -1
SFAC C  
C      1  0.5000790000000  0.5326230000000  0.5312240000000 1.0
C      1  0.4970700000000  0.5418440000000  0.4775580000000 1.0
C      1  0.5047580000000  0.4986550000000  0.4622120000000 1.0
C      1  0.4949620000000  0.4615320000000  0.4853830000000 1.0
C      1  0.4916820000000  0.4791320000000  0.5416200000000 1.0
C      1  0.4524080000000  0.4175220000000  0.4360410000000 1.0
C      1  0.4541960000000  0.4239490000000  0.5822420000000 1.0
C      1  0.4582690000000  0.5335230000000  0.5997760000000 1.0
C      1  0.4576050000000  0.6015840000000  0.5036500000000 1.0
C      1  0.4610800000000  0.5316860000000  0.4048910000000 1.0
C      1  0.4564900000000  0.5940100000000  0.4761020000000 1.0
C      1  0.4558860000000  0.5043450000000  0.4025560000000 1.0
C      1  0.4495700000000  0.4057050000000  0.4609130000000 1.0
C      1  0.4544740000000  0.4537430000000  0.5869340000000 1.0
C      1  0.4519570000000  0.5563560000000  0.5852800000000 1.0
C      1  0.5586490000000  0.4831350000000  0.4196850000000 1.0
C      1  0.5541730000000  0.4248450000000  0.4939840000000 1.0
C      1  0.5594520000000  0.4562950000000  0.5863260000000 1.0
C      1  0.5614460000000  0.5683460000000  0.5664940000000 1.0
C      1  0.5601850000000  0.5742920000000  0.4609510000000 1.0
C      1  0.5015490000000  0.4605690000000  0.5839370000000 1.0
C      1  0.5008870000000  0.5695940000000  0.5678900000000 1.0
C      1  0.5006350000000  0.5823850000000  0.4569770000000 1.0
C      1  0.5024760000000  0.4775270000000  0.4037630000000 1.0
C      1  0.5020820000000  0.4076810000000  0.4850540000000 1.0
C      1  0.5247420000000  0.4705020000000  0.4843280000000 1.0
C      1  0.5185660000000  0.4825020000000  0.5266220000000 1.0
C      1  0.5255750000000  0.5145010000000  0.5264530000000 1.0
C      1  0.5247620000000  0.5328760000000  0.4871250000000 1.0
C      1  0.5362630000000  0.5109950000000  0.4656580000000 1.0
C      1  0.4480520000000  0.4511240000000  0.4572760000000 1.0
C      1  0.4420130000000  0.4248850000000  0.5254130000000 1.0
C      1  0.4496070000000  0.5116760000000  0.5662390000000 1.0
C      1  0.4342490000000  0.5701400000000  0.5241450000000 1.0
C      1  0.4526360000000  0.5265810000000  0.4435560000000 1.0
C      1  0.5483300000000  0.5552850000000  0.4456760000000 1.0
C      1  0.5389670000000  0.4733570000000  0.4397960000000 1.0
C      1  0.5347750000000  0.4421110000000  0.5106580000000 1.0
C      1  0.5448370000000  0.4893850000000  0.5569460000000 1.0
C      1  0.5458750000000  0.5488460000000  0.5293130000000 1.0
C      1  0.4214320000000  0.4690230000000  0.4214120000000 1.0
C      1  0.4104130000000  0.4087280000000  0.4966550000000 1.0
C      1  0.4123290000000  0.4814610000000  0.5721280000000 1.0
C      1  0.4070940000000  0.5601310000000  0.5605620000000 1.0
C      1  0.4223360000000  0.5647930000000  0.4448410000000 1.0
C      1  0.4783330000000  0.4361770000000  0.5131840000000 1.0
C      1  0.4954100000000  0.4964490000000  0.5677620000000 1.0
C      1  0.4785430000000  0.5589020000000  0.5297560000000 1.0
C      1  0.4967550000000  0.5442040000000  0.4460170000000 1.0
C      1  0.4821290000000  0.4691740000000  0.4481420000000 1.0
C      1  0.4759310000000  0.4697870000000  0.5930510000000 1.0
C      1  0.4675300000000  0.5758890000000  0.5657980000000 1.0
C      1  0.4720860000000  0.5791620000000  0.4521070000000 1.0
C      1  0.4697240000000  0.4746820000000  0.4070040000000 1.0
C      1  0.4704590000000  0.3958030000000  0.4802960000000 1.0
C      1  0.4532060000000  0.5621650000000  0.4993170000000 1.0
C      1  0.4732640000000  0.5001240000000  0.4378760000000 1.0
C      1  0.4657520000000  0.4352340000000  0.4815860000000 1.0
C      1  0.4525180000000  0.4372010000000  0.5508160000000 1.0
C      1  0.4681510000000  0.5376140000000  0.5544330000000 1.0
C      1  0.5789450000000  0.4608750000000  0.4646970000000 1.0
C      1  0.5770890000000  0.4584220000000  0.5265270000000 1.0
C      1  0.5851970000000  0.5115710000000  0.5447030000000 1.0
C      1  0.5810220000000  0.5450860000000  0.5015740000000 1.0
C      1  0.5870660000000  0.5197320000000  0.4501050000000 1.0
C      1  0.5951490000000  0.5071720000000  0.4736950000000 1.0
C      1  0.5918720000000  0.4791070000000  0.4813080000000 1.0
C      1  0.5903670000000  0.4772960000000  0.5103380000000 1.0
C      1  0.5953490000000  0.5037820000000  0.5204510000000 1.0
C      1  0.5955710000000  0.5222160000000  0.4984320000000 1.0
C      1  0.5516810000000  0.4319050000000  0.4672880000000 1.0
C      1  0.5476230000000  0.4448050000000  0.5636180000000 1.0
C      1  0.5540960000000  0.5412900000000  0.5721680000000 1.0
C      1  0.5504240000000  0.5761630000000  0.4869520000000 1.0
C      1  0.5571130000000  0.5110260000000  0.4185900000000 1.0
C      1  0.5479920000000  0.5482170000000  0.4985190000000 1.0
C      1  0.5549590000000  0.5250600000000  0.4468890000000 1.0
C      1  0.5471590000000  0.4628050000000  0.4660860000000 1.0
C      1  0.5452830000000  0.4632760000000  0.5351680000000 1.0
C      1  0.5527120000000  0.5215820000000  0.5456800000000 1.0
C      1  0.5235250000000  0.4854120000000  0.5788500000000 1.0
C      1  0.5178880000000  0.5602410000000  0.5399550000000 1.0
C      1  0.5196470000000  0.5632760000000  0.4362550000000 1.0
C      1  0.5107020000000  0.4784540000000  0.4358370000000 1.0
C      1  0.5076890000000  0.4363440000000  0.5010320000000 1.0
C      1  0.4235650000000  0.4902440000000  0.4792310000000 1.0
C      1  0.4198120000000  0.4753580000000  0.5028390000000 1.0
C      1  0.4199590000000  0.4936550000000  0.5244110000000 1.0
C      1  0.4205200000000  0.5195920000000  0.5133190000000 1.0
C      1  0.4228090000000  0.5175540000000  0.4853190000000 1.0
C      1  0.5148000000000  0.4475890000000  0.4107370000000 1.0
C      1  0.5124170000000  0.3988470000000  0.5162480000000 1.0
C      1  0.5145620000000  0.5064210000000  0.6230870000000 1.0
C      1  0.5086210000000  0.5972590000000  0.5510440000000 1.0
C      1  0.5087200000000  0.5681120000000  0.3981070000000 1.0
C      1  0.5098590000000  0.5424840000000  0.5863540000000 1.0
C      1  0.5053290000000  0.5835470000000  0.4851870000000 1.0
C      1  0.5122980000000  0.5080430000000  0.4090210000000 1.0
C      1  0.5101920000000  0.4156960000000  0.4537170000000 1.0
C      1  0.5015610000000  0.4405490000000  0.5634240000000 1.0
C      1  0.4857360000000  0.6098050000000  0.5414870000000 1.0
C      1  0.4850010000000  0.5700070000000  0.4053500000000 1.0
C      1  0.4932120000000  0.4320800000000  0.4188160000000 1.0
C      1  0.4877950000000  0.3901990000000  0.5271050000000 1.0
C      1  0.4941640000000  0.5166910000000  0.6125400000000 1.0
C      1  0.4993000000000  0.5166260000000  0.4345570000000 1.0
C      1  0.4902020000000  0.4395340000000  0.4598960000000 1.0
C      1  0.4806980000000  0.4478850000000  0.5420000000000 1.0
C      1  0.4954750000000  0.5264710000000  0.5638800000000 1.0
C      1  0.4846670000000  0.5632600000000  0.4980760000000 1.0
C      1  0.5397710000000  0.4379710000000  0.4210520000000 1.0
C      1  0.5323590000000  0.4095670000000  0.5337730000000 1.0
C      1  0.5378730000000  0.5018960000000  0.6027410000000 1.0
C      1  0.5311520000000  0.5893280000000  0.5298590000000 1.0
C      1  0.5354810000000  0.5533240000000  0.4078560000000 1.0
C      1  0.5861990000000  0.5376160000000  0.4254300000000 1.0
C      1  0.5851240000000  0.4479570000000  0.4397570000000 1.0
C      1  0.5806350000000  0.4300780000000  0.5321280000000 1.0
C      1  0.5744920000000  0.4975720000000  0.5687840000000 1.0
C      1  0.5743150000000  0.5684030000000  0.5206150000000 1.0
C      1  0.4707850000000  0.5214070000000  0.5180660000000 1.0
C      1  0.4720950000000  0.5242320000000  0.4873440000000 1.0
C      1  0.4756020000000  0.4952940000000  0.4773030000000 1.0
C      1  0.4655600000000  0.4714160000000  0.4993410000000 1.0
C      1  0.4677580000000  0.4900810000000  0.5256760000000 1.0
C      1  0.4652280000000  0.4056590000000  0.5115600000000 1.0
C      1  0.4715030000000  0.5034540000000  0.5909230000000 1.0
C      1  0.4616820000000  0.5874520000000  0.5343340000000 1.0
C      1  0.4682790000000  0.5535460000000  0.4299550000000 1.0
C      1  0.4648020000000  0.4481170000000  0.4278200000000 1.0
C      1  0.4291810000000  0.5452220000000  0.4299000000000 1.0
C      1  0.4241830000000  0.4477690000000  0.4353890000000 1.0
C      1  0.4147850000000  0.4094230000000  0.5223570000000 1.0
C      1  0.4192990000000  0.5057680000000  0.5745400000000 1.0
C      1  0.4075200000000  0.5750510000000  0.5386030000000 1.0
C      1  0.5255400000000  0.4275910000000  0.5557810000000 1.0
C      1  0.5361770000000  0.5333160000000  0.5915740000000 1.0
C      1  0.5290200000000  0.5899330000000  0.4986450000000 1.0
C      1  0.5360440000000  0.5219960000000  0.4037640000000 1.0
C      1  0.5364400000000  0.4219540000000  0.4456580000000 1.0
C      1  0.4358420000000  0.5478450000000  0.5572330000000 1.0
C      1  0.4390000000000  0.5661380000000  0.4707920000000 1.0
C      1  0.4414820000000  0.4907820000000  0.4302100000000 1.0
C      1  0.4332850000000  0.4252880000000  0.4834580000000 1.0
C      1  0.4355640000000  0.4625100000000  0.5621350000000 1.0
C      1  0.5593780000000  0.4129690000000  0.5219540000000 1.0
C      1  0.5629030000000  0.4839410000000  0.5921520000000 1.0
C      1  0.5601390000000  0.5836490000000  0.5421140000000 1.0
C      1  0.5679400000000  0.5522140000000  0.4110380000000 1.0
C      1  0.5655120000000  0.4526360000000  0.4186850000000 1.0
C      1  0.4455960000000  0.5331080000000  0.4733990000000 1.0
C      1  0.4474910000000  0.4827240000000  0.4627280000000 1.0
C      1  0.4383110000000  0.4515310000000  0.5046210000000 1.0
C      1  0.4421500000000  0.4886080000000  0.5446640000000 1.0
C      1  0.4412690000000  0.5368900000000  0.5254900000000 1.0
C      1  0.5275500000000  0.4989790000000  0.4962620000000 1.0
END
