TITL C-2622953-3516-11 0.000171899124786279 125000 -159.176934801693 0 0 32 (C1) n - 1
REM
REM in /nfs/bkarasulu/CARBON/AIRSS/Generating-Clusters/AIREBO/with-SteepDescent/Higher-Symm/SD-CG/HFTN-CG
REM
REM
REM
REM
REM
REM ./C.cell (b20cbc046b6831c77cfcea5457e17084)
REM
REM compiler GCC version 9.2.1 20190827 (Red Hat 9.2.1-1)
REM options -cpp -mtune=generic -march=x86-64 -g -O0 -fpre-include=/usr/include/finclude/math-vector-fortran.h
REM seed -1040939542 1144293525 -1743794592 588550668 -1377579320 -591179676 995096222 -189065815 31626687 -846238761 598487820 1194029361 -1049849751 -558979278 965035496 1215732493 -1824416523 -1163883473 952225359 -1828553165 1277254059 1624691618 17955465 -64125808 -486485464 -338123459 1796018254 -1791897169 907895924 -1972186217 728744311 -714575105 -871592054
REM
CELL 1.54180   50.00000   50.00000   50.00000   90.00000   90.00000   90.00000
LATT -1
SFAC C  
C      1  0.5200240000000  0.5135390000000  0.5322900000000 1.0
C      1  0.5279260000000  0.4752690000000  0.5243480000000 1.0
C      1  0.4994750000000  0.4758410000000  0.5352240000000 1.0
C      1  0.4666740000000  0.4923280000000  0.5336900000000 1.0
C      1  0.4923900000000  0.5304830000000  0.5287710000000 1.0
C      1  0.5144270000000  0.5135020000000  0.4694840000000 1.0
C      1  0.5208770000000  0.4742930000000  0.4732510000000 1.0
C      1  0.4901320000000  0.4631720000000  0.4702700000000 1.0
C      1  0.4698110000000  0.4972230000000  0.4660070000000 1.0
C      1  0.4945310000000  0.5330770000000  0.4780250000000 1.0
C      1  0.4504080000000  0.5422330000000  0.5001660000000 1.0
C      1  0.5141840000000  0.4437380000000  0.4985930000000 1.0
C      1  0.4443640000000  0.4702080000000  0.4988950000000 1.0
C      1  0.5656760000000  0.4960690000000  0.4987820000000 1.0
C      1  0.5244170000000  0.5536990000000  0.4989710000000 1.0
C      1  0.4295610000000  0.4965300000000  0.4952770000000 1.0
C      1  0.4712310000000  0.5652480000000  0.4975320000000 1.0
C      1  0.5550560000000  0.5474870000000  0.4997790000000 1.0
C      1  0.4842140000000  0.4329460000000  0.4982510000000 1.0
C      1  0.5656190000000  0.4650170000000  0.5042400000000 1.0
C      1  0.5700240000000  0.5239810000000  0.4964960000000 1.0
C      1  0.4291020000000  0.5238470000000  0.5001700000000 1.0
C      1  0.4977800000000  0.5621160000000  0.5052310000000 1.0
C      1  0.4608960000000  0.4474310000000  0.4921600000000 1.0
C      1  0.5429070000000  0.4513970000000  0.4960620000000 1.0
C      1  0.5339380000000  0.4903550000000  0.4960310000000 1.0
C      1  0.4691640000000  0.4934540000000  0.4997920000000 1.0
C      1  0.5251360000000  0.5212230000000  0.5008300000000 1.0
C      1  0.4772570000000  0.5261410000000  0.5030790000000 1.0
C      1  0.4944730000000  0.4711010000000  0.5030500000000 1.0
C      1  0.4999100000000  0.4906590000000  0.4525000000000 1.0
C      1  0.4927060000000  0.5048430000000  0.5506640000000 1.0
END
