TITL C-2622957-9142-375 -2.40214027012357e-06 125000 -88.1536592486944 0 0 16 (C1) n - 1
REM
REM in /nfs/bkarasulu/CARBON/AIRSS/Generating-Clusters/AIREBO/with-SteepDescent/Higher-Symm/SD-CG/HFTN-CG
REM
REM
REM
REM
REM
REM ./C.cell (b20cbc046b6831c77cfcea5457e17084)
REM
REM compiler GCC version 9.2.1 20190827 (Red Hat 9.2.1-1)
REM options -cpp -mtune=generic -march=x86-64 -g -O0 -fpre-include=/usr/include/finclude/math-vector-fortran.h
REM seed 166226365 528108375 -1754386946 1246693112 1876736147 -1242145007 1736703773 -758477599 -921562886 -1967593210 1728122270 -436872742 539954659 1491190637 354781450 -1238714649 -48446680 1624562521 1084495996 -1036418159 1423729690 -1656060502 1734955109 -1303606811 -899724854 -1300098262 -374610840 -1519992187 -1070583256 1814720707 1968725269 -140715565 -1901191892
REM
CELL 1.54180   50.00000   50.00000   50.00000   90.00000   90.00000   90.00000
LATT -1
SFAC C  
C      1  0.4987050000000  0.5287290000000  0.5146340000000 1.0
C      1  0.4761430000000  0.4872330000000  0.5005830000000 1.0
C      1  0.5269470000000  0.4838900000000  0.5061760000000 1.0
C      1  0.4988370000000  0.4723820000000  0.4974280000000 1.0
C      1  0.4747610000000  0.5152910000000  0.5096020000000 1.0
C      1  0.5203150000000  0.5122380000000  0.5219890000000 1.0
C      1  0.4485380000000  0.4790980000000  0.4955710000000 1.0
C      1  0.5437640000000  0.4570430000000  0.5063610000000 1.0
C      1  0.5068330000000  0.5537590000000  0.5039500000000 1.0
C      1  0.4467510000000  0.5227510000000  0.5101520000000 1.0
C      1  0.5492520000000  0.5360750000000  0.4881130000000 1.0
C      1  0.5022120000000  0.4446960000000  0.4907950000000 1.0
C      1  0.4310400000000  0.5007030000000  0.5015250000000 1.0
C      1  0.5282430000000  0.4358400000000  0.4966360000000 1.0
C      1  0.5297880000000  0.5560190000000  0.4883340000000 1.0
C      1  0.5438380000000  0.5122800000000  0.5012230000000 1.0
END
