TITL C-2622953-3516-494 0.00092079468334359 125000 -727.034525877221 0 0 143 (C1) n - 1
REM
REM in /nfs/bkarasulu/CARBON/AIRSS/Generating-Clusters/AIREBO/with-SteepDescent/Higher-Symm/SD-CG/HFTN-CG
REM
REM
REM
REM
REM
REM ./C.cell (b20cbc046b6831c77cfcea5457e17084)
REM
REM compiler GCC version 9.2.1 20190827 (Red Hat 9.2.1-1)
REM options -cpp -mtune=generic -march=x86-64 -g -O0 -fpre-include=/usr/include/finclude/math-vector-fortran.h
REM seed 125312691 -871134483 951331565 -1336029480 -2111840813 -432080626 1945006754 -785698741 371169911 -1307879725 1132093091 1599306920 -1784942595 -223467973 1284149539 -280313204 195989273 1385438399 -1988010384 609972874 854488798 895472100 1824070318 -43583672 1266579855 727168234 -2028583152 -520476648 1669298775 1080697742 324147477 1193360155 1947976529
REM
CELL 1.54180   50.00000   50.00000   50.00000   90.00000   90.00000   90.00000
LATT -1
SFAC C  
C      1  0.4697820000000  0.4225890000000  0.5764850000000 1.0
C      1  0.5611740000000  0.4800710000000  0.4247940000000 1.0
C      1  0.4153490000000  0.5577560000000  0.4766260000000 1.0
C      1  0.4699710000000  0.5787530000000  0.4345800000000 1.0
C      1  0.5310770000000  0.5751920000000  0.5618920000000 1.0
C      1  0.5255420000000  0.4261870000000  0.4270680000000 1.0
C      1  0.5585020000000  0.5303190000000  0.5767230000000 1.0
C      1  0.4451930000000  0.5287660000000  0.4212370000000 1.0
C      1  0.4417240000000  0.4801090000000  0.5791080000000 1.0
C      1  0.4188730000000  0.4314900000000  0.5269630000000 1.0
C      1  0.5772090000000  0.4419730000000  0.4625460000000 1.0
C      1  0.5817780000000  0.5632480000000  0.5157730000000 1.0
C      1  0.5531220000000  0.4243790000000  0.4760140000000 1.0
C      1  0.4911860000000  0.5615000000000  0.4226070000000 1.0
C      1  0.4359480000000  0.4961270000000  0.5561820000000 1.0
C      1  0.5518120000000  0.5763440000000  0.5064470000000 1.0
C      1  0.4431670000000  0.5662780000000  0.4900100000000 1.0
C      1  0.4510200000000  0.4297890000000  0.5257630000000 1.0
C      1  0.4916350000000  0.4440420000000  0.5671950000000 1.0
C      1  0.5036950000000  0.4446170000000  0.4331400000000 1.0
C      1  0.5083120000000  0.5536740000000  0.5671540000000 1.0
C      1  0.4343320000000  0.5127560000000  0.4441060000000 1.0
C      1  0.5696250000000  0.5084130000000  0.5562320000000 1.0
C      1  0.5656990000000  0.4990820000000  0.4432250000000 1.0
C      1  0.4069400000000  0.5079010000000  0.4806520000000 1.0
C      1  0.4722340000000  0.4116850000000  0.5076870000000 1.0
C      1  0.5119820000000  0.4752900000000  0.4090650000000 1.0
C      1  0.4103120000000  0.4846120000000  0.5381830000000 1.0
C      1  0.5965560000000  0.4902150000000  0.4754010000000 1.0
C      1  0.5915210000000  0.5091120000000  0.5302280000000 1.0
C      1  0.4655050000000  0.5918230000000  0.4878860000000 1.0
C      1  0.5215050000000  0.5916960000000  0.5050100000000 1.0
C      1  0.5361750000000  0.4058110000000  0.4954410000000 1.0
C      1  0.5115350000000  0.5266330000000  0.5963770000000 1.0
C      1  0.5004050000000  0.5342690000000  0.4044560000000 1.0
C      1  0.4896540000000  0.4754710000000  0.5915460000000 1.0
C      1  0.5648250000000  0.4765990000000  0.5633020000000 1.0
C      1  0.5577810000000  0.5697030000000  0.4735150000000 1.0
C      1  0.4762200000000  0.5567850000000  0.5683660000000 1.0
C      1  0.5749440000000  0.5293770000000  0.4422630000000 1.0
C      1  0.4330170000000  0.5267110000000  0.5614380000000 1.0
C      1  0.4346950000000  0.4805520000000  0.4405210000000 1.0
C      1  0.5493170000000  0.4402960000000  0.5297190000000 1.0
C      1  0.4515240000000  0.4387460000000  0.4716050000000 1.0
C      1  0.4462530000000  0.5587690000000  0.5230320000000 1.0
C      1  0.4738320000000  0.4402520000000  0.4277960000000 1.0
C      1  0.5213680000000  0.4356120000000  0.5708490000000 1.0
C      1  0.5215480000000  0.5531360000000  0.4359770000000 1.0
C      1  0.4739400000000  0.5515880000000  0.4911010000000 1.0
C      1  0.4917030000000  0.4711420000000  0.5517250000000 1.0
C      1  0.5566080000000  0.4912640000000  0.4750440000000 1.0
C      1  0.4684630000000  0.4512480000000  0.5098190000000 1.0
C      1  0.5326300000000  0.4498310000000  0.4854100000000 1.0
C      1  0.5287100000000  0.5523930000000  0.5052430000000 1.0
C      1  0.4868010000000  0.5224550000000  0.4481950000000 1.0
C      1  0.5125070000000  0.5232270000000  0.5559400000000 1.0
C      1  0.5091550000000  0.4714110000000  0.4483880000000 1.0
C      1  0.5521420000000  0.5145280000000  0.5277160000000 1.0
C      1  0.4470480000000  0.5178440000000  0.4741730000000 1.0
C      1  0.4472550000000  0.4910580000000  0.5245160000000 1.0
C      1  0.5040350000000  0.4812510000000  0.6212030000000 1.0
C      1  0.6044130000000  0.4832810000000  0.5027080000000 1.0
C      1  0.4934880000000  0.6008220000000  0.4780110000000 1.0
C      1  0.4864880000000  0.5052080000000  0.4019240000000 1.0
C      1  0.5187090000000  0.4996230000000  0.6043710000000 1.0
C      1  0.4965140000000  0.4864370000000  0.3812290000000 1.0
C      1  0.6209650000000  0.4953830000000  0.5231250000000 1.0
C      1  0.3810090000000  0.5027220000000  0.4931560000000 1.0
C      1  0.3946890000000  0.4842480000000  0.5103620000000 1.0
C      1  0.4888870000000  0.3867070000000  0.4949980000000 1.0
C      1  0.5113550000000  0.3951850000000  0.4819390000000 1.0
C      1  0.5091400000000  0.6202050000000  0.4938460000000 1.0
C      1  0.4722050000000  0.5812520000000  0.5195020000000 1.0
C      1  0.5201360000000  0.4636230000000  0.5872470000000 1.0
C      1  0.5874880000000  0.5202290000000  0.4725320000000 1.0
C      1  0.4762450000000  0.4191330000000  0.4752830000000 1.0
C      1  0.5272610000000  0.4183380000000  0.5225440000000 1.0
C      1  0.5295620000000  0.5843820000000  0.4742580000000 1.0
C      1  0.5289300000000  0.5259790000000  0.4168950000000 1.0
C      1  0.4835610000000  0.5275300000000  0.5841810000000 1.0
C      1  0.4789710000000  0.4672140000000  0.4114190000000 1.0
C      1  0.5838860000000  0.4769370000000  0.5363680000000 1.0
C      1  0.4182310000000  0.4818470000000  0.4677010000000 1.0
C      1  0.4142580000000  0.5176050000000  0.5309340000000 1.0
C      1  0.5346780000000  0.5405760000000  0.5841680000000 1.0
C      1  0.5607160000000  0.5471610000000  0.5321260000000 1.0
C      1  0.5455600000000  0.5729340000000  0.5399010000000 1.0
C      1  0.5396120000000  0.4632030000000  0.4242320000000 1.0
C      1  0.4637630000000  0.4619880000000  0.5790710000000 1.0
C      1  0.4719420000000  0.5353890000000  0.4233760000000 1.0
C      1  0.5797120000000  0.4682590000000  0.4653540000000 1.0
C      1  0.4310740000000  0.4596140000000  0.5385610000000 1.0
C      1  0.4373790000000  0.5445920000000  0.4570640000000 1.0
C      1  0.5387040000000  0.4440180000000  0.4522940000000 1.0
C      1  0.4532770000000  0.4409440000000  0.5564300000000 1.0
C      1  0.4582310000000  0.5716130000000  0.4599810000000 1.0
C      1  0.4650130000000  0.4911040000000  0.4642620000000 1.0
C      1  0.4537680000000  0.4686080000000  0.4845220000000 1.0
C      1  0.4961040000000  0.4551660000000  0.4708020000000 1.0
C      1  0.4685910000000  0.5125490000000  0.5399960000000 1.0
C      1  0.5299690000000  0.5086520000000  0.4630050000000 1.0
C      1  0.5320610000000  0.4898930000000  0.5397990000000 1.0
C      1  0.4585130000000  0.5292650000000  0.5116050000000 1.0
C      1  0.5460250000000  0.5308320000000  0.4918630000000 1.0
C      1  0.5396390000000  0.4678940000000  0.5134930000000 1.0
C      1  0.5007220000000  0.5392470000000  0.5307060000000 1.0
C      1  0.5114670000000  0.5376600000000  0.4645360000000 1.0
C      1  0.5076320000000  0.4623050000000  0.5235420000000 1.0
C      1  0.5807010000000  0.4474130000000  0.5278900000000 1.0
C      1  0.5217390000000  0.5858000000000  0.4451320000000 1.0
C      1  0.4506520000000  0.5315430000000  0.5874740000000 1.0
C      1  0.5863730000000  0.5539750000000  0.4714280000000 1.0
C      1  0.4146640000000  0.5477380000000  0.5257020000000 1.0
C      1  0.4203420000000  0.4497430000000  0.4734880000000 1.0
C      1  0.5238020000000  0.4086620000000  0.5538080000000 1.0
C      1  0.4685110000000  0.4136930000000  0.4455270000000 1.0
C      1  0.4722850000000  0.5849050000000  0.5500110000000 1.0
C      1  0.4494630000000  0.4771890000000  0.4111850000000 1.0
C      1  0.5485010000000  0.4738820000000  0.5910380000000 1.0
C      1  0.5576040000000  0.5265940000000  0.4139360000000 1.0
C      1  0.4979150000000  0.4328730000000  0.5146220000000 1.0
C      1  0.5197540000000  0.4992200000000  0.4319440000000 1.0
C      1  0.4278080000000  0.5189910000000  0.5012270000000 1.0
C      1  0.5001060000000  0.5674910000000  0.4762830000000 1.0
C      1  0.5002220000000  0.5686810000000  0.5162210000000 1.0
C      1  0.5092930000000  0.4272140000000  0.4752890000000 1.0
C      1  0.5188040000000  0.4934250000000  0.5709220000000 1.0
C      1  0.4787380000000  0.4935580000000  0.4329130000000 1.0
C      1  0.4788060000000  0.4975910000000  0.5687760000000 1.0
C      1  0.4261560000000  0.4791140000000  0.5006680000000 1.0
C      1  0.5707820000000  0.4786330000000  0.5050310000000 1.0
C      1  0.5756180000000  0.5182790000000  0.5029710000000 1.0
C      1  0.4983560000000  0.4969680000000  0.4675090000000 1.0
C      1  0.4998250000000  0.4996180000000  0.5350140000000 1.0
C      1  0.4700020000000  0.5006060000000  0.5019370000000 1.0
C      1  0.4919410000000  0.4679150000000  0.4962610000000 1.0
C      1  0.5367120000000  0.4995340000000  0.5013590000000 1.0
C      1  0.5015650000000  0.5335640000000  0.4971890000000 1.0
C      1  0.5471410000000  0.4496660000000  0.5593960000000 1.0
C      1  0.5538030000000  0.5525030000000  0.4467410000000 1.0
C      1  0.4475750000000  0.5540440000000  0.5548730000000 1.0
C      1  0.4479310000000  0.4511690000000  0.4419920000000 1.0
C      1  0.5027080000000  0.4998090000000  0.5011240000000 1.0
END
