TITL C-2622956-4641-86 -0.000828439892975149 125000 -526.878976209805 0 0 98 (C1) n - 1
REM
REM in /nfs/bkarasulu/CARBON/AIRSS/Generating-Clusters/AIREBO/with-SteepDescent/Higher-Symm/SD-CG/HFTN-CG
REM
REM
REM
REM
REM
REM ./C.cell (b20cbc046b6831c77cfcea5457e17084)
REM
REM compiler GCC version 9.2.1 20190827 (Red Hat 9.2.1-1)
REM options -cpp -mtune=generic -march=x86-64 -g -O0 -fpre-include=/usr/include/finclude/math-vector-fortran.h
REM seed 1681589604 -1099321746 -14252781 824169959 -1588426535 -1053402037 -1274672975 857328168 -1298919436 1472844645 328716644 807745563 -985981650 -504257528 -2021022244 1173793527 -1835186384 1713826789 1073250320 232076502 1652418081 -371045542 -1901092593 1160374144 -280575171 1315877379 -934232907 -425381729 167089690 -1321298923 1091594344 -1328515342 -1570126532
REM
CELL 1.54180   50.00000   50.00000   50.00000   90.00000   90.00000   90.00000
LATT -1
SFAC C  
C      1  0.4711700000000  0.4487260000000  0.4277570000000 1.0
C      1  0.5166080000000  0.5411710000000  0.4261200000000 1.0
C      1  0.5190800000000  0.4501730000000  0.5683110000000 1.0
C      1  0.4804690000000  0.5505990000000  0.5694010000000 1.0
C      1  0.4538040000000  0.5047650000000  0.4437360000000 1.0
C      1  0.5414280000000  0.4969490000000  0.4304170000000 1.0
C      1  0.5432090000000  0.5030800000000  0.5745160000000 1.0
C      1  0.4567730000000  0.5011760000000  0.5686650000000 1.0
C      1  0.5245540000000  0.5897280000000  0.5111520000000 1.0
C      1  0.4772920000000  0.4176050000000  0.5085420000000 1.0
C      1  0.4713010000000  0.5844270000000  0.4879450000000 1.0
C      1  0.5238530000000  0.4216940000000  0.4930700000000 1.0
C      1  0.5605240000000  0.5286020000000  0.5599910000000 1.0
C      1  0.4478530000000  0.4700170000000  0.5633720000000 1.0
C      1  0.4370820000000  0.5342390000000  0.4408530000000 1.0
C      1  0.5577510000000  0.4683260000000  0.4372470000000 1.0
C      1  0.5605610000000  0.5512570000000  0.4838000000000 1.0
C      1  0.4448310000000  0.4399720000000  0.4825860000000 1.0
C      1  0.4429540000000  0.5548400000000  0.5142270000000 1.0
C      1  0.5578860000000  0.4404420000000  0.5188960000000 1.0
C      1  0.5788510000000  0.5309400000000  0.5040340000000 1.0
C      1  0.4234440000000  0.4527010000000  0.5067660000000 1.0
C      1  0.4187820000000  0.5398360000000  0.4955720000000 1.0
C      1  0.5790080000000  0.4457790000000  0.4927180000000 1.0
C      1  0.5677620000000  0.4650710000000  0.4700530000000 1.0
C      1  0.4296470000000  0.5470390000000  0.4659460000000 1.0
C      1  0.4415040000000  0.4650660000000  0.5329240000000 1.0
C      1  0.5692640000000  0.5404450000000  0.5344030000000 1.0
C      1  0.4641700000000  0.5810980000000  0.5191620000000 1.0
C      1  0.5337070000000  0.4168480000000  0.5227470000000 1.0
C      1  0.5368710000000  0.5736550000000  0.4876630000000 1.0
C      1  0.4676320000000  0.4174690000000  0.4768550000000 1.0
C      1  0.4869660000000  0.4335280000000  0.4537510000000 1.0
C      1  0.5161500000000  0.5674180000000  0.4699540000000 1.0
C      1  0.5114720000000  0.4327080000000  0.5418400000000 1.0
C      1  0.4851420000000  0.5674460000000  0.5421800000000 1.0
C      1  0.5005060000000  0.4085020000000  0.5236700000000 1.0
C      1  0.4965160000000  0.5917910000000  0.5228980000000 1.0
C      1  0.5016120000000  0.4162670000000  0.4769370000000 1.0
C      1  0.4963660000000  0.5855950000000  0.4681170000000 1.0
C      1  0.5456530000000  0.4435480000000  0.4571420000000 1.0
C      1  0.4492770000000  0.5665970000000  0.4722100000000 1.0
C      1  0.4589380000000  0.4408040000000  0.5227820000000 1.0
C      1  0.5488250000000  0.5638050000000  0.5280620000000 1.0
C      1  0.4649060000000  0.4527100000000  0.5772230000000 1.0
C      1  0.5334120000000  0.5412540000000  0.5682450000000 1.0
C      1  0.5272270000000  0.4531740000000  0.4315860000000 1.0
C      1  0.4645780000000  0.5407560000000  0.4300740000000 1.0
C      1  0.5211290000000  0.5124810000000  0.4841280000000 1.0
C      1  0.4876210000000  0.4897700000000  0.4831200000000 1.0
C      1  0.4847790000000  0.5112960000000  0.5094140000000 1.0
C      1  0.5175020000000  0.4897730000000  0.5092120000000 1.0
C      1  0.4860630000000  0.4805430000000  0.5393290000000 1.0
C      1  0.5144680000000  0.5253920000000  0.5449480000000 1.0
C      1  0.5213650000000  0.4754790000000  0.4572450000000 1.0
C      1  0.4859160000000  0.5274930000000  0.4516360000000 1.0
C      1  0.4600260000000  0.4903980000000  0.5197910000000 1.0
C      1  0.5319950000000  0.5146120000000  0.5225620000000 1.0
C      1  0.5435090000000  0.4876570000000  0.4777420000000 1.0
C      1  0.4692920000000  0.5132410000000  0.4727940000000 1.0
C      1  0.4563050000000  0.4582840000000  0.4568570000000 1.0
C      1  0.5522120000000  0.5403130000000  0.4567900000000 1.0
C      1  0.5426250000000  0.4568710000000  0.5445090000000 1.0
C      1  0.4556340000000  0.5411420000000  0.5393270000000 1.0
C      1  0.5676910000000  0.5115030000000  0.4797120000000 1.0
C      1  0.4265370000000  0.4750440000000  0.4812780000000 1.0
C      1  0.4375670000000  0.5153920000000  0.5144910000000 1.0
C      1  0.5530980000000  0.4912040000000  0.5269470000000 1.0
C      1  0.4918760000000  0.4609590000000  0.5781320000000 1.0
C      1  0.5037130000000  0.5400250000000  0.5805180000000 1.0
C      1  0.4993860000000  0.4580340000000  0.4162730000000 1.0
C      1  0.4919580000000  0.5357870000000  0.4132200000000 1.0
C      1  0.5118790000000  0.4653240000000  0.5321780000000 1.0
C      1  0.4878200000000  0.5346510000000  0.5335400000000 1.0
C      1  0.4893860000000  0.4672280000000  0.4576890000000 1.0
C      1  0.5174700000000  0.5360560000000  0.4597390000000 1.0
C      1  0.4809850000000  0.4494280000000  0.4980460000000 1.0
C      1  0.5164310000000  0.5576670000000  0.5178530000000 1.0
C      1  0.5346590000000  0.4495830000000  0.4861560000000 1.0
C      1  0.4790770000000  0.5523860000000  0.4820810000000 1.0
C      1  0.4340750000000  0.5080410000000  0.5445190000000 1.0
C      1  0.5641830000000  0.4896370000000  0.5522210000000 1.0
C      1  0.5677160000000  0.5042900000000  0.4507260000000 1.0
C      1  0.4271470000000  0.4911920000000  0.4599240000000 1.0
C      1  0.5086290000000  0.4880890000000  0.4283460000000 1.0
C      1  0.4837720000000  0.5060960000000  0.4263850000000 1.0
C      1  0.4879490000000  0.4906780000000  0.5689230000000 1.0
C      1  0.5114360000000  0.5085180000000  0.5730860000000 1.0
C      1  0.5454370000000  0.4691810000000  0.5760810000000 1.0
C      1  0.4557820000000  0.5328480000000  0.5684800000000 1.0
C      1  0.4492020000000  0.4746640000000  0.4285960000000 1.0
C      1  0.5435510000000  0.5287900000000  0.4304370000000 1.0
C      1  0.4561380000000  0.5326200000000  0.4921220000000 1.0
C      1  0.5520180000000  0.4709930000000  0.5061460000000 1.0
C      1  0.5403160000000  0.5387890000000  0.5071260000000 1.0
C      1  0.4562450000000  0.4694270000000  0.4951690000000 1.0
C      1  0.5018950000000  0.5376800000000  0.4964730000000 1.0
C      1  0.5073630000000  0.4638140000000  0.4927630000000 1.0
END
