TITL C-2622955-8511-193 -74.6071520792926 125000 -852.031837268272 0 0 149 (C1) n - 1
REM
REM in /nfs/bkarasulu/CARBON/AIRSS/Generating-Clusters/AIREBO/with-SteepDescent/Higher-Symm/SD-CG/HFTN-CG
REM
REM
REM
REM
REM
REM ./C.cell (b20cbc046b6831c77cfcea5457e17084)
REM
REM compiler GCC version 9.2.1 20190827 (Red Hat 9.2.1-1)
REM options -cpp -mtune=generic -march=x86-64 -g -O0 -fpre-include=/usr/include/finclude/math-vector-fortran.h
REM seed -1569507548 -461140361 1500861446 1731561608 1299307223 -1784829357 342626084 -838870717 -124354813 -1349852783 -1031544326 -1785283698 -1243188895 -1740962889 611688294 -293237821 1555734947 1421054924 -2049744094 -320504648 1004404004 2138808856 1838654475 328575534 1408013037 -1444695926 1812058367 -552901815 112730866 -3822932 1527785235 2084601941 -1404381553
REM
CELL 1.54180   50.00000   50.00000   50.00000   90.00000   90.00000   90.00000
LATT -1
SFAC C  
C      1  0.4326090000000  0.4420460000000  0.5293260000000 1.0
C      1  0.4339430000000  0.5249100000000  0.5567700000000 1.0
C      1  0.4213760000000  0.5590130000000  0.4752280000000 1.0
C      1  0.4328400000000  0.4783010000000  0.4419090000000 1.0
C      1  0.4325470000000  0.5603800000000  0.5209450000000 1.0
C      1  0.4270120000000  0.4764340000000  0.5654490000000 1.0
C      1  0.4268500000000  0.4367060000000  0.4759360000000 1.0
C      1  0.4321230000000  0.5232880000000  0.4413010000000 1.0
C      1  0.5288850000000  0.5162820000000  0.3832780000000 1.0
C      1  0.5288760000000  0.4091440000000  0.4659480000000 1.0
C      1  0.5202870000000  0.4668480000000  0.5953440000000 1.0
C      1  0.5313500000000  0.5835620000000  0.5341920000000 1.0
C      1  0.5287380000000  0.4637180000000  0.4039580000000 1.0
C      1  0.5359740000000  0.5856800000000  0.4727950000000 1.0
C      1  0.5210390000000  0.5300200000000  0.5971370000000 1.0
C      1  0.5438860000000  0.4177230000000  0.5315800000000 1.0
C      1  0.5488020000000  0.5124830000000  0.5898110000000 1.0
C      1  0.5544630000000  0.6001210000000  0.4949650000000 1.0
C      1  0.5543250000000  0.4830050000000  0.4080970000000 1.0
C      1  0.5648960000000  0.4128650000000  0.5111530000000 1.0
C      1  0.5473680000000  0.4855850000000  0.5883220000000 1.0
C      1  0.5570480000000  0.4151450000000  0.4841090000000 1.0
C      1  0.5504770000000  0.5096050000000  0.4006420000000 1.0
C      1  0.5574560000000  0.5878870000000  0.5191540000000 1.0
C      1  0.5918970000000  0.4564700000000  0.5555710000000 1.0
C      1  0.5964350000000  0.5499010000000  0.5377890000000 1.0
C      1  0.5819690000000  0.5266900000000  0.4401860000000 1.0
C      1  0.5992730000000  0.4355850000000  0.4474310000000 1.0
C      1  0.5935750000000  0.5415460000000  0.5636220000000 1.0
C      1  0.5919200000000  0.4493100000000  0.5291710000000 1.0
C      1  0.5983750000000  0.4549700000000  0.4307580000000 1.0
C      1  0.5960870000000  0.5522620000000  0.4473610000000 1.0
C      1  0.5411150000000  0.4264620000000  0.5584250000000 1.0
C      1  0.5409370000000  0.5495130000000  0.5774890000000 1.0
C      1  0.5495340000000  0.5674580000000  0.4547510000000 1.0
C      1  0.5471730000000  0.4500180000000  0.4291480000000 1.0
C      1  0.5375590000000  0.5732630000000  0.5634710000000 1.0
C      1  0.5402470000000  0.4492400000000  0.5739620000000 1.0
C      1  0.5479640000000  0.4319410000000  0.4493140000000 1.0
C      1  0.5392490000000  0.5544770000000  0.4318240000000 1.0
C      1  0.4687870000000  0.4088660000000  0.5694010000000 1.0
C      1  0.4797160000000  0.5626780000000  0.5856940000000 1.0
C      1  0.4714010000000  0.5760730000000  0.4333870000000 1.0
C      1  0.4805790000000  0.4448670000000  0.4130620000000 1.0
C      1  0.4785530000000  0.5896600000000  0.5564320000000 1.0
C      1  0.4722160000000  0.4409940000000  0.5919570000000 1.0
C      1  0.4821200000000  0.4169420000000  0.4413830000000 1.0
C      1  0.4635760000000  0.5559970000000  0.3998150000000 1.0
C      1  0.4393100000000  0.4905260000000  0.5919340000000 1.0
C      1  0.4486540000000  0.5872940000000  0.5160220000000 1.0
C      1  0.4577470000000  0.5214700000000  0.4190270000000 1.0
C      1  0.4504560000000  0.4278760000000  0.4883540000000 1.0
C      1  0.4410010000000  0.5191940000000  0.5887300000000 1.0
C      1  0.4531570000000  0.4252900000000  0.5153360000000 1.0
C      1  0.4550260000000  0.4941430000000  0.4264820000000 1.0
C      1  0.4381130000000  0.6107340000000  0.5117240000000 1.0
C      1  0.4919730000000  0.4567820000000  0.5692130000000 1.0
C      1  0.4943070000000  0.5669090000000  0.5437010000000 1.0
C      1  0.5086670000000  0.5427160000000  0.4241750000000 1.0
C      1  0.5030830000000  0.4377960000000  0.4553390000000 1.0
C      1  0.4961210000000  0.5426520000000  0.5666360000000 1.0
C      1  0.4850610000000  0.4269690000000  0.5556620000000 1.0
C      1  0.5019780000000  0.4567540000000  0.4322400000000 1.0
C      1  0.4922400000000  0.5609540000000  0.4423080000000 1.0
C      1  0.5163760000000  0.5152560000000  0.5668600000000 1.0
C      1  0.5106580000000  0.5716640000000  0.4885100000000 1.0
C      1  0.5202960000000  0.4855590000000  0.4289630000000 1.0
C      1  0.5258090000000  0.4209000000000  0.5084920000000 1.0
C      1  0.5152230000000  0.4812790000000  0.5649780000000 1.0
C      1  0.5251370000000  0.4389430000000  0.4812060000000 1.0
C      1  0.5272860000000  0.5166280000000  0.4335000000000 1.0
C      1  0.5135680000000  0.5615160000000  0.5170280000000 1.0
C      1  0.4919520000000  0.5134490000000  0.5980480000000 1.0
C      1  0.5127080000000  0.6055910000000  0.4875780000000 1.0
C      1  0.5005670000000  0.4826630000000  0.4019510000000 1.0
C      1  0.4998820000000  0.4085380000000  0.5116390000000 1.0
C      1  0.4917060000000  0.4852520000000  0.5968520000000 1.0
C      1  0.4984360000000  0.4093800000000  0.4817930000000 1.0
C      1  0.5026350000000  0.5106520000000  0.3897430000000 1.0
C      1  0.5060760000000  0.6004440000000  0.5187880000000 1.0
C      1  0.4166140000000  0.4662970000000  0.5156190000000 1.0
C      1  0.4162210000000  0.5147940000000  0.5344580000000 1.0
C      1  0.4097600000000  0.5329390000000  0.4863490000000 1.0
C      1  0.4151860000000  0.4839670000000  0.4685990000000 1.0
C      1  0.4152200000000  0.5333880000000  0.5141160000000 1.0
C      1  0.4152340000000  0.4868440000000  0.5353650000000 1.0
C      1  0.4139590000000  0.4620920000000  0.4869010000000 1.0
C      1  0.4163070000000  0.5120400000000  0.4686220000000 1.0
C      1  0.4290440000000  0.5747330000000  0.5484530000000 1.0
C      1  0.4148720000000  0.5465880000000  0.4276370000000 1.0
C      1  0.4266380000000  0.4290960000000  0.4487170000000 1.0
C      1  0.4201460000000  0.4493930000000  0.5765270000000 1.0
C      1  0.4242270000000  0.4286480000000  0.5540190000000 1.0
C      1  0.4282470000000  0.4524220000000  0.4287120000000 1.0
C      1  0.4212240000000  0.5691190000000  0.4497100000000 1.0
C      1  0.4300740000000  0.5527680000000  0.5704970000000 1.0
C      1  0.5654210000000  0.4699470000000  0.5677030000000 1.0
C      1  0.5758340000000  0.5685190000000  0.5230460000000 1.0
C      1  0.5573050000000  0.5291240000000  0.4234760000000 1.0
C      1  0.5755730000000  0.4351760000000  0.4677320000000 1.0
C      1  0.5656640000000  0.5292200000000  0.5684790000000 1.0
C      1  0.5902420000000  0.4230050000000  0.5191890000000 1.0
C      1  0.5721910000000  0.4716570000000  0.4315740000000 1.0
C      1  0.5722060000000  0.5552850000000  0.4662450000000 1.0
C      1  0.5739520000000  0.5357380000000  0.5164940000000 1.0
C      1  0.5779730000000  0.5119970000000  0.4640450000000 1.0
C      1  0.5772400000000  0.4633370000000  0.4809280000000 1.0
C      1  0.5652470000000  0.4869560000000  0.5390160000000 1.0
C      1  0.5774780000000  0.4700540000000  0.5116110000000 1.0
C      1  0.5674050000000  0.4843980000000  0.4605460000000 1.0
C      1  0.5658220000000  0.5310210000000  0.4876900000000 1.0
C      1  0.5589960000000  0.5171810000000  0.5394230000000 1.0
C      1  0.4648040000000  0.5158820000000  0.5451540000000 1.0
C      1  0.4480140000000  0.5440800000000  0.4871310000000 1.0
C      1  0.4546980000000  0.4882940000000  0.4659700000000 1.0
C      1  0.4561900000000  0.4648430000000  0.5201020000000 1.0
C      1  0.4542300000000  0.4835650000000  0.5463410000000 1.0
C      1  0.4647400000000  0.4651900000000  0.4868200000000 1.0
C      1  0.4550980000000  0.5215060000000  0.4663490000000 1.0
C      1  0.4547770000000  0.5356860000000  0.5193820000000 1.0
C      1  0.5288980000000  0.4683760000000  0.4873110000000 1.0
C      1  0.5335270000000  0.4747390000000  0.5400360000000 1.0
C      1  0.5188820000000  0.5321030000000  0.5126690000000 1.0
C      1  0.5229400000000  0.5134530000000  0.4644300000000 1.0
C      1  0.5350680000000  0.5277840000000  0.4879490000000 1.0
C      1  0.5282300000000  0.5183490000000  0.5378880000000 1.0
C      1  0.5450580000000  0.4717600000000  0.5104160000000 1.0
C      1  0.5376150000000  0.4865080000000  0.4660850000000 1.0
C      1  0.4892450000000  0.5177950000000  0.4659670000000 1.0
C      1  0.4981460000000  0.4674990000000  0.4873130000000 1.0
C      1  0.5051070000000  0.4796370000000  0.5265910000000 1.0
C      1  0.4849260000000  0.5316940000000  0.5144180000000 1.0
C      1  0.4878570000000  0.4842830000000  0.4603630000000 1.0
C      1  0.4936210000000  0.5513100000000  0.4703470000000 1.0
C      1  0.4961330000000  0.5074260000000  0.5341550000000 1.0
C      1  0.4879030000000  0.4563150000000  0.5175870000000 1.0
C      1  0.4723740000000  0.5628500000000  0.4923540000000 1.0
C      1  0.4806790000000  0.4813920000000  0.4290200000000 1.0
C      1  0.4816870000000  0.4270580000000  0.5260460000000 1.0
C      1  0.4701980000000  0.5249880000000  0.5774730000000 1.0
C      1  0.4772550000000  0.4354110000000  0.4760740000000 1.0
C      1  0.4860170000000  0.5324100000000  0.4050150000000 1.0
C      1  0.4793470000000  0.5821360000000  0.5172220000000 1.0
C      1  0.4650310000000  0.4756750000000  0.5777800000000 1.0
C      1  0.4431900000000  0.5632920000000  0.4242690000000 1.0
C      1  0.4545130000000  0.4314830000000  0.4287650000000 1.0
C      1  0.4436410000000  0.4254490000000  0.5818520000000 1.0
C      1  0.4530770000000  0.5773360000000  0.5722360000000 1.0
C      1  0.4907070000000  0.5099670000000  0.4950380000000 1.0
END
