TITL C-2622962-9663-841 -0.00177556089731697 125000 -995.302788911761 0 0 184 (C1) n - 1
REM
REM in /nfs/bkarasulu/CARBON/AIRSS/Generating-Clusters/AIREBO/with-SteepDescent/Higher-Symm/SD-CG/HFTN-CG
REM
REM
REM
REM
REM
REM ./C.cell (b20cbc046b6831c77cfcea5457e17084)
REM
REM compiler GCC version 9.2.1 20190827 (Red Hat 9.2.1-1)
REM options -cpp -mtune=generic -march=x86-64 -g -O0 -fpre-include=/usr/include/finclude/math-vector-fortran.h
REM seed 1602607787 -91610031 -154184530 155688138 1484875880 -724527360 1635609072 821134399 1850979559 566532353 1457025939 -2042966426 899545222 -681129562 -114791917 1516884872 285083570 119299618 -604730121 1540634175 -1516670624 -1535197249 -469064164 -1914153904 1564925856 -1788999093 -348673889 -1911917740 -1090112843 763445991 -673580453 1665828323 1553639026
REM
CELL 1.54180   50.00000   50.00000   50.00000   90.00000   90.00000   90.00000
LATT -1
SFAC C  
C      1  0.5599120000000  0.5396260000000  0.4273900000000 1.0
C      1  0.5234240000000  0.5234280000000  0.5804170000000 1.0
C      1  0.4249170000000  0.5245220000000  0.4879320000000 1.0
C      1  0.5472360000000  0.5281620000000  0.5621710000000 1.0
C      1  0.5339650000000  0.5353230000000  0.4138670000000 1.0
C      1  0.4040880000000  0.5391970000000  0.5092960000000 1.0
C      1  0.4187720000000  0.4197770000000  0.5218030000000 1.0
C      1  0.5272300000000  0.4224620000000  0.4277920000000 1.0
C      1  0.5515610000000  0.4169760000000  0.5575270000000 1.0
C      1  0.4254820000000  0.4299290000000  0.4906270000000 1.0
C      1  0.5240220000000  0.4237490000000  0.5671380000000 1.0
C      1  0.5574060000000  0.4119480000000  0.4371320000000 1.0
C      1  0.4773990000000  0.5075870000000  0.5933330000000 1.0
C      1  0.4303860000000  0.5135320000000  0.4304850000000 1.0
C      1  0.5967370000000  0.5089820000000  0.4763930000000 1.0
C      1  0.4787150000000  0.5173260000000  0.3997550000000 1.0
C      1  0.4311420000000  0.5065510000000  0.5721480000000 1.0
C      1  0.5913120000000  0.4992540000000  0.5288430000000 1.0
C      1  0.5099130000000  0.5867180000000  0.5620300000000 1.0
C      1  0.4408280000000  0.5845500000000  0.4723390000000 1.0
C      1  0.5491940000000  0.5822800000000  0.4592030000000 1.0
C      1  0.4993080000000  0.5862940000000  0.4332960000000 1.0
C      1  0.4415080000000  0.5893150000000  0.5303150000000 1.0
C      1  0.5622350000000  0.5998960000000  0.5195240000000 1.0
C      1  0.4711170000000  0.5283380000000  0.5173950000000 1.0
C      1  0.5028330000000  0.5385950000000  0.4676540000000 1.0
C      1  0.5236930000000  0.5277450000000  0.5137170000000 1.0
C      1  0.4747510000000  0.5332300000000  0.4860580000000 1.0
C      1  0.5006780000000  0.5361920000000  0.5278130000000 1.0
C      1  0.5265780000000  0.5424570000000  0.4868810000000 1.0
C      1  0.4750070000000  0.4308360000000  0.4766900000000 1.0
C      1  0.5234250000000  0.4312310000000  0.4884040000000 1.0
C      1  0.5003980000000  0.4147420000000  0.5291980000000 1.0
C      1  0.4783050000000  0.4306990000000  0.5217230000000 1.0
C      1  0.5262570000000  0.4219150000000  0.5174990000000 1.0
C      1  0.5020140000000  0.4208800000000  0.4704150000000 1.0
C      1  0.5337400000000  0.5733110000000  0.5276830000000 1.0
C      1  0.4696610000000  0.5612650000000  0.5275810000000 1.0
C      1  0.4854550000000  0.5671810000000  0.4651350000000 1.0
C      1  0.5418980000000  0.5688770000000  0.4958910000000 1.0
C      1  0.4673390000000  0.5641680000000  0.4937810000000 1.0
C      1  0.5031420000000  0.5671730000000  0.5280090000000 1.0
C      1  0.4525040000000  0.4713750000000  0.5538640000000 1.0
C      1  0.4853420000000  0.4799670000000  0.4411360000000 1.0
C      1  0.5603120000000  0.4621820000000  0.5077700000000 1.0
C      1  0.4554660000000  0.4775250000000  0.4488200000000 1.0
C      1  0.4750290000000  0.4558630000000  0.5584670000000 1.0
C      1  0.5679570000000  0.4680260000000  0.4755590000000 1.0
C      1  0.4521060000000  0.4146940000000  0.5160420000000 1.0
C      1  0.5028830000000  0.4105310000000  0.4444270000000 1.0
C      1  0.5515440000000  0.4107120000000  0.5297460000000 1.0
C      1  0.4491520000000  0.4105240000000  0.4824250000000 1.0
C      1  0.5016200000000  0.4106020000000  0.5565520000000 1.0
C      1  0.5692310000000  0.4014670000000  0.4591240000000 1.0
C      1  0.5789330000000  0.5493220000000  0.5509080000000 1.0
C      1  0.4060780000000  0.5469080000000  0.5483780000000 1.0
C      1  0.5011410000000  0.5496870000000  0.3928180000000 1.0
C      1  0.5910040000000  0.5482810000000  0.4434040000000 1.0
C      1  0.4088330000000  0.5484600000000  0.4516780000000 1.0
C      1  0.5059600000000  0.5506390000000  0.6035190000000 1.0
C      1  0.5737350000000  0.4176280000000  0.5128680000000 1.0
C      1  0.4544450000000  0.4156150000000  0.5499910000000 1.0
C      1  0.4771770000000  0.4003640000000  0.4371450000000 1.0
C      1  0.5688850000000  0.4158230000000  0.4840850000000 1.0
C      1  0.4541790000000  0.4103990000000  0.4487970000000 1.0
C      1  0.4764810000000  0.4160950000000  0.5681860000000 1.0
C      1  0.4851440000000  0.5087640000000  0.5622340000000 1.0
C      1  0.4499440000000  0.5073020000000  0.4561080000000 1.0
C      1  0.5636720000000  0.5015420000000  0.4793560000000 1.0
C      1  0.4894270000000  0.5064390000000  0.4272940000000 1.0
C      1  0.4562400000000  0.5036420000000  0.5493850000000 1.0
C      1  0.5650010000000  0.4955380000000  0.5127960000000 1.0
C      1  0.4875900000000  0.5381560000000  0.4370190000000 1.0
C      1  0.5572390000000  0.5283210000000  0.5082080000000 1.0
C      1  0.4419720000000  0.5306730000000  0.5344820000000 1.0
C      1  0.4943090000000  0.5376540000000  0.5572500000000 1.0
C      1  0.5545750000000  0.5342380000000  0.4751270000000 1.0
C      1  0.4630920000000  0.5353120000000  0.4565790000000 1.0
C      1  0.4783240000000  0.4637680000000  0.5161520000000 1.0
C      1  0.4974490000000  0.4624560000000  0.4668740000000 1.0
C      1  0.5293540000000  0.4550780000000  0.5199240000000 1.0
C      1  0.4714080000000  0.4612820000000  0.4851050000000 1.0
C      1  0.5024550000000  0.4608830000000  0.5399320000000 1.0
C      1  0.5199500000000  0.4635030000000  0.4882790000000 1.0
C      1  0.5102820000000  0.4684280000000  0.3930220000000 1.0
C      1  0.5824640000000  0.4704100000000  0.5646970000000 1.0
C      1  0.3969330000000  0.4695960000000  0.5402380000000 1.0
C      1  0.5136640000000  0.4710670000000  0.6097740000000 1.0
C      1  0.5846670000000  0.4644200000000  0.4329760000000 1.0
C      1  0.4010750000000  0.4694510000000  0.4538730000000 1.0
C      1  0.5183550000000  0.4903300000000  0.5745130000000 1.0
C      1  0.4321550000000  0.4910360000000  0.4886730000000 1.0
C      1  0.5399290000000  0.4843710000000  0.4522000000000 1.0
C      1  0.5292620000000  0.5070930000000  0.4278480000000 1.0
C      1  0.4321650000000  0.4802430000000  0.5201340000000 1.0
C      1  0.5473440000000  0.4986480000000  0.5482730000000 1.0
C      1  0.5268470000000  0.5945150000000  0.4793740000000 1.0
C      1  0.5033710000000  0.5997730000000  0.5318540000000 1.0
C      1  0.4698280000000  0.5972620000000  0.4857860000000 1.0
C      1  0.5310860000000  0.6034120000000  0.5120880000000 1.0
C      1  0.4986530000000  0.5964210000000  0.4662710000000 1.0
C      1  0.4719050000000  0.5942490000000  0.5195950000000 1.0
C      1  0.5110870000000  0.5555910000000  0.4248350000000 1.0
C      1  0.5468130000000  0.5590710000000  0.5508680000000 1.0
C      1  0.4268110000000  0.5594210000000  0.5244950000000 1.0
C      1  0.5196190000000  0.5559460000000  0.5707080000000 1.0
C      1  0.5595920000000  0.5556360000000  0.4541510000000 1.0
C      1  0.4345940000000  0.5571180000000  0.4914660000000 1.0
C      1  0.5507630000000  0.4396270000000  0.4761680000000 1.0
C      1  0.4784220000000  0.4413950000000  0.5841720000000 1.0
C      1  0.4532060000000  0.4439920000000  0.4539880000000 1.0
C      1  0.5810270000000  0.4443540000000  0.5200470000000 1.0
C      1  0.4785750000000  0.4479570000000  0.4316720000000 1.0
C      1  0.4348020000000  0.4356090000000  0.5547950000000 1.0
C      1  0.5770620000000  0.5144470000000  0.4270520000000 1.0
C      1  0.5283670000000  0.5252000000000  0.6121940000000 1.0
C      1  0.3976280000000  0.5230800000000  0.4697920000000 1.0
C      1  0.5768500000000  0.5251910000000  0.5760190000000 1.0
C      1  0.5305160000000  0.5365540000000  0.3818310000000 1.0
C      1  0.3956180000000  0.5180120000000  0.5293610000000 1.0
C      1  0.5418580000000  0.4527020000000  0.4492570000000 1.0
C      1  0.5217830000000  0.4570350000000  0.5685120000000 1.0
C      1  0.4325330000000  0.4593830000000  0.4762030000000 1.0
C      1  0.5463720000000  0.4665540000000  0.5470430000000 1.0
C      1  0.5109170000000  0.4494810000000  0.4404730000000 1.0
C      1  0.4296920000000  0.4516420000000  0.5264690000000 1.0
C      1  0.5973430000000  0.4603970000000  0.5361460000000 1.0
C      1  0.4217840000000  0.4651830000000  0.5630770000000 1.0
C      1  0.4811550000000  0.4652810000000  0.4042760000000 1.0
C      1  0.5976840000000  0.4693490000000  0.4642210000000 1.0
C      1  0.4275740000000  0.4635660000000  0.4365440000000 1.0
C      1  0.4833220000000  0.4609840000000  0.6036180000000 1.0
C      1  0.3869320000000  0.4897510000000  0.4361430000000 1.0
C      1  0.6107760000000  0.4856020000000  0.4373790000000 1.0
C      1  0.5076160000000  0.4962370000000  0.6300340000000 1.0
C      1  0.3849250000000  0.4916170000000  0.5575690000000 1.0
C      1  0.6028040000000  0.4953940000000  0.5706510000000 1.0
C      1  0.5067670000000  0.4891540000000  0.3690410000000 1.0
C      1  0.4637370000000  0.4878640000000  0.4029430000000 1.0
C      1  0.6114500000000  0.4807330000000  0.5181410000000 1.0
C      1  0.4372130000000  0.4802620000000  0.5895990000000 1.0
C      1  0.4641200000000  0.4817610000000  0.6006830000000 1.0
C      1  0.6131410000000  0.4830740000000  0.4899540000000 1.0
C      1  0.4377540000000  0.4875270000000  0.4146330000000 1.0
C      1  0.4620030000000  0.5349650000000  0.5963270000000 1.0
C      1  0.4412610000000  0.5404160000000  0.4210720000000 1.0
C      1  0.6019400000000  0.5358610000000  0.4907400000000 1.0
C      1  0.4636690000000  0.5431230000000  0.4049030000000 1.0
C      1  0.4364700000000  0.5338880000000  0.5849800000000 1.0
C      1  0.5847860000000  0.5404600000000  0.5136090000000 1.0
C      1  0.4802050000000  0.5725990000000  0.4067290000000 1.0
C      1  0.5807080000000  0.5720060000000  0.5256280000000 1.0
C      1  0.4325140000000  0.5539150000000  0.5655850000000 1.0
C      1  0.4811120000000  0.5557840000000  0.5808770000000 1.0
C      1  0.5930540000000  0.5584450000000  0.4754790000000 1.0
C      1  0.4407690000000  0.5598190000000  0.4489910000000 1.0
C      1  0.5334540000000  0.4467770000000  0.4053060000000 1.0
C      1  0.5601520000000  0.4463420000000  0.5706580000000 1.0
C      1  0.3986580000000  0.4468200000000  0.5148400000000 1.0
C      1  0.5404770000000  0.4543400000000  0.5972120000000 1.0
C      1  0.5611460000000  0.4434400000000  0.4260550000000 1.0
C      1  0.4000970000000  0.4501310000000  0.4811780000000 1.0
C      1  0.5309080000000  0.4934960000000  0.4837070000000 1.0
C      1  0.5079010000000  0.4930920000000  0.5423940000000 1.0
C      1  0.4656330000000  0.4945080000000  0.4834430000000 1.0
C      1  0.5314570000000  0.4973790000000  0.5182260000000 1.0
C      1  0.5096290000000  0.5093470000000  0.4530990000000 1.0
C      1  0.4629430000000  0.4944220000000  0.5173450000000 1.0
C      1  0.5378120000000  0.4937920000000  0.6021920000000 1.0
C      1  0.3990680000000  0.4909280000000  0.4807620000000 1.0
C      1  0.5639570000000  0.4877210000000  0.4283780000000 1.0
C      1  0.5361750000000  0.4787030000000  0.4128480000000 1.0
C      1  0.4017910000000  0.4914580000000  0.5146490000000 1.0
C      1  0.5619510000000  0.4946800000000  0.5782480000000 1.0
C      1  0.5972880000000  0.5210300000000  0.5499240000000 1.0
C      1  0.4034300000000  0.5154550000000  0.5611200000000 1.0
C      1  0.5032260000000  0.5178300000000  0.3798390000000 1.0
C      1  0.6022540000000  0.5160160000000  0.4458100000000 1.0
C      1  0.4007510000000  0.5153180000000  0.4384590000000 1.0
C      1  0.4955760000000  0.5205070000000  0.6153710000000 1.0
C      1  0.4579810000000  0.5638240000000  0.5579720000000 1.0
C      1  0.4676460000000  0.5750600000000  0.4376040000000 1.0
C      1  0.5735330000000  0.5722410000000  0.4923690000000 1.0
C      1  0.4978970000000  0.5012200000000  0.4810020000000 1.0
END
