TITL C-2622960-5345-94 7.88106819559165e-05 125000 -738.551256586264 0 0 139 (C1) n - 1
REM
REM in /nfs/bkarasulu/CARBON/AIRSS/Generating-Clusters/AIREBO/with-SteepDescent/Higher-Symm/SD-CG/HFTN-CG
REM
REM
REM
REM
REM
REM ./C.cell (b20cbc046b6831c77cfcea5457e17084)
REM
REM compiler GCC version 9.2.1 20190827 (Red Hat 9.2.1-1)
REM options -cpp -mtune=generic -march=x86-64 -g -O0 -fpre-include=/usr/include/finclude/math-vector-fortran.h
REM seed -478565367 568650852 354294790 1004957418 1822415666 -1289561339 1021528226 -573049079 678933273 393880794 1190768265 -417834774 1863123147 1524353256 -143926094 2004297165 1597187068 1209830295 -408857804 -1063606242 1771069863 -1001600187 1976036403 -392025201 -17715498 1603408756 -108863484 977182365 -1599035892 581625124 -1539716859 1750950563 1374032928
REM
CELL 1.54180   50.00000   50.00000   50.00000   90.00000   90.00000   90.00000
LATT -1
SFAC C  
C      1  0.4036820000000  0.5026230000000  0.4501010000000 1.0
C      1  0.4789200000000  0.4183020000000  0.4527510000000 1.0
C      1  0.5435100000000  0.4364800000000  0.4483390000000 1.0
C      1  0.5690020000000  0.4996340000000  0.4516290000000 1.0
C      1  0.5469470000000  0.5642700000000  0.4468670000000 1.0
C      1  0.4533760000000  0.5891990000000  0.4492130000000 1.0
C      1  0.4103480000000  0.4746480000000  0.5117410000000 1.0
C      1  0.4912110000000  0.4020160000000  0.5264590000000 1.0
C      1  0.5705970000000  0.4255160000000  0.5218210000000 1.0
C      1  0.5880890000000  0.5244280000000  0.5208790000000 1.0
C      1  0.5284950000000  0.5927920000000  0.5150000000000 1.0
C      1  0.4305630000000  0.5708320000000  0.5160370000000 1.0
C      1  0.5180840000000  0.4775640000000  0.5868020000000 1.0
C      1  0.5338260000000  0.5030560000000  0.5960620000000 1.0
C      1  0.5125920000000  0.5246920000000  0.5932880000000 1.0
C      1  0.4810120000000  0.5227990000000  0.5918220000000 1.0
C      1  0.4680320000000  0.4971660000000  0.5827490000000 1.0
C      1  0.4875040000000  0.4732040000000  0.5863870000000 1.0
C      1  0.5120420000000  0.4256290000000  0.4553840000000 1.0
C      1  0.5540070000000  0.4690380000000  0.4491390000000 1.0
C      1  0.5581210000000  0.5325130000000  0.4516890000000 1.0
C      1  0.4830850000000  0.5784250000000  0.4532640000000 1.0
C      1  0.4241740000000  0.5240000000000  0.4495010000000 1.0
C      1  0.4552800000000  0.4428290000000  0.4536490000000 1.0
C      1  0.5225780000000  0.5535640000000  0.5807650000000 1.0
C      1  0.4692530000000  0.5483500000000  0.5761670000000 1.0
C      1  0.4370100000000  0.5027290000000  0.5680150000000 1.0
C      1  0.4812010000000  0.4419460000000  0.5900970000000 1.0
C      1  0.5368130000000  0.4503090000000  0.5856770000000 1.0
C      1  0.5585110000000  0.4836630000000  0.5817880000000 1.0
C      1  0.5572220000000  0.4198030000000  0.4269650000000 1.0
C      1  0.5908430000000  0.4992210000000  0.4291740000000 1.0
C      1  0.5555170000000  0.5778770000000  0.4246960000000 1.0
C      1  0.4457450000000  0.6051580000000  0.4301510000000 1.0
C      1  0.3829500000000  0.5011590000000  0.4343810000000 1.0
C      1  0.4738010000000  0.3979230000000  0.4304710000000 1.0
C      1  0.4082480000000  0.5069140000000  0.5010370000000 1.0
C      1  0.4421980000000  0.4190840000000  0.4933490000000 1.0
C      1  0.5488640000000  0.4170170000000  0.4969480000000 1.0
C      1  0.6002040000000  0.4942630000000  0.5104130000000 1.0
C      1  0.5523330000000  0.5740480000000  0.4981080000000 1.0
C      1  0.4561650000000  0.5884490000000  0.5004000000000 1.0
C      1  0.5480330000000  0.4785960000000  0.4208780000000 1.0
C      1  0.5447510000000  0.5315570000000  0.4204190000000 1.0
C      1  0.4807760000000  0.5675010000000  0.4217660000000 1.0
C      1  0.4365750000000  0.5256210000000  0.4211500000000 1.0
C      1  0.4473210000000  0.4555050000000  0.4246990000000 1.0
C      1  0.5047200000000  0.4388430000000  0.4249050000000 1.0
C      1  0.4563710000000  0.5751440000000  0.5377480000000 1.0
C      1  0.4252220000000  0.4882110000000  0.5394060000000 1.0
C      1  0.4698420000000  0.4198840000000  0.5304880000000 1.0
C      1  0.5420290000000  0.4392330000000  0.5293590000000 1.0
C      1  0.5732940000000  0.4997200000000  0.5389680000000 1.0
C      1  0.5436150000000  0.5737720000000  0.5369240000000 1.0
C      1  0.5616400000000  0.5163610000000  0.4895360000000 1.0
C      1  0.5121310000000  0.5661020000000  0.4906540000000 1.0
C      1  0.4474460000000  0.5523830000000  0.4850180000000 1.0
C      1  0.4392600000000  0.4844720000000  0.4847920000000 1.0
C      1  0.4856880000000  0.4342480000000  0.4885240000000 1.0
C      1  0.5604460000000  0.4639270000000  0.4880210000000 1.0
C      1  0.5670670000000  0.5486290000000  0.4802960000000 1.0
C      1  0.4869580000000  0.5884950000000  0.4857920000000 1.0
C      1  0.4184210000000  0.5346670000000  0.4840970000000 1.0
C      1  0.4321640000000  0.4373890000000  0.4750200000000 1.0
C      1  0.5206570000000  0.4086920000000  0.4843940000000 1.0
C      1  0.5892420000000  0.4662050000000  0.4960360000000 1.0
C      1  0.4854030000000  0.5577150000000  0.5408230000000 1.0
C      1  0.4534970000000  0.5179200000000  0.5349560000000 1.0
C      1  0.4603100000000  0.4565140000000  0.5440520000000 1.0
C      1  0.5177800000000  0.4374370000000  0.5531270000000 1.0
C      1  0.5403940000000  0.4931520000000  0.5452640000000 1.0
C      1  0.5355140000000  0.5360230000000  0.5472730000000 1.0
C      1  0.5503480000000  0.5138220000000  0.5683640000000 1.0
C      1  0.5066880000000  0.5289050000000  0.5607800000000 1.0
C      1  0.4775240000000  0.5268360000000  0.5516650000000 1.0
C      1  0.4631460000000  0.4895390000000  0.5510140000000 1.0
C      1  0.4917620000000  0.4590310000000  0.5557170000000 1.0
C      1  0.5305230000000  0.4686310000000  0.5577180000000 1.0
C      1  0.5106270000000  0.5267840000000  0.5044520000000 1.0
C      1  0.4847270000000  0.5373870000000  0.4937900000000 1.0
C      1  0.4602010000000  0.5167670000000  0.4955850000000 1.0
C      1  0.4790200000000  0.4725480000000  0.4944620000000 1.0
C      1  0.5098190000000  0.4645790000000  0.4979210000000 1.0
C      1  0.5223220000000  0.4947820000000  0.5030060000000 1.0
C      1  0.5180570000000  0.4892060000000  0.4156570000000 1.0
C      1  0.5190580000000  0.5211370000000  0.4141970000000 1.0
C      1  0.4888260000000  0.5350150000000  0.4154860000000 1.0
C      1  0.4633180000000  0.5124670000000  0.4165300000000 1.0
C      1  0.4644380000000  0.4783960000000  0.4150680000000 1.0
C      1  0.4949910000000  0.4669760000000  0.4170720000000 1.0
C      1  0.5336270000000  0.5270420000000  0.4828330000000 1.0
C      1  0.4909210000000  0.5529470000000  0.4684380000000 1.0
C      1  0.4520890000000  0.5257900000000  0.4657030000000 1.0
C      1  0.4619550000000  0.4707240000000  0.4685270000000 1.0
C      1  0.5033940000000  0.4535300000000  0.4692120000000 1.0
C      1  0.5371710000000  0.4829020000000  0.4752340000000 1.0
C      1  0.4443210000000  0.4953430000000  0.5135950000000 1.0
C      1  0.4752620000000  0.4488090000000  0.5153020000000 1.0
C      1  0.5371180000000  0.4580630000000  0.5078870000000 1.0
C      1  0.5506640000000  0.5050090000000  0.5160100000000 1.0
C      1  0.5263760000000  0.5512600000000  0.5181550000000 1.0
C      1  0.4652540000000  0.5520320000000  0.5140260000000 1.0
C      1  0.4557380000000  0.6051860000000  0.5277780000000 1.0
C      1  0.4052420000000  0.5251210000000  0.5249350000000 1.0
C      1  0.4425360000000  0.4266030000000  0.5204760000000 1.0
C      1  0.5405540000000  0.4071900000000  0.5404760000000 1.0
C      1  0.5900410000000  0.4732630000000  0.5351770000000 1.0
C      1  0.5727130000000  0.5658980000000  0.5240880000000 1.0
C      1  0.5832180000000  0.4959150000000  0.4806930000000 1.0
C      1  0.5358610000000  0.5756120000000  0.4696430000000 1.0
C      1  0.4390700000000  0.5811750000000  0.4732590000000 1.0
C      1  0.4083350000000  0.4867300000000  0.4740260000000 1.0
C      1  0.4701240000000  0.4064190000000  0.4824830000000 1.0
C      1  0.5555640000000  0.4364890000000  0.4765390000000 1.0
C      1  0.5254380000000  0.5235300000000  0.4544320000000 1.0
C      1  0.5005210000000  0.5349330000000  0.4469570000000 1.0
C      1  0.4739330000000  0.5174360000000  0.4479190000000 1.0
C      1  0.4745220000000  0.4869000000000  0.4450040000000 1.0
C      1  0.5023830000000  0.4741240000000  0.4490950000000 1.0
C      1  0.5245320000000  0.4955640000000  0.4483410000000 1.0
C      1  0.4956820000000  0.5694790000000  0.5710300000000 1.0
C      1  0.4387440000000  0.5365870000000  0.5668400000000 1.0
C      1  0.4602100000000  0.4369590000000  0.5718770000000 1.0
C      1  0.5087790000000  0.4315070000000  0.5859970000000 1.0
C      1  0.5659320000000  0.4549160000000  0.5699030000000 1.0
C      1  0.5531340000000  0.5541790000000  0.5700160000000 1.0
C      1  0.5092320000000  0.6052850000000  0.4981420000000 1.0
C      1  0.4109600000000  0.5665300000000  0.4915990000000 1.0
C      1  0.4123590000000  0.4552010000000  0.4838190000000 1.0
C      1  0.4977000000000  0.3978070000000  0.4985360000000 1.0
C      1  0.5967980000000  0.4413090000000  0.5080120000000 1.0
C      1  0.5920110000000  0.5410810000000  0.4971580000000 1.0
C      1  0.5114370000000  0.4049040000000  0.5447410000000 1.0
C      1  0.5773020000000  0.4499380000000  0.5446410000000 1.0
C      1  0.5691300000000  0.5393080000000  0.5432710000000 1.0
C      1  0.5114610000000  0.5795470000000  0.5419370000000 1.0
C      1  0.4303740000000  0.5428260000000  0.5353460000000 1.0
C      1  0.4284040000000  0.4550020000000  0.5328180000000 1.0
C      1  0.4825730000000  0.4987070000000  0.5028030000000 1.0
END
