TITL C-2622966-9038-588 7.55222053416258e-05 125000 -1084.19990087667 0 0 190 (C1) n - 1
REM
REM in /nfs/bkarasulu/CARBON/AIRSS/Generating-Clusters/AIREBO/with-SteepDescent/Higher-Symm/SD-CG/HFTN-CG
REM
REM
REM
REM
REM
REM ./C.cell (b20cbc046b6831c77cfcea5457e17084)
REM
REM compiler GCC version 9.2.1 20190827 (Red Hat 9.2.1-1)
REM options -cpp -mtune=generic -march=x86-64 -g -O0 -fpre-include=/usr/include/finclude/math-vector-fortran.h
REM seed 470722218 -1072666984 22463549 1537775041 -451426069 1842267256 -903736753 -1870134564 -385684671 1929392241 1644061910 1616402510 1594357581 -1218756920 376300448 988478303 -1519833320 1493123796 1513396989 682184967 372640055 258386265 1239221295 -25888182 -739448831 677064572 -1302166560 -2036823206 216708755 1480066288 585357479 385887182 -1633480674
REM
CELL 1.54180   50.00000   50.00000   50.00000   90.00000   90.00000   90.00000
LATT -1
SFAC C  
C      1  0.3997370000000  0.4785750000000  0.4811260000000 1.0
C      1  0.3995040000000  0.5118880000000  0.4767040000000 1.0
C      1  0.3996200000000  0.5289530000000  0.5034300000000 1.0
C      1  0.3992900000000  0.5033880000000  0.5252650000000 1.0
C      1  0.3958880000000  0.4758480000000  0.5112340000000 1.0
C      1  0.4583340000000  0.5332860000000  0.4777200000000 1.0
C      1  0.4723960000000  0.5355810000000  0.5085940000000 1.0
C      1  0.4691530000000  0.4959890000000  0.5327840000000 1.0
C      1  0.4769740000000  0.4843460000000  0.5014220000000 1.0
C      1  0.4816350000000  0.4802500000000  0.4678900000000 1.0
C      1  0.5869130000000  0.5785480000000  0.4947220000000 1.0
C      1  0.5924190000000  0.5192510000000  0.5781220000000 1.0
C      1  0.5926950000000  0.4296860000000  0.5505360000000 1.0
C      1  0.5934020000000  0.4356380000000  0.4611750000000 1.0
C      1  0.5899550000000  0.5299190000000  0.4253290000000 1.0
C      1  0.4075980000000  0.4922970000000  0.5626780000000 1.0
C      1  0.4157150000000  0.4329890000000  0.5188530000000 1.0
C      1  0.4033280000000  0.4715560000000  0.4393590000000 1.0
C      1  0.3949820000000  0.5508570000000  0.4502100000000 1.0
C      1  0.4185560000000  0.5681320000000  0.5244220000000 1.0
C      1  0.5447780000000  0.4367540000000  0.4571530000000 1.0
C      1  0.5407670000000  0.5304200000000  0.4277020000000 1.0
C      1  0.5364880000000  0.5783550000000  0.4971440000000 1.0
C      1  0.5444490000000  0.5201810000000  0.5723790000000 1.0
C      1  0.5446920000000  0.4285880000000  0.5448560000000 1.0
C      1  0.4687510000000  0.5380030000000  0.4225200000000 1.0
C      1  0.4844140000000  0.6023980000000  0.5059980000000 1.0
C      1  0.4858720000000  0.5213280000000  0.5903340000000 1.0
C      1  0.4725410000000  0.4139420000000  0.5440080000000 1.0
C      1  0.4902580000000  0.4211180000000  0.4387330000000 1.0
C      1  0.6246210000000  0.5195430000000  0.4853140000000 1.0
C      1  0.6220030000000  0.5175730000000  0.5181330000000 1.0
C      1  0.6244240000000  0.4868550000000  0.5288640000000 1.0
C      1  0.6196590000000  0.4698050000000  0.5007200000000 1.0
C      1  0.6234440000000  0.4889410000000  0.4740120000000 1.0
C      1  0.5734730000000  0.4576940000000  0.5867370000000 1.0
C      1  0.5800110000000  0.4116140000000  0.4976630000000 1.0
C      1  0.5739460000000  0.4864890000000  0.4074950000000 1.0
C      1  0.5749290000000  0.5740700000000  0.4568730000000 1.0
C      1  0.5782940000000  0.5658650000000  0.5603260000000 1.0
C      1  0.5351830000000  0.4446270000000  0.4888250000000 1.0
C      1  0.5318120000000  0.5006400000000  0.4416370000000 1.0
C      1  0.5315850000000  0.5482160000000  0.4830980000000 1.0
C      1  0.5336650000000  0.5328460000000  0.5422950000000 1.0
C      1  0.5334340000000  0.4606540000000  0.5467870000000 1.0
C      1  0.4755300000000  0.4874260000000  0.4149910000000 1.0
C      1  0.4727800000000  0.5769250000000  0.4553630000000 1.0
C      1  0.4779520000000  0.5641210000000  0.5607040000000 1.0
C      1  0.4777100000000  0.4590100000000  0.5705980000000 1.0
C      1  0.4793860000000  0.4166760000000  0.5008830000000 1.0
C      1  0.4627540000000  0.4344330000000  0.5767390000000 1.0
C      1  0.4579320000000  0.4115840000000  0.4749600000000 1.0
C      1  0.4601070000000  0.5035040000000  0.3969400000000 1.0
C      1  0.4589710000000  0.6009850000000  0.4673670000000 1.0
C      1  0.4675710000000  0.5569840000000  0.5878120000000 1.0
C      1  0.5779870000000  0.5342190000000  0.5220430000000 1.0
C      1  0.5740440000000  0.4857090000000  0.5396120000000 1.0
C      1  0.5742340000000  0.4665060000000  0.5116390000000 1.0
C      1  0.5744620000000  0.4882490000000  0.4621110000000 1.0
C      1  0.5754290000000  0.5198490000000  0.4741460000000 1.0
C      1  0.5472050000000  0.4724040000000  0.4966860000000 1.0
C      1  0.5429000000000  0.4950510000000  0.4732970000000 1.0
C      1  0.5479360000000  0.5242240000000  0.4896340000000 1.0
C      1  0.5509740000000  0.5188360000000  0.5200170000000 1.0
C      1  0.5421760000000  0.4866570000000  0.5266870000000 1.0
C      1  0.5064450000000  0.5230920000000  0.4462390000000 1.0
C      1  0.5085470000000  0.5520100000000  0.5079730000000 1.0
C      1  0.5118330000000  0.5107560000000  0.5520160000000 1.0
C      1  0.5112380000000  0.4425010000000  0.5284990000000 1.0
C      1  0.5182980000000  0.4639340000000  0.4688080000000 1.0
C      1  0.4579660000000  0.4445440000000  0.4213620000000 1.0
C      1  0.4368640000000  0.5620780000000  0.4226180000000 1.0
C      1  0.4602100000000  0.5981970000000  0.5373450000000 1.0
C      1  0.4527770000000  0.4897990000000  0.5963360000000 1.0
C      1  0.4448680000000  0.4046120000000  0.5170230000000 1.0
C      1  0.4818890000000  0.5169080000000  0.5563780000000 1.0
C      1  0.4774420000000  0.4403000000000  0.5253000000000 1.0
C      1  0.4898080000000  0.4487460000000  0.4580550000000 1.0
C      1  0.4728400000000  0.5234700000000  0.4483290000000 1.0
C      1  0.4779030000000  0.5691350000000  0.5089030000000 1.0
C      1  0.4362880000000  0.5580080000000  0.4733400000000 1.0
C      1  0.4385990000000  0.5401490000000  0.5445120000000 1.0
C      1  0.4443910000000  0.4785540000000  0.5470110000000 1.0
C      1  0.4431190000000  0.4529410000000  0.4825240000000 1.0
C      1  0.4394300000000  0.4880730000000  0.4411940000000 1.0
C      1  0.5313000000000  0.5632820000000  0.5272410000000 1.0
C      1  0.5318810000000  0.4893480000000  0.5652270000000 1.0
C      1  0.5323590000000  0.4256150000000  0.5131360000000 1.0
C      1  0.5353300000000  0.4665630000000  0.4426500000000 1.0
C      1  0.5260310000000  0.5483890000000  0.4525760000000 1.0
C      1  0.4778780000000  0.4754050000000  0.5934300000000 1.0
C      1  0.4701360000000  0.3875000000000  0.5124440000000 1.0
C      1  0.4804760000000  0.4608950000000  0.4093340000000 1.0
C      1  0.4590560000000  0.5785850000000  0.4249860000000 1.0
C      1  0.4821230000000  0.5912330000000  0.5549770000000 1.0
C      1  0.4507830000000  0.6008050000000  0.5059570000000 1.0
C      1  0.4569270000000  0.5177060000000  0.5981070000000 1.0
C      1  0.4425870000000  0.4199520000000  0.5456920000000 1.0
C      1  0.4596020000000  0.4123180000000  0.4320760000000 1.0
C      1  0.4422950000000  0.5361560000000  0.4112420000000 1.0
C      1  0.6051420000000  0.5131360000000  0.4581910000000 1.0
C      1  0.6000650000000  0.5360410000000  0.5009810000000 1.0
C      1  0.5992220000000  0.5065770000000  0.5408540000000 1.0
C      1  0.6031250000000  0.4610010000000  0.5287060000000 1.0
C      1  0.5946520000000  0.4718670000000  0.4776460000000 1.0
C      1  0.4470180000000  0.4378640000000  0.5102550000000 1.0
C      1  0.4323700000000  0.4586770000000  0.4307840000000 1.0
C      1  0.4230620000000  0.5591890000000  0.4458050000000 1.0
C      1  0.4500530000000  0.5678800000000  0.5284360000000 1.0
C      1  0.4336730000000  0.4842060000000  0.5771390000000 1.0
C      1  0.4085960000000  0.4628090000000  0.5545180000000 1.0
C      1  0.4253100000000  0.4202360000000  0.4693090000000 1.0
C      1  0.4028110000000  0.5004320000000  0.4310860000000 1.0
C      1  0.4005620000000  0.5754720000000  0.4736230000000 1.0
C      1  0.4025030000000  0.5567910000000  0.5448660000000 1.0
C      1  0.4690280000000  0.4939270000000  0.4443480000000 1.0
C      1  0.4817300000000  0.5573270000000  0.4759550000000 1.0
C      1  0.4801740000000  0.5446460000000  0.5404290000000 1.0
C      1  0.4849800000000  0.4693950000000  0.5412480000000 1.0
C      1  0.4918020000000  0.4412690000000  0.4881890000000 1.0
C      1  0.5397700000000  0.5501730000000  0.5841170000000 1.0
C      1  0.5354460000000  0.4295880000000  0.5760810000000 1.0
C      1  0.5340910000000  0.4082610000000  0.4723920000000 1.0
C      1  0.5336280000000  0.5131200000000  0.4009830000000 1.0
C      1  0.5225990000000  0.5964520000000  0.4718310000000 1.0
C      1  0.5874070000000  0.5516020000000  0.4765510000000 1.0
C      1  0.5891740000000  0.5370640000000  0.5522230000000 1.0
C      1  0.5866440000000  0.4603740000000  0.5584750000000 1.0
C      1  0.5880820000000  0.4422400000000  0.4927260000000 1.0
C      1  0.5876740000000  0.4988370000000  0.4327580000000 1.0
C      1  0.5317040000000  0.5822650000000  0.5507730000000 1.0
C      1  0.5272950000000  0.4734110000000  0.5911800000000 1.0
C      1  0.5253650000000  0.3954150000000  0.5060340000000 1.0
C      1  0.5296010000000  0.4678290000000  0.4120800000000 1.0
C      1  0.5188490000000  0.5777430000000  0.4437360000000 1.0
C      1  0.4086950000000  0.5238710000000  0.5501040000000 1.0
C      1  0.4007920000000  0.4550410000000  0.5284880000000 1.0
C      1  0.4138700000000  0.4520310000000  0.4652120000000 1.0
C      1  0.3934170000000  0.5212900000000  0.4494250000000 1.0
C      1  0.4128090000000  0.5569150000000  0.4979120000000 1.0
C      1  0.4930550000000  0.5789170000000  0.4294630000000 1.0
C      1  0.5091320000000  0.5998580000000  0.5501920000000 1.0
C      1  0.5034800000000  0.4819130000000  0.6043830000000 1.0
C      1  0.5019850000000  0.3850090000000  0.5193600000000 1.0
C      1  0.5073070000000  0.4515730000000  0.4047620000000 1.0
C      1  0.5068380000000  0.6147220000000  0.5274460000000 1.0
C      1  0.5041570000000  0.5092050000000  0.6119050000000 1.0
C      1  0.4910960000000  0.3931520000000  0.5460250000000 1.0
C      1  0.5100690000000  0.4265010000000  0.4150450000000 1.0
C      1  0.4873570000000  0.5547990000000  0.4103500000000 1.0
C      1  0.4367030000000  0.4480820000000  0.5603040000000 1.0
C      1  0.4573630000000  0.4390650000000  0.4549400000000 1.0
C      1  0.4311640000000  0.5073450000000  0.4144260000000 1.0
C      1  0.4311220000000  0.5891060000000  0.4828460000000 1.0
C      1  0.4544370000000  0.5328080000000  0.5686200000000 1.0
C      1  0.4322680000000  0.5160130000000  0.4848170000000 1.0
C      1  0.4307880000000  0.5257870000000  0.5169510000000 1.0
C      1  0.4310910000000  0.4920480000000  0.5211480000000 1.0
C      1  0.4460910000000  0.4806390000000  0.4972140000000 1.0
C      1  0.4303370000000  0.4882160000000  0.4692200000000 1.0
C      1  0.5101790000000  0.4222580000000  0.5822020000000 1.0
C      1  0.5123170000000  0.3942260000000  0.4580320000000 1.0
C      1  0.5087250000000  0.5151260000000  0.3904180000000 1.0
C      1  0.5032340000000  0.6193590000000  0.4751210000000 1.0
C      1  0.5157730000000  0.5544350000000  0.5955730000000 1.0
C      1  0.5733440000000  0.4303470000000  0.4468820000000 1.0
C      1  0.5686110000000  0.5428540000000  0.4221700000000 1.0
C      1  0.5652550000000  0.5901260000000  0.4993080000000 1.0
C      1  0.5704350000000  0.5128930000000  0.5888570000000 1.0
C      1  0.5727500000000  0.4155360000000  0.5445550000000 1.0
C      1  0.4794100000000  0.4147760000000  0.5890890000000 1.0
C      1  0.4855920000000  0.3940860000000  0.4681300000000 1.0
C      1  0.4779420000000  0.5169570000000  0.3787120000000 1.0
C      1  0.4767640000000  0.6214680000000  0.4647530000000 1.0
C      1  0.4866450000000  0.5591120000000  0.6080090000000 1.0
C      1  0.5025210000000  0.4639820000000  0.5055090000000 1.0
C      1  0.5089020000000  0.4955490000000  0.4745140000000 1.0
C      1  0.4978590000000  0.5274330000000  0.4788520000000 1.0
C      1  0.5018660000000  0.5187470000000  0.5104120000000 1.0
C      1  0.5082780000000  0.4897210000000  0.5269650000000 1.0
C      1  0.4985650000000  0.3936410000000  0.5733340000000 1.0
C      1  0.5130810000000  0.3982010000000  0.4279460000000 1.0
C      1  0.4951460000000  0.5435660000000  0.3864530000000 1.0
C      1  0.5040090000000  0.6305090000000  0.5020090000000 1.0
C      1  0.5062680000000  0.5371860000000  0.6207320000000 1.0
C      1  0.5457420000000  0.4517010000000  0.5902970000000 1.0
C      1  0.5562080000000  0.4000940000000  0.4939040000000 1.0
C      1  0.5461200000000  0.4878300000000  0.4010670000000 1.0
C      1  0.5495260000000  0.5821370000000  0.4565420000000 1.0
C      1  0.5511550000000  0.5707150000000  0.5685390000000 1.0
END
