TITL C-2622953-3516-699 0.00049838131528274 125000 -339.771844890068 0 0 65 (C1) n - 1
REM
REM in /nfs/bkarasulu/CARBON/AIRSS/Generating-Clusters/AIREBO/with-SteepDescent/Higher-Symm/SD-CG/HFTN-CG
REM
REM
REM
REM
REM
REM ./C.cell (b20cbc046b6831c77cfcea5457e17084)
REM
REM compiler GCC version 9.2.1 20190827 (Red Hat 9.2.1-1)
REM options -cpp -mtune=generic -march=x86-64 -g -O0 -fpre-include=/usr/include/finclude/math-vector-fortran.h
REM seed 154318472 -2103170408 -294351336 -956148506 1011891339 -1355196799 1656982747 62906580 -426732411 1669693827 1432275313 540175719 -59756305 34420449 12885459 2003245326 -1057117723 638197619 274275252 -1384669860 989090993 -385383091 1365903100 1658985226 -1460417279 -815101147 1037431058 584249112 1828575647 611053951 -664047066 130108042 -1000211136
REM
CELL 1.54180   50.00000   50.00000   50.00000   90.00000   90.00000   90.00000
LATT -1
SFAC C  
C      1  0.4388260000000  0.5382290000000  0.5010420000000 1.0
C      1  0.4969100000000  0.4371320000000  0.5310040000000 1.0
C      1  0.5338490000000  0.5120460000000  0.4344980000000 1.0
C      1  0.5627860000000  0.5300650000000  0.4954380000000 1.0
C      1  0.4326480000000  0.4703390000000  0.5085750000000 1.0
C      1  0.5702110000000  0.4572100000000  0.5075690000000 1.0
C      1  0.5057580000000  0.4386960000000  0.4659550000000 1.0
C      1  0.4807030000000  0.5786870000000  0.4521170000000 1.0
C      1  0.4941260000000  0.5649060000000  0.5389780000000 1.0
C      1  0.4561010000000  0.5017540000000  0.5638310000000 1.0
C      1  0.5377150000000  0.4957160000000  0.5623800000000 1.0
C      1  0.4660810000000  0.4999050000000  0.4376050000000 1.0
C      1  0.4724040000000  0.5791550000000  0.4783730000000 1.0
C      1  0.4747650000000  0.4756990000000  0.5650750000000 1.0
C      1  0.5784720000000  0.4712180000000  0.4795490000000 1.0
C      1  0.5216410000000  0.5641530000000  0.5254440000000 1.0
C      1  0.4669360000000  0.4309590000000  0.5184170000000 1.0
C      1  0.5361340000000  0.4322370000000  0.4759860000000 1.0
C      1  0.5180460000000  0.4819090000000  0.4361450000000 1.0
C      1  0.4792650000000  0.5276280000000  0.4396060000000 1.0
C      1  0.5193360000000  0.5233160000000  0.5583760000000 1.0
C      1  0.4195620000000  0.4835370000000  0.5342940000000 1.0
C      1  0.5650840000000  0.5210660000000  0.5281560000000 1.0
C      1  0.4423640000000  0.5210440000000  0.4785460000000 1.0
C      1  0.5505870000000  0.4378950000000  0.5062740000000 1.0
C      1  0.4898910000000  0.5584370000000  0.4376470000000 1.0
C      1  0.4319910000000  0.5057250000000  0.5489640000000 1.0
C      1  0.4411080000000  0.4394960000000  0.5164070000000 1.0
C      1  0.5498130000000  0.5571930000000  0.4843610000000 1.0
C      1  0.4523200000000  0.5631430000000  0.4997570000000 1.0
C      1  0.4926180000000  0.5454650000000  0.5597350000000 1.0
C      1  0.4982950000000  0.4525150000000  0.5587280000000 1.0
C      1  0.5049210000000  0.4513720000000  0.4362710000000 1.0
C      1  0.5646620000000  0.5142440000000  0.4487100000000 1.0
C      1  0.4410750000000  0.4949640000000  0.4483580000000 1.0
C      1  0.5657320000000  0.5026850000000  0.5521420000000 1.0
C      1  0.4728880000000  0.4872230000000  0.4773040000000 1.0
C      1  0.4660350000000  0.4676330000000  0.5027460000000 1.0
C      1  0.4990800000000  0.4711180000000  0.4704280000000 1.0
C      1  0.5364710000000  0.4853340000000  0.5311770000000 1.0
C      1  0.4630790000000  0.5027980000000  0.5244640000000 1.0
C      1  0.5352220000000  0.4906730000000  0.4607920000000 1.0
C      1  0.5191560000000  0.4759420000000  0.4939730000000 1.0
C      1  0.4802040000000  0.5308730000000  0.5023820000000 1.0
C      1  0.5324270000000  0.5300860000000  0.5077640000000 1.0
C      1  0.5100110000000  0.4677060000000  0.5239620000000 1.0
C      1  0.4934880000000  0.5112120000000  0.5213600000000 1.0
C      1  0.5044960000000  0.5378680000000  0.4686140000000 1.0
C      1  0.4857320000000  0.5626640000000  0.5061070000000 1.0
C      1  0.5070150000000  0.4853590000000  0.5621820000000 1.0
C      1  0.5619520000000  0.5010380000000  0.4799360000000 1.0
C      1  0.5164980000000  0.5561300000000  0.4927940000000 1.0
C      1  0.4853860000000  0.4411350000000  0.4930720000000 1.0
C      1  0.5168880000000  0.4340020000000  0.5039590000000 1.0
C      1  0.4853580000000  0.4788950000000  0.4402580000000 1.0
C      1  0.5127430000000  0.5331430000000  0.4373290000000 1.0
C      1  0.4873870000000  0.5122230000000  0.5547930000000 1.0
C      1  0.4406030000000  0.5230180000000  0.5248580000000 1.0
C      1  0.5619980000000  0.4885130000000  0.5115550000000 1.0
C      1  0.4388930000000  0.4872460000000  0.4807350000000 1.0
C      1  0.4747910000000  0.5195850000000  0.4723420000000 1.0
C      1  0.4797520000000  0.4750890000000  0.5314470000000 1.0
C      1  0.5453730000000  0.4647960000000  0.4772610000000 1.0
C      1  0.5384660000000  0.5397080000000  0.5385130000000 1.0
C      1  0.5194580000000  0.5041350000000  0.5108120000000 1.0
END
