TITL C-2622967-6265-114 0.00367865619733176 125000 -623.983670825457 0 0 115 (C1) n - 1
REM
REM in /nfs/bkarasulu/CARBON/AIRSS/Generating-Clusters/AIREBO/with-SteepDescent/Higher-Symm/SD-CG/HFTN-CG
REM
REM
REM
REM
REM
REM ./C.cell (b20cbc046b6831c77cfcea5457e17084)
REM
REM compiler GCC version 9.2.1 20190827 (Red Hat 9.2.1-1)
REM options -cpp -mtune=generic -march=x86-64 -g -O0 -fpre-include=/usr/include/finclude/math-vector-fortran.h
REM seed -657223218 -963228318 -1372998959 -1379456998 -1285838473 904939530 960734588 -1740753382 -321386831 1495967181 1675196199 -989417970 -185441575 -2089758269 1519364007 -73276186 515957265 2117184861 -943019331 1931391380 -421498528 471515715 33884803 1421594288 -857842607 244512877 646502263 -591599342 -203593426 2004032400 -306114725 1139186506 -1842955924
REM
CELL 1.54180   50.00000   50.00000   50.00000   90.00000   90.00000   90.00000
LATT -1
SFAC C  
C      1  0.4573740000000  0.4858400000000  0.4446420000000 1.0
C      1  0.5008140000000  0.4554260000000  0.4390190000000 1.0
C      1  0.5398650000000  0.4877340000000  0.4401850000000 1.0
C      1  0.5243650000000  0.5381960000000  0.4381490000000 1.0
C      1  0.4724050000000  0.5375300000000  0.4417630000000 1.0
C      1  0.4328480000000  0.5046360000000  0.4452640000000 1.0
C      1  0.4771810000000  0.4375510000000  0.4477740000000 1.0
C      1  0.5500310000000  0.4587000000000  0.4444740000000 1.0
C      1  0.5548000000000  0.5345820000000  0.4396430000000 1.0
C      1  0.4839140000000  0.5671180000000  0.4412490000000 1.0
C      1  0.5520660000000  0.4507360000000  0.4836100000000 1.0
C      1  0.5395330000000  0.5404190000000  0.4859930000000 1.0
C      1  0.4996080000000  0.5627810000000  0.4774560000000 1.0
C      1  0.4413800000000  0.4891330000000  0.4811340000000 1.0
C      1  0.4753870000000  0.4607430000000  0.4831860000000 1.0
C      1  0.5800730000000  0.5130860000000  0.5382610000000 1.0
C      1  0.5024670000000  0.5852960000000  0.5318800000000 1.0
C      1  0.4256970000000  0.5315610000000  0.5368640000000 1.0
C      1  0.4439580000000  0.4355920000000  0.5318560000000 1.0
C      1  0.5334730000000  0.4292280000000  0.5344280000000 1.0
C      1  0.4492910000000  0.4172520000000  0.5055080000000 1.0
C      1  0.5639340000000  0.4211950000000  0.5380180000000 1.0
C      1  0.5898140000000  0.5257520000000  0.5016260000000 1.0
C      1  0.5085520000000  0.6045400000000  0.5055560000000 1.0
C      1  0.4000290000000  0.5235210000000  0.5149120000000 1.0
C      1  0.4951030000000  0.4778550000000  0.4621470000000 1.0
C      1  0.5234050000000  0.4921080000000  0.4696360000000 1.0
C      1  0.5172590000000  0.5240900000000  0.4670510000000 1.0
C      1  0.4847820000000  0.5322620000000  0.4730140000000 1.0
C      1  0.4718430000000  0.5008270000000  0.4715500000000 1.0
C      1  0.4927920000000  0.4703000000000  0.5592460000000 1.0
C      1  0.5235450000000  0.4847030000000  0.5611360000000 1.0
C      1  0.5219710000000  0.5178750000000  0.5613420000000 1.0
C      1  0.4903110000000  0.5256920000000  0.5607940000000 1.0
C      1  0.4723570000000  0.4974840000000  0.5597810000000 1.0
C      1  0.5305920000000  0.5126540000000  0.5035230000000 1.0
C      1  0.5008560000000  0.5283600000000  0.5034770000000 1.0
C      1  0.4736840000000  0.5101460000000  0.5042110000000 1.0
C      1  0.4844430000000  0.4810660000000  0.5038580000000 1.0
C      1  0.5162540000000  0.4835300000000  0.5017620000000 1.0
C      1  0.5907850000000  0.4987150000000  0.5125580000000 1.0
C      1  0.5325420000000  0.5902250000000  0.5205570000000 1.0
C      1  0.4221450000000  0.5486680000000  0.5080370000000 1.0
C      1  0.4299550000000  0.4515580000000  0.5116500000000 1.0
C      1  0.5258320000000  0.4238980000000  0.5035200000000 1.0
C      1  0.5000160000000  0.4374640000000  0.4860340000000 1.0
C      1  0.5551950000000  0.4823610000000  0.4767380000000 1.0
C      1  0.5394240000000  0.5735120000000  0.4886990000000 1.0
C      1  0.4559420000000  0.5442870000000  0.4864360000000 1.0
C      1  0.4436030000000  0.4582890000000  0.4855290000000 1.0
C      1  0.5074660000000  0.5956850000000  0.4797850000000 1.0
C      1  0.4077720000000  0.5309850000000  0.4827980000000 1.0
C      1  0.4464390000000  0.4159890000000  0.4771460000000 1.0
C      1  0.5478500000000  0.4172170000000  0.4807450000000 1.0
C      1  0.5851920000000  0.5241980000000  0.4739580000000 1.0
C      1  0.5913810000000  0.4719350000000  0.5218640000000 1.0
C      1  0.5556930000000  0.5789180000000  0.5366950000000 1.0
C      1  0.4419810000000  0.5703210000000  0.5152760000000 1.0
C      1  0.4127170000000  0.4710670000000  0.5217350000000 1.0
C      1  0.5069570000000  0.4092130000000  0.5257850000000 1.0
C      1  0.5090080000000  0.4655870000000  0.5297220000000 1.0
C      1  0.5385640000000  0.4960780000000  0.5324780000000 1.0
C      1  0.5166290000000  0.5355600000000  0.5327490000000 1.0
C      1  0.4706880000000  0.5267080000000  0.5330310000000 1.0
C      1  0.4674660000000  0.4806290000000  0.5304240000000 1.0
C      1  0.4487300000000  0.5504830000000  0.5629200000000 1.0
C      1  0.4410010000000  0.4631460000000  0.5624970000000 1.0
C      1  0.5101920000000  0.4336610000000  0.5740400000000 1.0
C      1  0.5699810000000  0.4873230000000  0.5671440000000 1.0
C      1  0.5314950000000  0.5561960000000  0.5745110000000 1.0
C      1  0.5132780000000  0.5668730000000  0.4401280000000 1.0
C      1  0.4415230000000  0.5322030000000  0.4455490000000 1.0
C      1  0.4534320000000  0.4541300000000  0.4470160000000 1.0
C      1  0.5274350000000  0.4419140000000  0.4427200000000 1.0
C      1  0.5632070000000  0.5074200000000  0.4369470000000 1.0
C      1  0.5530420000000  0.5088020000000  0.5718510000000 1.0
C      1  0.5047460000000  0.5503340000000  0.5767740000000 1.0
C      1  0.4518880000000  0.5230510000000  0.5690520000000 1.0
C      1  0.4649320000000  0.4621640000000  0.5769870000000 1.0
C      1  0.5242090000000  0.4569510000000  0.5798680000000 1.0
C      1  0.4780480000000  0.5609910000000  0.5007360000000 1.0
C      1  0.4270250000000  0.5048320000000  0.5060260000000 1.0
C      1  0.4783540000000  0.4330570000000  0.5118770000000 1.0
C      1  0.5636120000000  0.4445360000000  0.5132970000000 1.0
C      1  0.5712420000000  0.5427250000000  0.5129850000000 1.0
C      1  0.4739210000000  0.4146820000000  0.4666580000000 1.0
C      1  0.5782980000000  0.4533070000000  0.4625950000000 1.0
C      1  0.5639840000000  0.5417970000000  0.4655280000000 1.0
C      1  0.4729860000000  0.5810380000000  0.4666950000000 1.0
C      1  0.4117800000000  0.5012860000000  0.4696260000000 1.0
C      1  0.5642570000000  0.5691930000000  0.5092790000000 1.0
C      1  0.4547960000000  0.5839620000000  0.4913660000000 1.0
C      1  0.3995910000000  0.4863760000000  0.4980950000000 1.0
C      1  0.4913920000000  0.4056730000000  0.4944950000000 1.0
C      1  0.5897800000000  0.4539690000000  0.4946880000000 1.0
C      1  0.4980970000000  0.4765420000000  0.4175690000000 1.0
C      1  0.5205190000000  0.4936980000000  0.4175600000000 1.0
C      1  0.5112980000000  0.5206620000000  0.4174680000000 1.0
C      1  0.4832150000000  0.5198560000000  0.4201240000000 1.0
C      1  0.4750640000000  0.4927260000000  0.4208020000000 1.0
C      1  0.4573500000000  0.5644310000000  0.5391570000000 1.0
C      1  0.4249870000000  0.4816480000000  0.5470340000000 1.0
C      1  0.4969300000000  0.4261810000000  0.5514030000000 1.0
C      1  0.5733420000000  0.4701430000000  0.5445650000000 1.0
C      1  0.5497230000000  0.5568200000000  0.5531680000000 1.0
C      1  0.5426370000000  0.4623080000000  0.5333120000000 1.0
C      1  0.5497520000000  0.5281200000000  0.5349170000000 1.0
C      1  0.4889480000000  0.5552960000000  0.5305280000000 1.0
C      1  0.4444210000000  0.5050970000000  0.5324740000000 1.0
C      1  0.4741810000000  0.4488490000000  0.5405080000000 1.0
C      1  0.5273830000000  0.5840010000000  0.4586780000000 1.0
C      1  0.4338770000000  0.5429680000000  0.4702340000000 1.0
C      1  0.4327450000000  0.4390460000000  0.4627850000000 1.0
C      1  0.5229420000000  0.4250770000000  0.4638570000000 1.0
C      1  0.5751330000000  0.4982950000000  0.4629800000000 1.0
END
