TITL C-2622958-629-453 5.10128222642637e-05 125000 -617.850666495169 0 0 114 (C1) n - 1
REM
REM in /nfs/bkarasulu/CARBON/AIRSS/Generating-Clusters/AIREBO/with-SteepDescent/Higher-Symm/SD-CG/HFTN-CG
REM
REM
REM
REM
REM
REM ./C.cell (b20cbc046b6831c77cfcea5457e17084)
REM
REM compiler GCC version 9.2.1 20190827 (Red Hat 9.2.1-1)
REM options -cpp -mtune=generic -march=x86-64 -g -O0 -fpre-include=/usr/include/finclude/math-vector-fortran.h
REM seed 1423077941 -1866135410 529008558 1380666030 794851188 1864256266 -795061151 1606461576 -416961080 -646340538 1663182678 -1095495011 1885273347 -1790514506 -222087345 81947925 -968012917 -1298857685 -800269464 -331345475 -627780455 -1613158045 129426332 853283174 778206899 276052231 722813883 742582878 1637150939 -1957750467 1620130470 478685796 287998007
REM
CELL 1.54180   50.00000   50.00000   50.00000   90.00000   90.00000   90.00000
LATT -1
SFAC C  
C      1  0.5151000000000  0.5466430000000  0.4387780000000 1.0
C      1  0.4356130000000  0.5417620000000  0.5015400000000 1.0
C      1  0.5433530000000  0.5439890000000  0.5550320000000 1.0
C      1  0.5285600000000  0.4585120000000  0.5607620000000 1.0
C      1  0.4306980000000  0.4469200000000  0.4955600000000 1.0
C      1  0.5451960000000  0.4468700000000  0.4612730000000 1.0
C      1  0.4713970000000  0.4597370000000  0.5605600000000 1.0
C      1  0.5644120000000  0.4381510000000  0.4880280000000 1.0
C      1  0.4634460000000  0.4457230000000  0.4440080000000 1.0
C      1  0.4826180000000  0.5525170000000  0.4302660000000 1.0
C      1  0.5580060000000  0.5384140000000  0.5057010000000 1.0
C      1  0.4599360000000  0.5569430000000  0.5570930000000 1.0
C      1  0.5658760000000  0.4695650000000  0.4486080000000 1.0
C      1  0.4213680000000  0.4676320000000  0.4729190000000 1.0
C      1  0.5148750000000  0.4712850000000  0.5876690000000 1.0
C      1  0.5729570000000  0.5289200000000  0.5550700000000 1.0
C      1  0.4203080000000  0.5319380000000  0.5291880000000 1.0
C      1  0.5174220000000  0.5283420000000  0.4102150000000 1.0
C      1  0.4327360000000  0.5368990000000  0.5550360000000 1.0
C      1  0.5823980000000  0.5307310000000  0.5280650000000 1.0
C      1  0.4851460000000  0.5308850000000  0.4049210000000 1.0
C      1  0.4425490000000  0.4658750000000  0.4463080000000 1.0
C      1  0.5858430000000  0.4773690000000  0.4724030000000 1.0
C      1  0.4865410000000  0.4718930000000  0.5884760000000 1.0
C      1  0.5284740000000  0.4544700000000  0.4326560000000 1.0
C      1  0.4183610000000  0.4555910000000  0.5215070000000 1.0
C      1  0.5592890000000  0.4481870000000  0.5585860000000 1.0
C      1  0.5265520000000  0.5445980000000  0.5806000000000 1.0
C      1  0.4212920000000  0.5523250000000  0.4740510000000 1.0
C      1  0.5472970000000  0.5508640000000  0.4400320000000 1.0
C      1  0.4808390000000  0.5479200000000  0.5774210000000 1.0
C      1  0.5683010000000  0.5570800000000  0.4792110000000 1.0
C      1  0.4513960000000  0.5488030000000  0.4400060000000 1.0
C      1  0.4824920000000  0.4514710000000  0.4240620000000 1.0
C      1  0.5788780000000  0.4479460000000  0.5165240000000 1.0
C      1  0.4393660000000  0.4549730000000  0.5617070000000 1.0
C      1  0.5093990000000  0.5551280000000  0.5238810000000 1.0
C      1  0.5113300000000  0.5574810000000  0.4714160000000 1.0
C      1  0.4600560000000  0.5604820000000  0.5023330000000 1.0
C      1  0.5124390000000  0.4387310000000  0.4655020000000 1.0
C      1  0.5280230000000  0.4406620000000  0.5330680000000 1.0
C      1  0.4621180000000  0.4504430000000  0.4999360000000 1.0
C      1  0.4788470000000  0.4383810000000  0.4716610000000 1.0
C      1  0.4722200000000  0.4421710000000  0.5314260000000 1.0
C      1  0.5411140000000  0.4501770000000  0.5054430000000 1.0
C      1  0.4761590000000  0.5555640000000  0.5292640000000 1.0
C      1  0.4782400000000  0.5561310000000  0.4791920000000 1.0
C      1  0.5317770000000  0.5589580000000  0.4985620000000 1.0
C      1  0.5528610000000  0.4103870000000  0.4756190000000 1.0
C      1  0.4608130000000  0.4114390000000  0.4789440000000 1.0
C      1  0.4867000000000  0.4154690000000  0.5331250000000 1.0
C      1  0.5485550000000  0.5835840000000  0.5154260000000 1.0
C      1  0.4549970000000  0.5860370000000  0.5441750000000 1.0
C      1  0.4810550000000  0.5758130000000  0.4530020000000 1.0
C      1  0.4549820000000  0.5877900000000  0.5188230000000 1.0
C      1  0.5360620000000  0.5670150000000  0.5371420000000 1.0
C      1  0.5074080000000  0.5903700000000  0.4617530000000 1.0
C      1  0.4371660000000  0.4165370000000  0.4872990000000 1.0
C      1  0.5291870000000  0.4106420000000  0.4662610000000 1.0
C      1  0.5118760000000  0.4149950000000  0.5333280000000 1.0
C      1  0.4624810000000  0.5149600000000  0.4176870000000 1.0
C      1  0.4526000000000  0.5202650000000  0.5733650000000 1.0
C      1  0.5931840000000  0.5182020000000  0.5009970000000 1.0
C      1  0.4587810000000  0.4892090000000  0.5842530000000 1.0
C      1  0.4529690000000  0.4851780000000  0.4263910000000 1.0
C      1  0.5953190000000  0.4895650000000  0.5012680000000 1.0
C      1  0.5468560000000  0.4827410000000  0.5860960000000 1.0
C      1  0.5536970000000  0.4847950000000  0.4273530000000 1.0
C      1  0.4044990000000  0.4846590000000  0.4980520000000 1.0
C      1  0.5433340000000  0.5145780000000  0.4146280000000 1.0
C      1  0.5538810000000  0.5124230000000  0.5766490000000 1.0
C      1  0.4039260000000  0.5174350000000  0.5029880000000 1.0
C      1  0.5640280000000  0.5006360000000  0.4795490000000 1.0
C      1  0.4622130000000  0.4958500000000  0.4637820000000 1.0
C      1  0.4852310000000  0.4898650000000  0.5529330000000 1.0
C      1  0.5570050000000  0.5048970000000  0.5114800000000 1.0
C      1  0.4613260000000  0.5024790000000  0.5331010000000 1.0
C      1  0.4864470000000  0.5026260000000  0.4472160000000 1.0
C      1  0.4426240000000  0.5087000000000  0.5056570000000 1.0
C      1  0.5396460000000  0.5139870000000  0.5394160000000 1.0
C      1  0.5164170000000  0.5137930000000  0.4474580000000 1.0
C      1  0.4362850000000  0.4949550000000  0.4770300000000 1.0
C      1  0.5394560000000  0.4956660000000  0.4630430000000 1.0
C      1  0.5192350000000  0.4903180000000  0.5528340000000 1.0
C      1  0.5787180000000  0.5283510000000  0.4731430000000 1.0
C      1  0.4441980000000  0.5186800000000  0.4461450000000 1.0
C      1  0.4863550000000  0.5161330000000  0.5744930000000 1.0
C      1  0.5751080000000  0.4789730000000  0.5243270000000 1.0
C      1  0.4430140000000  0.4870500000000  0.5542060000000 1.0
C      1  0.4865320000000  0.4832260000000  0.4212260000000 1.0
C      1  0.4250490000000  0.4869680000000  0.5250440000000 1.0
C      1  0.5615920000000  0.4802430000000  0.5555350000000 1.0
C      1  0.5197070000000  0.4857480000000  0.4282990000000 1.0
C      1  0.4183960000000  0.5208170000000  0.4723530000000 1.0
C      1  0.5558910000000  0.5199800000000  0.4457700000000 1.0
C      1  0.5199280000000  0.5128700000000  0.5788890000000 1.0
C      1  0.5250880000000  0.5097230000000  0.5022080000000 1.0
C      1  0.4875160000000  0.5254010000000  0.4724910000000 1.0
C      1  0.4825820000000  0.5256980000000  0.5251190000000 1.0
C      1  0.5285490000000  0.4791700000000  0.4977840000000 1.0
C      1  0.4857170000000  0.4705510000000  0.5248620000000 1.0
C      1  0.4841390000000  0.4718080000000  0.4725770000000 1.0
C      1  0.4725480000000  0.4828070000000  0.5001390000000 1.0
C      1  0.5154270000000  0.4712750000000  0.5253080000000 1.0
C      1  0.5159290000000  0.4722250000000  0.4703450000000 1.0
C      1  0.4749840000000  0.5133660000000  0.4972680000000 1.0
C      1  0.5182470000000  0.5251730000000  0.4794480000000 1.0
C      1  0.5119820000000  0.5221200000000  0.5266300000000 1.0
C      1  0.5745440000000  0.4338630000000  0.5399290000000 1.0
C      1  0.4321000000000  0.5641620000000  0.4519900000000 1.0
C      1  0.5041980000000  0.5592540000000  0.5862280000000 1.0
C      1  0.5587980000000  0.5686780000000  0.4569380000000 1.0
C      1  0.5080930000000  0.4388510000000  0.4221270000000 1.0
C      1  0.4213570000000  0.4429280000000  0.5455220000000 1.0
END
