TITL C-2622967-6265-839 -0.00332659988404876 125000 -578.127145370643 0 0 102 (C1) n - 1
REM
REM in /nfs/bkarasulu/CARBON/AIRSS/Generating-Clusters/AIREBO/with-SteepDescent/Higher-Symm/SD-CG/HFTN-CG
REM
REM
REM
REM
REM
REM ./C.cell (b20cbc046b6831c77cfcea5457e17084)
REM
REM compiler GCC version 9.2.1 20190827 (Red Hat 9.2.1-1)
REM options -cpp -mtune=generic -march=x86-64 -g -O0 -fpre-include=/usr/include/finclude/math-vector-fortran.h
REM seed -735621139 -1658088805 -1598079332 977689301 -717302128 -1278279577 -93957701 843640357 -1583991980 1934271791 177223566 -813772020 -26912179 1991347175 -749788713 1757689294 744622734 1940080910 -740172858 275677313 -685037310 -887145985 -2098115970 -757377043 287547843 1211754958 1501283628 -23464455 -324236477 1323681071 58571610 819350478 1044479203
REM
CELL 1.54180   50.00000   50.00000   50.00000   90.00000   90.00000   90.00000
LATT -1
SFAC C  
C      1  0.4759630000000  0.5271940000000  0.4449690000000 1.0
C      1  0.4328380000000  0.5457700000000  0.4800100000000 1.0
C      1  0.4455430000000  0.5440190000000  0.5411370000000 1.0
C      1  0.4911320000000  0.5317910000000  0.5522340000000 1.0
C      1  0.5483680000000  0.5330770000000  0.5527800000000 1.0
C      1  0.5617160000000  0.5282520000000  0.5004430000000 1.0
C      1  0.5290990000000  0.5278030000000  0.4556270000000 1.0
C      1  0.4738790000000  0.5732580000000  0.5090530000000 1.0
C      1  0.4960590000000  0.5602030000000  0.5396160000000 1.0
C      1  0.5250300000000  0.5674510000000  0.5116930000000 1.0
C      1  0.5325590000000  0.5774920000000  0.4861850000000 1.0
C      1  0.5133600000000  0.5741490000000  0.4644010000000 1.0
C      1  0.4844480000000  0.5765640000000  0.4627140000000 1.0
C      1  0.4667710000000  0.5825030000000  0.4842010000000 1.0
C      1  0.5789590000000  0.5438690000000  0.5425680000000 1.0
C      1  0.5676310000000  0.5453010000000  0.4741770000000 1.0
C      1  0.5128220000000  0.5552190000000  0.4193360000000 1.0
C      1  0.4429480000000  0.5525270000000  0.4342780000000 1.0
C      1  0.4148150000000  0.5397350000000  0.5046100000000 1.0
C      1  0.4464840000000  0.5437650000000  0.5717170000000 1.0
C      1  0.5089380000000  0.5383320000000  0.5804790000000 1.0
C      1  0.4219020000000  0.5012580000000  0.5332750000000 1.0
C      1  0.4770940000000  0.5047900000000  0.5829390000000 1.0
C      1  0.5534160000000  0.5099250000000  0.5848990000000 1.0
C      1  0.5895860000000  0.5034660000000  0.5145910000000 1.0
C      1  0.5645880000000  0.5053240000000  0.4402420000000 1.0
C      1  0.4902620000000  0.5062490000000  0.4141100000000 1.0
C      1  0.4233790000000  0.5087760000000  0.4523880000000 1.0
C      1  0.5380600000000  0.4858240000000  0.5758480000000 1.0
C      1  0.5796630000000  0.4890890000000  0.5387290000000 1.0
C      1  0.5707110000000  0.4833540000000  0.4575860000000 1.0
C      1  0.5122010000000  0.4903940000000  0.4233300000000 1.0
C      1  0.4387250000000  0.4920970000000  0.4332520000000 1.0
C      1  0.4179020000000  0.4843850000000  0.5088500000000 1.0
C      1  0.4579610000000  0.4839350000000  0.5720700000000 1.0
C      1  0.4269540000000  0.5359980000000  0.4514770000000 1.0
C      1  0.4225180000000  0.5289270000000  0.5282580000000 1.0
C      1  0.4696900000000  0.5318460000000  0.5786290000000 1.0
C      1  0.5362010000000  0.5357310000000  0.5836250000000 1.0
C      1  0.5864350000000  0.5324970000000  0.5187840000000 1.0
C      1  0.5742600000000  0.5303710000000  0.4509240000000 1.0
C      1  0.4938300000000  0.5354910000000  0.4168010000000 1.0
C      1  0.5210420000000  0.4336590000000  0.4893600000000 1.0
C      1  0.5101110000000  0.4526570000000  0.4633520000000 1.0
C      1  0.4624160000000  0.4669330000000  0.4593160000000 1.0
C      1  0.4716680000000  0.4467770000000  0.4873620000000 1.0
C      1  0.4755930000000  0.4638540000000  0.5421790000000 1.0
C      1  0.5052430000000  0.4521850000000  0.5302970000000 1.0
C      1  0.5378400000000  0.4613180000000  0.5269100000000 1.0
C      1  0.5674450000000  0.4705340000000  0.5129570000000 1.0
C      1  0.5508300000000  0.4616050000000  0.4553940000000 1.0
C      1  0.5046510000000  0.4647400000000  0.4320200000000 1.0
C      1  0.4304430000000  0.4701520000000  0.4578710000000 1.0
C      1  0.4390860000000  0.4658970000000  0.5262100000000 1.0
C      1  0.4883680000000  0.4687020000000  0.5719030000000 1.0
C      1  0.5455980000000  0.4647720000000  0.5598350000000 1.0
C      1  0.5240180000000  0.5560940000000  0.4449490000000 1.0
C      1  0.4706260000000  0.5606050000000  0.4437610000000 1.0
C      1  0.4398650000000  0.5761450000000  0.4784690000000 1.0
C      1  0.4565070000000  0.5705310000000  0.5294420000000 1.0
C      1  0.4982330000000  0.5831960000000  0.5513530000000 1.0
C      1  0.5371040000000  0.5599740000000  0.5352380000000 1.0
C      1  0.5594550000000  0.5721740000000  0.4779620000000 1.0
C      1  0.4280370000000  0.4945170000000  0.4816340000000 1.0
C      1  0.4371910000000  0.4845080000000  0.5546030000000 1.0
C      1  0.5085900000000  0.4961900000000  0.5743400000000 1.0
C      1  0.5677270000000  0.5051090000000  0.5572650000000 1.0
C      1  0.5742920000000  0.4924530000000  0.4879910000000 1.0
C      1  0.5353870000000  0.5050080000000  0.4326940000000 1.0
C      1  0.4627320000000  0.5019850000000  0.4263730000000 1.0
C      1  0.4482690000000  0.5115890000000  0.5030470000000 1.0
C      1  0.4673710000000  0.5205490000000  0.5297890000000 1.0
C      1  0.5201910000000  0.5145760000000  0.5481510000000 1.0
C      1  0.5376890000000  0.5139050000000  0.5189860000000 1.0
C      1  0.5480180000000  0.5105600000000  0.4761540000000 1.0
C      1  0.5010350000000  0.5195800000000  0.4666370000000 1.0
C      1  0.4577990000000  0.5235150000000  0.4734830000000 1.0
C      1  0.4577260000000  0.4278370000000  0.4657810000000 1.0
C      1  0.4712600000000  0.4218920000000  0.5549950000000 1.0
C      1  0.5037480000000  0.4234150000000  0.5458510000000 1.0
C      1  0.5330480000000  0.4221900000000  0.5359390000000 1.0
C      1  0.5404280000000  0.4260420000000  0.5083680000000 1.0
C      1  0.5057010000000  0.4236170000000  0.4462070000000 1.0
C      1  0.4762890000000  0.4215010000000  0.4426150000000 1.0
C      1  0.4326080000000  0.4379340000000  0.4597710000000 1.0
C      1  0.4530330000000  0.4402370000000  0.5409210000000 1.0
C      1  0.4916130000000  0.4378100000000  0.5742150000000 1.0
C      1  0.5500240000000  0.4353770000000  0.5547420000000 1.0
C      1  0.5658150000000  0.4389300000000  0.5060420000000 1.0
C      1  0.5353800000000  0.4402260000000  0.4442700000000 1.0
C      1  0.4786410000000  0.4520730000000  0.4387030000000 1.0
C      1  0.5308810000000  0.4861510000000  0.5052520000000 1.0
C      1  0.5350250000000  0.4813580000000  0.4753040000000 1.0
C      1  0.5048020000000  0.4861770000000  0.4657220000000 1.0
C      1  0.4728360000000  0.4930780000000  0.4757170000000 1.0
C      1  0.4572840000000  0.4730590000000  0.4983790000000 1.0
C      1  0.4723860000000  0.4876830000000  0.5225750000000 1.0
C      1  0.5087550000000  0.4851750000000  0.5377360000000 1.0
C      1  0.4984810000000  0.5268460000000  0.4957670000000 1.0
C      1  0.4977320000000  0.5539080000000  0.5084050000000 1.0
C      1  0.5007410000000  0.5016380000000  0.5111230000000 1.0
C      1  0.4967060000000  0.4434150000000  0.5014380000000 1.0
END
