TITL C-2622954-8726-159 -0.00183671542457603 125000 -371.116942925653 0 0 65 (C1) n - 1
REM
REM in /nfs/bkarasulu/CARBON/AIRSS/Generating-Clusters/AIREBO/with-SteepDescent/Higher-Symm/SD-CG/HFTN-CG
REM
REM
REM
REM
REM
REM ./C.cell (b20cbc046b6831c77cfcea5457e17084)
REM
REM compiler GCC version 9.2.1 20190827 (Red Hat 9.2.1-1)
REM options -cpp -mtune=generic -march=x86-64 -g -O0 -fpre-include=/usr/include/finclude/math-vector-fortran.h
REM seed 1730965664 -455283089 -1785158644 -212720900 556521377 -715475357 300284831 299061036 -319474274 1367123865 -662828477 -1437397438 -2085828664 -726408989 -366584761 -141106141 791317099 -250892373 -540591801 613110338 252653986 537531312 -1304750574 116417239 -2043095735 2019547046 -837175414 -2102571157 95952458 953609659 1284565531 341912791 -385402385
REM
CELL 1.54180   50.00000   50.00000   50.00000   90.00000   90.00000   90.00000
LATT -1
SFAC C  
C      1  0.5599360000000  0.5394130000000  0.4794110000000 1.0
C      1  0.5440360000000  0.4792740000000  0.5671880000000 1.0
C      1  0.4783890000000  0.5630230000000  0.5447780000000 1.0
C      1  0.5631590000000  0.4629610000000  0.5261490000000 1.0
C      1  0.4362110000000  0.5416120000000  0.5227890000000 1.0
C      1  0.4390010000000  0.4648580000000  0.4759590000000 1.0
C      1  0.5377950000000  0.5151720000000  0.4428780000000 1.0
C      1  0.4595250000000  0.4801260000000  0.4349230000000 1.0
C      1  0.4628570000000  0.5195040000000  0.5586920000000 1.0
C      1  0.4785340000000  0.4405340000000  0.4597480000000 1.0
C      1  0.5239430000000  0.5614230000000  0.4553200000000 1.0
C      1  0.5224580000000  0.4396840000000  0.5420300000000 1.0
C      1  0.5620320000000  0.4838350000000  0.5436160000000 1.0
C      1  0.5444190000000  0.5638480000000  0.4740000000000 1.0
C      1  0.4811670000000  0.5398000000000  0.5630510000000 1.0
C      1  0.5551220000000  0.5170520000000  0.4643390000000 1.0
C      1  0.4371530000000  0.5203690000000  0.5410150000000 1.0
C      1  0.4407610000000  0.4845320000000  0.4576300000000 1.0
C      1  0.5418930000000  0.4409550000000  0.5228730000000 1.0
C      1  0.4605590000000  0.4446730000000  0.4794040000000 1.0
C      1  0.4578240000000  0.5630490000000  0.5267490000000 1.0
C      1  0.4761210000000  0.4587330000000  0.4358870000000 1.0
C      1  0.5253820000000  0.4597470000000  0.5635460000000 1.0
C      1  0.5236550000000  0.5375270000000  0.4339230000000 1.0
C      1  0.5624380000000  0.5349060000000  0.5109570000000 1.0
C      1  0.5382420000000  0.5116150000000  0.5591030000000 1.0
C      1  0.5105420000000  0.5528590000000  0.5397520000000 1.0
C      1  0.5569750000000  0.4628590000000  0.4936110000000 1.0
C      1  0.4397410000000  0.5300960000000  0.4915140000000 1.0
C      1  0.4412620000000  0.4625770000000  0.5090590000000 1.0
C      1  0.5203900000000  0.4905310000000  0.4475040000000 1.0
C      1  0.4628950000000  0.5133150000000  0.4415440000000 1.0
C      1  0.4685190000000  0.4963150000000  0.5401550000000 1.0
C      1  0.5114730000000  0.4359700000000  0.4652480000000 1.0
C      1  0.4982930000000  0.5463040000000  0.4623750000000 1.0
C      1  0.4912180000000  0.4398550000000  0.5331240000000 1.0
C      1  0.5630760000000  0.5176040000000  0.5395350000000 1.0
C      1  0.5389690000000  0.5593590000000  0.5067160000000 1.0
C      1  0.5127240000000  0.5329720000000  0.5660860000000 1.0
C      1  0.5520810000000  0.4920650000000  0.4813350000000 1.0
C      1  0.4422480000000  0.4912190000000  0.5242390000000 1.0
C      1  0.4362700000000  0.5174420000000  0.4611900000000 1.0
C      1  0.5332110000000  0.4406070000000  0.4910680000000 1.0
C      1  0.4667530000000  0.4400590000000  0.5102190000000 1.0
C      1  0.4640720000000  0.5509560000000  0.4963180000000 1.0
C      1  0.5086590000000  0.4607450000000  0.4440830000000 1.0
C      1  0.4965150000000  0.4690780000000  0.5481300000000 1.0
C      1  0.4897970000000  0.5319620000000  0.4345950000000 1.0
C      1  0.5115340000000  0.4146430000000  0.4907770000000 1.0
C      1  0.5027360000000  0.4838880000000  0.4198630000000 1.0
C      1  0.4969270000000  0.4834310000000  0.5781660000000 1.0
C      1  0.4840130000000  0.5052330000000  0.4157360000000 1.0
C      1  0.5099980000000  0.5753370000000  0.5148130000000 1.0
C      1  0.5851920000000  0.5099270000000  0.5148770000000 1.0
C      1  0.5142770000000  0.5044490000000  0.5821460000000 1.0
C      1  0.4864230000000  0.5760000000000  0.5005110000000 1.0
C      1  0.4898530000000  0.4154200000000  0.5103320000000 1.0
C      1  0.5804960000000  0.4873040000000  0.4977000000000 1.0
C      1  0.4152750000000  0.5071560000000  0.4862600000000 1.0
C      1  0.4157800000000  0.4862010000000  0.5062810000000 1.0
C      1  0.5199030000000  0.4940880000000  0.4798870000000 1.0
C      1  0.4912440000000  0.5378400000000  0.4895760000000 1.0
C      1  0.5155820000000  0.5360710000000  0.5117940000000 1.0
C      1  0.4937130000000  0.4914890000000  0.5247870000000 1.0
C      1  0.5034360000000  0.5078500000000  0.5012230000000 1.0
END
