TITL C-2622960-5345-640 -0.00134362811667361 125000 -486.030483317201 0 0 90 (C1) n - 1
REM
REM in /nfs/bkarasulu/CARBON/AIRSS/Generating-Clusters/AIREBO/with-SteepDescent/Higher-Symm/SD-CG/HFTN-CG
REM
REM
REM
REM
REM
REM ./C.cell (b20cbc046b6831c77cfcea5457e17084)
REM
REM compiler GCC version 9.2.1 20190827 (Red Hat 9.2.1-1)
REM options -cpp -mtune=generic -march=x86-64 -g -O0 -fpre-include=/usr/include/finclude/math-vector-fortran.h
REM seed 13978910 -922278731 811860038 187032155 -1118560953 -23917162 -378218747 165356209 1973783395 -134264939 324924802 1147143517 729150123 -1706104698 -147199690 1809734862 -438352461 1388427056 -1947827936 -1707391834 1048335238 -1288924622 -1955742030 1680065527 -658454503 -2107911296 -398150284 -946365089 -1616320210 1746360372 700945882 -1718459362 1509004180
REM
CELL 1.54180   50.00000   50.00000   50.00000   90.00000   90.00000   90.00000
LATT -1
SFAC C  
C      1  0.5448700000000  0.4404330000000  0.5324410000000 1.0
C      1  0.4972330000000  0.4483750000000  0.4452280000000 1.0
C      1  0.4575310000000  0.4483950000000  0.5303830000000 1.0
C      1  0.4874660000000  0.5337220000000  0.4402510000000 1.0
C      1  0.4548680000000  0.5306450000000  0.5425360000000 1.0
C      1  0.5553330000000  0.5321120000000  0.5201540000000 1.0
C      1  0.4274490000000  0.5192200000000  0.4430380000000 1.0
C      1  0.4858710000000  0.5158630000000  0.5895750000000 1.0
C      1  0.5875010000000  0.5080360000000  0.4826610000000 1.0
C      1  0.5525210000000  0.4926730000000  0.4491990000000 1.0
C      1  0.4329980000000  0.4908980000000  0.4917690000000 1.0
C      1  0.5252000000000  0.4964950000000  0.5761310000000 1.0
C      1  0.4756740000000  0.5037900000000  0.4362710000000 1.0
C      1  0.4531050000000  0.5010150000000  0.5591180000000 1.0
C      1  0.5637380000000  0.5027550000000  0.5190940000000 1.0
C      1  0.4584200000000  0.5590660000000  0.4984030000000 1.0
C      1  0.5205830000000  0.5663230000000  0.5364700000000 1.0
C      1  0.5213600000000  0.5647650000000  0.4628730000000 1.0
C      1  0.5768090000000  0.4810120000000  0.5670240000000 1.0
C      1  0.5209430000000  0.4899580000000  0.4124310000000 1.0
C      1  0.4124990000000  0.4893040000000  0.5260570000000 1.0
C      1  0.4854640000000  0.5107070000000  0.5011790000000 1.0
C      1  0.5083120000000  0.5141180000000  0.5261430000000 1.0
C      1  0.5128700000000  0.5161420000000  0.4817890000000 1.0
C      1  0.4744900000000  0.4341360000000  0.4878050000000 1.0
C      1  0.5060550000000  0.4361490000000  0.5239500000000 1.0
C      1  0.5202230000000  0.4335310000000  0.4867080000000 1.0
C      1  0.4287800000000  0.5435560000000  0.4974880000000 1.0
C      1  0.5341300000000  0.5508200000000  0.5628170000000 1.0
C      1  0.5371570000000  0.5496270000000  0.4380810000000 1.0
C      1  0.5445990000000  0.4719100000000  0.5702870000000 1.0
C      1  0.5418620000000  0.4735840000000  0.4231600000000 1.0
C      1  0.4109990000000  0.4685510000000  0.5049190000000 1.0
C      1  0.5710280000000  0.4724250000000  0.4693110000000 1.0
C      1  0.4388000000000  0.4733370000000  0.4422220000000 1.0
C      1  0.4855790000000  0.4689360000000  0.5800860000000 1.0
C      1  0.4882990000000  0.5616520000000  0.5138720000000 1.0
C      1  0.5189430000000  0.5670200000000  0.5025010000000 1.0
C      1  0.4927730000000  0.5690250000000  0.4808600000000 1.0
C      1  0.4463550000000  0.4524310000000  0.5591550000000 1.0
C      1  0.5602840000000  0.4591590000000  0.5170140000000 1.0
C      1  0.4787840000000  0.4575050000000  0.4215160000000 1.0
C      1  0.5304830000000  0.4211530000000  0.5129150000000 1.0
C      1  0.4956150000000  0.4291300000000  0.4702170000000 1.0
C      1  0.4797610000000  0.4299910000000  0.5174420000000 1.0
C      1  0.5468150000000  0.4551820000000  0.4667250000000 1.0
C      1  0.4456470000000  0.4663340000000  0.4719210000000 1.0
C      1  0.5008910000000  0.4548820000000  0.5588840000000 1.0
C      1  0.4600320000000  0.5542450000000  0.5571580000000 1.0
C      1  0.5686560000000  0.5537620000000  0.5080390000000 1.0
C      1  0.4710550000000  0.5573940000000  0.4341640000000 1.0
C      1  0.4847000000000  0.4687820000000  0.5324130000000 1.0
C      1  0.5388880000000  0.4725730000000  0.4948740000000 1.0
C      1  0.4790520000000  0.4684190000000  0.4658610000000 1.0
C      1  0.5306050000000  0.4548910000000  0.4437110000000 1.0
C      1  0.4385270000000  0.4529960000000  0.5025630000000 1.0
C      1  0.5290520000000  0.4502450000000  0.5554400000000 1.0
C      1  0.4990650000000  0.4912580000000  0.5908480000000 1.0
C      1  0.5835330000000  0.5062440000000  0.4525870000000 1.0
C      1  0.4191650000000  0.4932830000000  0.4391260000000 1.0
C      1  0.5864860000000  0.5496410000000  0.4690860000000 1.0
C      1  0.4604450000000  0.5699150000000  0.4129550000000 1.0
C      1  0.4453850000000  0.5693350000000  0.5741540000000 1.0
C      1  0.5284480000000  0.5362080000000  0.5261450000000 1.0
C      1  0.5065400000000  0.5367410000000  0.4602110000000 1.0
C      1  0.4624280000000  0.5314140000000  0.5152040000000 1.0
C      1  0.4377400000000  0.4966430000000  0.5317140000000 1.0
C      1  0.5551140000000  0.4890600000000  0.5430420000000 1.0
C      1  0.5067080000000  0.4994150000000  0.4337150000000 1.0
C      1  0.4757910000000  0.5020520000000  0.4697400000000 1.0
C      1  0.4819760000000  0.5012700000000  0.5421940000000 1.0
C      1  0.5432180000000  0.5062480000000  0.4922010000000 1.0
C      1  0.5214960000000  0.5268050000000  0.5682170000000 1.0
C      1  0.5497890000000  0.5264020000000  0.4457880000000 1.0
C      1  0.4305510000000  0.5195520000000  0.4828510000000 1.0
C      1  0.5103320000000  0.4652230000000  0.4788010000000 1.0
C      1  0.4763500000000  0.4654300000000  0.4996220000000 1.0
C      1  0.5161940000000  0.4673040000000  0.5196570000000 1.0
C      1  0.5210830000000  0.4921000000000  0.4621770000000 1.0
C      1  0.4597840000000  0.4900220000000  0.5095100000000 1.0
C      1  0.5216620000000  0.4896900000000  0.5428980000000 1.0
C      1  0.4582850000000  0.4732710000000  0.5726180000000 1.0
C      1  0.5777500000000  0.4813420000000  0.4980570000000 1.0
C      1  0.4620320000000  0.4782330000000  0.4271120000000 1.0
C      1  0.4534140000000  0.5251840000000  0.4616650000000 1.0
C      1  0.4909210000000  0.5290190000000  0.5597470000000 1.0
C      1  0.5621330000000  0.5298900000000  0.4767010000000 1.0
C      1  0.5447700000000  0.5576480000000  0.4859210000000 1.0
C      1  0.4655690000000  0.5551930000000  0.4658670000000 1.0
C      1  0.4883080000000  0.5598150000000  0.5455690000000 1.0
END
