TITL C-2622961-1971-303 -0.00188856945678876 125000 -863.047777444874 0 0 152 (C1) n - 1
REM
REM in /nfs/bkarasulu/CARBON/AIRSS/Generating-Clusters/AIREBO/with-SteepDescent/Higher-Symm/SD-CG/HFTN-CG
REM
REM
REM
REM
REM
REM ./C.cell (b20cbc046b6831c77cfcea5457e17084)
REM
REM compiler GCC version 9.2.1 20190827 (Red Hat 9.2.1-1)
REM options -cpp -mtune=generic -march=x86-64 -g -O0 -fpre-include=/usr/include/finclude/math-vector-fortran.h
REM seed -2033300690 -1100175872 1051211649 -621301683 -985202536 492629725 1814065704 80620620 -258055637 -22579843 682770371 1211230364 -150389492 1239962645 -1703899949 1944070654 -1236508474 70443482 1981457864 2075488077 -1371944694 9621837 -2068732365 -1005517596 49149887 -1188808320 1191987996 1552822653 -845502205 1394441091 2022167648 -278412365 249315609
REM
CELL 1.54180   50.00000   50.00000   50.00000   90.00000   90.00000   90.00000
LATT -1
SFAC C  
C      1  0.5815720000000  0.5083780000000  0.4778880000000 1.0
C      1  0.5641620000000  0.4465490000000  0.4737850000000 1.0
C      1  0.5092150000000  0.4144060000000  0.4808510000000 1.0
C      1  0.4434870000000  0.4310490000000  0.4783540000000 1.0
C      1  0.4169940000000  0.4940360000000  0.4786510000000 1.0
C      1  0.4323880000000  0.5532670000000  0.4768850000000 1.0
C      1  0.4943830000000  0.5845870000000  0.4843600000000 1.0
C      1  0.5559840000000  0.5686290000000  0.4776060000000 1.0
C      1  0.4381120000000  0.4384360000000  0.4482710000000 1.0
C      1  0.4131160000000  0.4967610000000  0.4453390000000 1.0
C      1  0.4337650000000  0.5503200000000  0.4434050000000 1.0
C      1  0.4972830000000  0.5790320000000  0.4535590000000 1.0
C      1  0.5584050000000  0.5645560000000  0.4435440000000 1.0
C      1  0.5800360000000  0.5081660000000  0.4438180000000 1.0
C      1  0.5624040000000  0.4462100000000  0.4398320000000 1.0
C      1  0.5103230000000  0.4144370000000  0.4467750000000 1.0
C      1  0.5330800000000  0.5147840000000  0.5570020000000 1.0
C      1  0.5325430000000  0.4867050000000  0.5677070000000 1.0
C      1  0.5146650000000  0.4672350000000  0.5556080000000 1.0
C      1  0.4870140000000  0.4676710000000  0.5674610000000 1.0
C      1  0.4671110000000  0.4858420000000  0.5567890000000 1.0
C      1  0.4673170000000  0.5132880000000  0.5690350000000 1.0
C      1  0.4851190000000  0.5331460000000  0.5577970000000 1.0
C      1  0.5133190000000  0.5327530000000  0.5684070000000 1.0
C      1  0.5483570000000  0.5161760000000  0.4026170000000 1.0
C      1  0.5462390000000  0.4889480000000  0.4156960000000 1.0
C      1  0.4999900000000  0.4434210000000  0.4054870000000 1.0
C      1  0.4719170000000  0.4607220000000  0.4128670000000 1.0
C      1  0.4508170000000  0.4831870000000  0.4076350000000 1.0
C      1  0.4568200000000  0.5098930000000  0.4169580000000 1.0
C      1  0.5102810000000  0.5466940000000  0.4158310000000 1.0
C      1  0.5358950000000  0.5421870000000  0.4041380000000 1.0
C      1  0.4317120000000  0.4688670000000  0.4513130000000 1.0
C      1  0.4103330000000  0.5262600000000  0.4381270000000 1.0
C      1  0.4622710000000  0.5600830000000  0.4512030000000 1.0
C      1  0.5273500000000  0.5694830000000  0.4499660000000 1.0
C      1  0.5637570000000  0.5353070000000  0.4545560000000 1.0
C      1  0.5678050000000  0.4782400000000  0.4499190000000 1.0
C      1  0.5428350000000  0.4227710000000  0.4413080000000 1.0
C      1  0.4821400000000  0.4265270000000  0.4500680000000 1.0
C      1  0.5409350000000  0.4140630000000  0.4720120000000 1.0
C      1  0.4700030000000  0.4137690000000  0.4744260000000 1.0
C      1  0.4136450000000  0.4609760000000  0.4777970000000 1.0
C      1  0.4068660000000  0.5326120000000  0.4698150000000 1.0
C      1  0.4623190000000  0.5804640000000  0.4740060000000 1.0
C      1  0.5321470000000  0.5925410000000  0.4735080000000 1.0
C      1  0.5852140000000  0.5413900000000  0.4771060000000 1.0
C      1  0.5863450000000  0.4690540000000  0.4759570000000 1.0
C      1  0.5252060000000  0.5799870000000  0.5535440000000 1.0
C      1  0.5797300000000  0.5264310000000  0.5519700000000 1.0
C      1  0.5786690000000  0.4736980000000  0.5523560000000 1.0
C      1  0.5271220000000  0.4200110000000  0.5497850000000 1.0
C      1  0.4746470000000  0.4209100000000  0.5525450000000 1.0
C      1  0.4196840000000  0.4744560000000  0.5522240000000 1.0
C      1  0.4207350000000  0.5270470000000  0.5533310000000 1.0
C      1  0.4728480000000  0.5803510000000  0.5514260000000 1.0
C      1  0.4606970000000  0.4963230000000  0.5274700000000 1.0
C      1  0.4652640000000  0.5283310000000  0.5234480000000 1.0
C      1  0.4959150000000  0.5390870000000  0.5288230000000 1.0
C      1  0.5282350000000  0.5360160000000  0.5235850000000 1.0
C      1  0.5397470000000  0.5047120000000  0.5272650000000 1.0
C      1  0.5346350000000  0.4729260000000  0.5214490000000 1.0
C      1  0.5038480000000  0.4606940000000  0.5262400000000 1.0
C      1  0.4715030000000  0.4652320000000  0.5228570000000 1.0
C      1  0.6085190000000  0.4914800000000  0.4898310000000 1.0
C      1  0.5672350000000  0.4187060000000  0.4930570000000 1.0
C      1  0.4883010000000  0.3899530000000  0.4907430000000 1.0
C      1  0.4155280000000  0.4333710000000  0.4975680000000 1.0
C      1  0.3903720000000  0.5107340000000  0.4906670000000 1.0
C      1  0.4340380000000  0.5827400000000  0.4927590000000 1.0
C      1  0.5105110000000  0.6117730000000  0.4918490000000 1.0
C      1  0.5833000000000  0.5683830000000  0.4977330000000 1.0
C      1  0.4792510000000  0.4369800000000  0.5774100000000 1.0
C      1  0.4396620000000  0.4782400000000  0.5712540000000 1.0
C      1  0.4366980000000  0.5222320000000  0.5782600000000 1.0
C      1  0.4766580000000  0.5608440000000  0.5710210000000 1.0
C      1  0.5210800000000  0.5635580000000  0.5782880000000 1.0
C      1  0.5608710000000  0.5218700000000  0.5721480000000 1.0
C      1  0.5629200000000  0.4777590000000  0.5774270000000 1.0
C      1  0.5232110000000  0.4396820000000  0.5691350000000 1.0
C      1  0.5377610000000  0.4826070000000  0.6004920000000 1.0
C      1  0.5166020000000  0.4578080000000  0.5943170000000 1.0
C      1  0.4834380000000  0.4623760000000  0.6002650000000 1.0
C      1  0.4586630000000  0.4842070000000  0.5957360000000 1.0
C      1  0.4616610000000  0.5175130000000  0.6016270000000 1.0
C      1  0.4830200000000  0.5426430000000  0.5964540000000 1.0
C      1  0.5164060000000  0.5382880000000  0.6012280000000 1.0
C      1  0.5405790000000  0.5160380000000  0.5960800000000 1.0
C      1  0.5292350000000  0.5265100000000  0.4848450000000 1.0
C      1  0.5367780000000  0.4979300000000  0.4887360000000 1.0
C      1  0.5253050000000  0.4724300000000  0.4820370000000 1.0
C      1  0.4965690000000  0.4643850000000  0.4877060000000 1.0
C      1  0.4699260000000  0.4743720000000  0.4840000000000 1.0
C      1  0.4624590000000  0.5028850000000  0.4886700000000 1.0
C      1  0.4746520000000  0.5285910000000  0.4845980000000 1.0
C      1  0.5030010000000  0.5361130000000  0.4901950000000 1.0
C      1  0.4026910000000  0.4631920000000  0.5078050000000 1.0
C      1  0.4004770000000  0.5410450000000  0.5021300000000 1.0
C      1  0.4620420000000  0.5958660000000  0.5046350000000 1.0
C      1  0.5402210000000  0.6012540000000  0.5046110000000 1.0
C      1  0.5961540000000  0.5384280000000  0.5074040000000 1.0
C      1  0.6039510000000  0.4603800000000  0.5027960000000 1.0
C      1  0.5395600000000  0.4017370000000  0.5036020000000 1.0
C      1  0.4581340000000  0.4000600000000  0.5027550000000 1.0
C      1  0.5183680000000  0.4276450000000  0.4179380000000 1.0
C      1  0.4597920000000  0.4340100000000  0.4289180000000 1.0
C      1  0.4247770000000  0.4772890000000  0.4191100000000 1.0
C      1  0.4363950000000  0.5295220000000  0.4168930000000 1.0
C      1  0.4869650000000  0.5643290000000  0.4281110000000 1.0
C      1  0.5547050000000  0.5625270000000  0.4122200000000 1.0
C      1  0.5768280000000  0.5144810000000  0.4130590000000 1.0
C      1  0.5596960000000  0.4652710000000  0.4129900000000 1.0
C      1  0.5968100000000  0.5018570000000  0.5437760000000 1.0
C      1  0.5601040000000  0.4543510000000  0.5334730000000 1.0
C      1  0.5025050000000  0.4036470000000  0.5421300000000 1.0
C      1  0.4541300000000  0.4395730000000  0.5358610000000 1.0
C      1  0.4027190000000  0.4991440000000  0.5442530000000 1.0
C      1  0.4393070000000  0.5464770000000  0.5351890000000 1.0
C      1  0.4971450000000  0.5975750000000  0.5438400000000 1.0
C      1  0.5453260000000  0.5615990000000  0.5359570000000 1.0
C      1  0.5640290000000  0.4968550000000  0.5047000000000 1.0
C      1  0.5426940000000  0.4497590000000  0.4979010000000 1.0
C      1  0.4975150000000  0.4370730000000  0.5025230000000 1.0
C      1  0.4486520000000  0.4554330000000  0.4996620000000 1.0
C      1  0.4359370000000  0.5036580000000  0.5052550000000 1.0
C      1  0.4557240000000  0.5499650000000  0.4990140000000 1.0
C      1  0.5036920000000  0.5627030000000  0.5055890000000 1.0
C      1  0.5505690000000  0.5455260000000  0.4997700000000 1.0
C      1  0.4201330000000  0.5617210000000  0.5138170000000 1.0
C      1  0.4868920000000  0.6103670000000  0.5140040000000 1.0
C      1  0.5605220000000  0.5808540000000  0.5155550000000 1.0
C      1  0.6098590000000  0.5129070000000  0.5143800000000 1.0
C      1  0.5796470000000  0.4408520000000  0.5118920000000 1.0
C      1  0.5120090000000  0.3908560000000  0.5129910000000 1.0
C      1  0.4381170000000  0.4199990000000  0.5162590000000 1.0
C      1  0.3890130000000  0.4888250000000  0.5151130000000 1.0
C      1  0.5851720000000  0.4822660000000  0.5206070000000 1.0
C      1  0.5441110000000  0.4274620000000  0.5244120000000 1.0
C      1  0.4821940000000  0.4164800000000  0.5197330000000 1.0
C      1  0.4276830000000  0.4568680000000  0.5275380000000 1.0
C      1  0.4149270000000  0.5185190000000  0.5209720000000 1.0
C      1  0.4565830000000  0.5721840000000  0.5261390000000 1.0
C      1  0.5172540000000  0.5856100000000  0.5211900000000 1.0
C      1  0.5715250000000  0.5443560000000  0.5276040000000 1.0
C      1  0.4819120000000  0.5336120000000  0.4545650000000 1.0
C      1  0.5113110000000  0.5394700000000  0.4474610000000 1.0
C      1  0.5354780000000  0.5200630000000  0.4548500000000 1.0
C      1  0.5368140000000  0.4917890000000  0.4451500000000 1.0
C      1  0.5128880000000  0.4715560000000  0.4519270000000 1.0
C      1  0.4859060000000  0.4600020000000  0.4438600000000 1.0
C      1  0.4627940000000  0.4800740000000  0.4544060000000 1.0
C      1  0.4691560000000  0.5079860000000  0.4422030000000 1.0
END
