TITL C-3289326-3776-631 0.00083346333203938 125000 -417.93424982124 0 0 75 (C1) n - 1
REM
REM in /nfs/bkarasulu/CARBON/AIRSS/Generating-Clusters/AIREBO/with-SteepDescent/Higher-Symm/SD-CG/HFTN-CG
REM
REM
REM
REM
REM
REM ./C.cell (b20cbc046b6831c77cfcea5457e17084)
REM
REM compiler GCC version 9.2.1 20190827 (Red Hat 9.2.1-1)
REM options -cpp -mtune=generic -march=x86-64 -g -O0 -fpre-include=/usr/include/finclude/math-vector-fortran.h
REM seed -456211056 -1682292267 1493227058 1201199404 -2055780580 1218731004 -1924080965 1240137953 -743866022 114890990 -1975365158 -2015564511 -314329440 372347536 757985579 -903358924 -1369073104 1459684883 1400427409 -1605689560 2053562139 -95272674 35725209 937219153 -1548365434 1070120923 348331767 976983169 -608487309 2102673624 -1408279875 -1096230352 -1239467620
REM
CELL 1.54180   50.00000   50.00000   50.00000   90.00000   90.00000   90.00000
LATT -1
SFAC C  
C      1  0.5194890000000  0.4705180000000  0.5141920000000 1.0
C      1  0.5258600000000  0.5465090000000  0.5330840000000 1.0
C      1  0.5165010000000  0.5044810000000  0.4509050000000 1.0
C      1  0.4706140000000  0.4706630000000  0.5037280000000 1.0
C      1  0.4772360000000  0.5270390000000  0.5343950000000 1.0
C      1  0.4682990000000  0.5137020000000  0.4572190000000 1.0
C      1  0.5275920000000  0.5282850000000  0.5044300000000 1.0
C      1  0.5254770000000  0.5019680000000  0.4830020000000 1.0
C      1  0.5366830000000  0.4978010000000  0.5130870000000 1.0
C      1  0.4585170000000  0.5180810000000  0.5157910000000 1.0
C      1  0.4520830000000  0.4930510000000  0.4641660000000 1.0
C      1  0.4551940000000  0.4899380000000  0.5166370000000 1.0
C      1  0.4432910000000  0.5433580000000  0.5006780000000 1.0
C      1  0.4504590000000  0.4678120000000  0.4416370000000 1.0
C      1  0.4436760000000  0.4802040000000  0.5450050000000 1.0
C      1  0.5542540000000  0.5571940000000  0.4922370000000 1.0
C      1  0.5600360000000  0.4656640000000  0.4533600000000 1.0
C      1  0.5583470000000  0.4675920000000  0.5585750000000 1.0
C      1  0.5358830000000  0.5468490000000  0.4447520000000 1.0
C      1  0.5377550000000  0.4328230000000  0.4869700000000 1.0
C      1  0.5427650000000  0.5153530000000  0.5714790000000 1.0
C      1  0.4595280000000  0.5523490000000  0.4520970000000 1.0
C      1  0.4654270000000  0.4320290000000  0.4707850000000 1.0
C      1  0.4676080000000  0.5113920000000  0.5740970000000 1.0
C      1  0.5062880000000  0.5659810000000  0.4806740000000 1.0
C      1  0.5145610000000  0.4535100000000  0.4512700000000 1.0
C      1  0.5113650000000  0.4782150000000  0.5655590000000 1.0
C      1  0.4806260000000  0.5764850000000  0.4856950000000 1.0
C      1  0.4939990000000  0.4435870000000  0.4352410000000 1.0
C      1  0.4862370000000  0.4684210000000  0.5719270000000 1.0
C      1  0.5146030000000  0.5578550000000  0.5896950000000 1.0
C      1  0.5039070000000  0.5453990000000  0.4006480000000 1.0
C      1  0.5062630000000  0.4036690000000  0.5166810000000 1.0
C      1  0.4854080000000  0.5594080000000  0.5785130000000 1.0
C      1  0.4741950000000  0.5404840000000  0.4041560000000 1.0
C      1  0.4767300000000  0.4130460000000  0.5160310000000 1.0
C      1  0.5404420000000  0.4487100000000  0.5123020000000 1.0
C      1  0.5513200000000  0.5301230000000  0.5486650000000 1.0
C      1  0.5436400000000  0.5169380000000  0.4427500000000 1.0
C      1  0.4609500000000  0.4401760000000  0.5034370000000 1.0
C      1  0.4647100000000  0.5418770000000  0.5595550000000 1.0
C      1  0.4593270000000  0.5268910000000  0.4295220000000 1.0
C      1  0.4971420000000  0.4726600000000  0.4950800000000 1.0
C      1  0.5039180000000  0.5208300000000  0.5357470000000 1.0
C      1  0.4938450000000  0.5195810000000  0.4662330000000 1.0
C      1  0.5078410000000  0.4775930000000  0.4667790000000 1.0
C      1  0.5155870000000  0.4924110000000  0.5383390000000 1.0
C      1  0.5056560000000  0.5366430000000  0.4846680000000 1.0
C      1  0.4466980000000  0.4971410000000  0.4248020000000 1.0
C      1  0.4431980000000  0.4532410000000  0.5269540000000 1.0
C      1  0.4459690000000  0.5516880000000  0.5334470000000 1.0
C      1  0.5582780000000  0.4891910000000  0.4290040000000 1.0
C      1  0.5492750000000  0.4391350000000  0.5437090000000 1.0
C      1  0.5449470000000  0.5709270000000  0.5190980000000 1.0
C      1  0.4646920000000  0.4857100000000  0.5661790000000 1.0
C      1  0.4587870000000  0.5595630000000  0.4786310000000 1.0
C      1  0.4681560000000  0.4449360000000  0.4470120000000 1.0
C      1  0.5403020000000  0.4865720000000  0.5691750000000 1.0
C      1  0.5356830000000  0.5589350000000  0.4706470000000 1.0
C      1  0.5405330000000  0.4464820000000  0.4617660000000 1.0
C      1  0.5178760000000  0.4129740000000  0.4889140000000 1.0
C      1  0.5232320000000  0.5278300000000  0.5886020000000 1.0
C      1  0.5155500000000  0.5550180000000  0.4272920000000 1.0
C      1  0.4857900000000  0.4152550000000  0.4847420000000 1.0
C      1  0.4893740000000  0.5273570000000  0.5873570000000 1.0
C      1  0.4819860000000  0.5594650000000  0.4307190000000 1.0
C      1  0.5684750000000  0.4604400000000  0.5277890000000 1.0
C      1  0.5642840000000  0.5444650000000  0.5226450000000 1.0
C      1  0.5668160000000  0.4981610000000  0.4590770000000 1.0
C      1  0.4178460000000  0.4883750000000  0.5525220000000 1.0
C      1  0.4163590000000  0.5388100000000  0.4933840000000 1.0
C      1  0.4241960000000  0.4785420000000  0.4609950000000 1.0
C      1  0.4979720000000  0.4340150000000  0.4103950000000 1.0
C      1  0.5114050000000  0.5666000000000  0.5509880000000 1.0
C      1  0.4823770000000  0.4440230000000  0.5826770000000 1.0
END
