TITL C-3289323-3850-681 0.00194615344752119 125000 -658.594169068218 0 0 123 (C1) n - 1
REM
REM in /nfs/bkarasulu/CARBON/AIRSS/Generating-Clusters/AIREBO/with-SteepDescent/Higher-Symm/SD-CG/HFTN-CG
REM
REM
REM
REM
REM
REM ./C.cell (b20cbc046b6831c77cfcea5457e17084)
REM
REM compiler GCC version 9.2.1 20190827 (Red Hat 9.2.1-1)
REM options -cpp -mtune=generic -march=x86-64 -g -O0 -fpre-include=/usr/include/finclude/math-vector-fortran.h
REM seed 523924784 491314398 1160144783 -1550750978 -1808979393 -2106181782 -742837255 1615214353 -575764614 -724526907 -1754129956 1290919604 2087142018 1138662375 1484867657 1920143392 357449020 1422241349 -802047000 -2026924458 -1994851412 1957805321 -1412730606 -734067494 -777177639 -416951597 -1832749945 1658748502 471773977 -1304271391 -893038880 1946038741 2008400421
REM
CELL 1.54180   50.00000   50.00000   50.00000   90.00000   90.00000   90.00000
LATT -1
SFAC C  
C      1  0.5262450000000  0.5982680000000  0.4656240000000 1.0
C      1  0.5669550000000  0.4153030000000  0.4718580000000 1.0
C      1  0.3962350000000  0.4859550000000  0.4687070000000 1.0
C      1  0.4503480000000  0.5006850000000  0.4526630000000 1.0
C      1  0.5239440000000  0.5440840000000  0.4573280000000 1.0
C      1  0.5196460000000  0.4532890000000  0.4527000000000 1.0
C      1  0.5233190000000  0.4496880000000  0.4005780000000 1.0
C      1  0.4629930000000  0.5108840000000  0.3950290000000 1.0
C      1  0.5473950000000  0.5359020000000  0.4017850000000 1.0
C      1  0.4687470000000  0.5783860000000  0.4614660000000 1.0
C      1  0.5802110000000  0.4748810000000  0.4561450000000 1.0
C      1  0.4331570000000  0.4403740000000  0.4560480000000 1.0
C      1  0.4798460000000  0.5128120000000  0.4645060000000 1.0
C      1  0.5300680000000  0.5127910000000  0.4688050000000 1.0
C      1  0.4949020000000  0.4728980000000  0.4653400000000 1.0
C      1  0.4924020000000  0.5417140000000  0.5156150000000 1.0
C      1  0.5331360000000  0.4886920000000  0.5231980000000 1.0
C      1  0.4704990000000  0.4748610000000  0.5255980000000 1.0
C      1  0.4424400000000  0.4694160000000  0.5700160000000 1.0
C      1  0.5140460000000  0.5719080000000  0.5633060000000 1.0
C      1  0.5478320000000  0.4642990000000  0.5700900000000 1.0
C      1  0.5452330000000  0.4317900000000  0.5161700000000 1.0
C      1  0.4117380000000  0.4903330000000  0.5177500000000 1.0
C      1  0.5382530000000  0.5881540000000  0.5143670000000 1.0
C      1  0.4895080000000  0.5132780000000  0.4971360000000 1.0
C      1  0.5231710000000  0.5134580000000  0.5021130000000 1.0
C      1  0.4905250000000  0.4793110000000  0.4984870000000 1.0
C      1  0.5731130000000  0.5432940000000  0.4508210000000 1.0
C      1  0.4911080000000  0.4128820000000  0.4566910000000 1.0
C      1  0.4190790000000  0.5398530000000  0.4561550000000 1.0
C      1  0.5171790000000  0.5245130000000  0.5794880000000 1.0
C      1  0.5104840000000  0.4738260000000  0.5835970000000 1.0
C      1  0.4710310000000  0.5049540000000  0.5871390000000 1.0
C      1  0.3764500000000  0.4608540000000  0.5351240000000 1.0
C      1  0.5321940000000  0.6345470000000  0.5306440000000 1.0
C      1  0.5929230000000  0.4273850000000  0.5284010000000 1.0
C      1  0.4630280000000  0.5398670000000  0.4700490000000 1.0
C      1  0.5473540000000  0.4870350000000  0.4753060000000 1.0
C      1  0.4646810000000  0.4684340000000  0.4699930000000 1.0
C      1  0.4139270000000  0.5349410000000  0.4976730000000 1.0
C      1  0.5763610000000  0.5715910000000  0.4882570000000 1.0
C      1  0.5163310000000  0.4002860000000  0.4921100000000 1.0
C      1  0.5115130000000  0.4585250000000  0.5466920000000 1.0
C      1  0.4537510000000  0.5167910000000  0.5531290000000 1.0
C      1  0.5290510000000  0.5338460000000  0.5287050000000 1.0
C      1  0.4495350000000  0.4441110000000  0.4001310000000 1.0
C      1  0.5083330000000  0.5805260000000  0.4185960000000 1.0
C      1  0.5765970000000  0.4734370000000  0.3999220000000 1.0
C      1  0.4000210000000  0.4742270000000  0.5388960000000 1.0
C      1  0.5319100000000  0.6076320000000  0.5353400000000 1.0
C      1  0.5669610000000  0.4315610000000  0.5358880000000 1.0
C      1  0.5694580000000  0.5859380000000  0.5079060000000 1.0
C      1  0.5312710000000  0.4025810000000  0.5125830000000 1.0
C      1  0.4010680000000  0.5202370000000  0.5138170000000 1.0
C      1  0.4363500000000  0.5195310000000  0.4772610000000 1.0
C      1  0.5515580000000  0.5523770000000  0.4753540000000 1.0
C      1  0.5146470000000  0.4289160000000  0.4738400000000 1.0
C      1  0.4877610000000  0.5240050000000  0.5753540000000 1.0
C      1  0.5268250000000  0.4976460000000  0.5756530000000 1.0
C      1  0.4837040000000  0.4788290000000  0.5795300000000 1.0
C      1  0.5336110000000  0.5279230000000  0.4319610000000 1.0
C      1  0.5088690000000  0.4555280000000  0.4224390000000 1.0
C      1  0.4649720000000  0.5115610000000  0.4273980000000 1.0
C      1  0.4658280000000  0.4048500000000  0.4624700000000 1.0
C      1  0.4213090000000  0.5669420000000  0.4614340000000 1.0
C      1  0.5915520000000  0.5229920000000  0.4507350000000 1.0
C      1  0.4465390000000  0.4220040000000  0.4735120000000 1.0
C      1  0.4440430000000  0.5748390000000  0.4767750000000 1.0
C      1  0.5876720000000  0.4995000000000  0.4657160000000 1.0
C      1  0.4574160000000  0.4624230000000  0.4167550000000 1.0
C      1  0.5007460000000  0.5516620000000  0.4257420000000 1.0
C      1  0.5552550000000  0.4799110000000  0.4258170000000 1.0
C      1  0.4515660000000  0.5378260000000  0.5287540000000 1.0
C      1  0.5749570000000  0.5205970000000  0.5220570000000 1.0
C      1  0.4781350000000  0.4303490000000  0.5148730000000 1.0
C      1  0.4484100000000  0.5596910000000  0.5872930000000 1.0
C      1  0.5884710000000  0.5247450000000  0.5524180000000 1.0
C      1  0.4755400000000  0.4087660000000  0.5411910000000 1.0
C      1  0.5252220000000  0.4555130000000  0.5188930000000 1.0
C      1  0.4428120000000  0.4856780000000  0.5115290000000 1.0
C      1  0.5201950000000  0.5618700000000  0.5150080000000 1.0
C      1  0.5217750000000  0.4431530000000  0.5755790000000 1.0
C      1  0.4383260000000  0.5016000000000  0.5793530000000 1.0
C      1  0.5290390000000  0.5453460000000  0.5607170000000 1.0
C      1  0.4134100000000  0.4754060000000  0.5631820000000 1.0
C      1  0.5280150000000  0.5957750000000  0.5601980000000 1.0
C      1  0.5585690000000  0.4370640000000  0.5619250000000 1.0
C      1  0.5468710000000  0.4261610000000  0.4843520000000 1.0
C      1  0.4140540000000  0.4952050000000  0.4854830000000 1.0
C      1  0.5349770000000  0.5810150000000  0.4831760000000 1.0
C      1  0.5531830000000  0.5287030000000  0.4972380000000 1.0
C      1  0.5012670000000  0.4469760000000  0.4992640000000 1.0
C      1  0.4562930000000  0.5145690000000  0.5043710000000 1.0
C      1  0.5021190000000  0.4865240000000  0.4346970000000 1.0
C      1  0.4947410000000  0.5197070000000  0.4357580000000 1.0
C      1  0.5324360000000  0.4976990000000  0.4381870000000 1.0
C      1  0.4673980000000  0.5785990000000  0.5809830000000 1.0
C      1  0.5920320000000  0.4998580000000  0.5665060000000 1.0
C      1  0.4516190000000  0.4139550000000  0.5551700000000 1.0
C      1  0.5676300000000  0.4827540000000  0.5655630000000 1.0
C      1  0.4472660000000  0.4430170000000  0.5623550000000 1.0
C      1  0.4857090000000  0.5729810000000  0.5601520000000 1.0
C      1  0.4751230000000  0.5590830000000  0.5391900000000 1.0
C      1  0.5564900000000  0.5027250000000  0.5435620000000 1.0
C      1  0.4730780000000  0.4481650000000  0.5430250000000 1.0
C      1  0.5002470000000  0.5236760000000  0.5433610000000 1.0
C      1  0.5096070000000  0.4912620000000  0.5476190000000 1.0
C      1  0.4756860000000  0.4928050000000  0.5495280000000 1.0
C      1  0.5779160000000  0.5057190000000  0.4929230000000 1.0
C      1  0.4532580000000  0.4344770000000  0.4978220000000 1.0
C      1  0.4470540000000  0.5579110000000  0.5016710000000 1.0
C      1  0.4765770000000  0.5566570000000  0.4936950000000 1.0
C      1  0.5588390000000  0.4811670000000  0.5035630000000 1.0
C      1  0.4509500000000  0.4618980000000  0.4933910000000 1.0
C      1  0.4449380000000  0.5345360000000  0.5809090000000 1.0
C      1  0.5581180000000  0.5346950000000  0.5551550000000 1.0
C      1  0.4986050000000  0.4291780000000  0.5550510000000 1.0
C      1  0.4768240000000  0.4845190000000  0.4117600000000 1.0
C      1  0.5157070000000  0.5333450000000  0.4035690000000 1.0
C      1  0.5476150000000  0.4623410000000  0.3989960000000 1.0
C      1  0.4460980000000  0.4680050000000  0.4442340000000 1.0
C      1  0.4913320000000  0.5533490000000  0.4569150000000 1.0
C      1  0.5477380000000  0.4648650000000  0.4546090000000 1.0
END
