TITL C-3289327-5623-619 -6.38974828671663e-05 125000 -430.967020743879 0 0 83 (C1) n - 1
REM
REM in /nfs/bkarasulu/CARBON/AIRSS/Generating-Clusters/AIREBO/with-SteepDescent/Higher-Symm/SD-CG/HFTN-CG
REM
REM
REM
REM
REM
REM ./C.cell (b20cbc046b6831c77cfcea5457e17084)
REM
REM compiler GCC version 9.2.1 20190827 (Red Hat 9.2.1-1)
REM options -cpp -mtune=generic -march=x86-64 -g -O0 -fpre-include=/usr/include/finclude/math-vector-fortran.h
REM seed -1175342729 -1753133779 380003213 -34523509 1843476230 -440038767 -150692036 1780502086 931711516 1312283490 1497754742 488131937 2212852 774757592 698568274 467363118 1705769398 1924434886 -1042902890 -2066758850 -1036665899 1027815024 578206714 -333575506 455456755 2081615567 -1688156751 286130495 -124831407 -2023507675 -6710767 -1861931080 -970945214
REM
CELL 1.54180   50.00000   50.00000   50.00000   90.00000   90.00000   90.00000
LATT -1
SFAC C  
C      1  0.4806220000000  0.5526320000000  0.4455490000000 1.0
C      1  0.5558380000000  0.5167020000000  0.4428180000000 1.0
C      1  0.5180100000000  0.4437090000000  0.4463060000000 1.0
C      1  0.4384520000000  0.4779050000000  0.4387960000000 1.0
C      1  0.4782460000000  0.4466860000000  0.5561420000000 1.0
C      1  0.5589330000000  0.4837950000000  0.5573410000000 1.0
C      1  0.5159520000000  0.5539530000000  0.5581410000000 1.0
C      1  0.4406310000000  0.5205030000000  0.5614600000000 1.0
C      1  0.4730780000000  0.4395580000000  0.5294290000000 1.0
C      1  0.4376910000000  0.5274280000000  0.5322200000000 1.0
C      1  0.5250130000000  0.5613840000000  0.5324310000000 1.0
C      1  0.5642700000000  0.4759040000000  0.5306950000000 1.0
C      1  0.4720600000000  0.5583870000000  0.4732010000000 1.0
C      1  0.4382490000000  0.4729100000000  0.4691110000000 1.0
C      1  0.5283400000000  0.4385650000000  0.4730940000000 1.0
C      1  0.5602300000000  0.5269670000000  0.4702480000000 1.0
C      1  0.5486840000000  0.5480660000000  0.5243970000000 1.0
C      1  0.5481650000000  0.4539880000000  0.5235930000000 1.0
C      1  0.4486010000000  0.4546370000000  0.5200400000000 1.0
C      1  0.4533160000000  0.5491450000000  0.5247810000000 1.0
C      1  0.5542670000000  0.4533760000000  0.4775730000000 1.0
C      1  0.5457000000000  0.5533190000000  0.4745940000000 1.0
C      1  0.4461260000000  0.5436150000000  0.4796330000000 1.0
C      1  0.4553040000000  0.4522910000000  0.4775940000000 1.0
C      1  0.4554160000000  0.5321810000000  0.4353450000000 1.0
C      1  0.5353690000000  0.5416130000000  0.4319780000000 1.0
C      1  0.5386490000000  0.4632450000000  0.4313420000000 1.0
C      1  0.4665360000000  0.4638600000000  0.4351660000000 1.0
C      1  0.4559990000000  0.4695800000000  0.5678470000000 1.0
C      1  0.5338330000000  0.4693660000000  0.5666330000000 1.0
C      1  0.5279430000000  0.5282350000000  0.5729300000000 1.0
C      1  0.4678080000000  0.5301530000000  0.5704450000000 1.0
C      1  0.5243570000000  0.5319200000000  0.4870720000000 1.0
C      1  0.5324500000000  0.4771370000000  0.4827050000000 1.0
C      1  0.4799110000000  0.4668220000000  0.4925670000000 1.0
C      1  0.4690690000000  0.5207590000000  0.4861230000000 1.0
C      1  0.5196480000000  0.4629740000000  0.5079290000000 1.0
C      1  0.5382750000000  0.5188540000000  0.5105710000000 1.0
C      1  0.4812910000000  0.5374490000000  0.5093970000000 1.0
C      1  0.4692440000000  0.4801620000000  0.5183960000000 1.0
C      1  0.5096520000000  0.5604600000000  0.4438140000000 1.0
C      1  0.5598980000000  0.4871640000000  0.4428570000000 1.0
C      1  0.4883250000000  0.4399030000000  0.4447060000000 1.0
C      1  0.4372890000000  0.5079180000000  0.4498280000000 1.0
C      1  0.5045110000000  0.4540170000000  0.5609060000000 1.0
C      1  0.5542150000000  0.5114750000000  0.5617180000000 1.0
C      1  0.4868720000000  0.5565640000000  0.5648730000000 1.0
C      1  0.4390250000000  0.4915510000000  0.5511680000000 1.0
C      1  0.4783750000000  0.4856460000000  0.5477150000000 1.0
C      1  0.4850010000000  0.5316740000000  0.5415770000000 1.0
C      1  0.5289420000000  0.5180050000000  0.5412320000000 1.0
C      1  0.5170420000000  0.4748120000000  0.5375420000000 1.0
C      1  0.4761430000000  0.5143410000000  0.4555490000000 1.0
C      1  0.4834480000000  0.4755130000000  0.4615040000000 1.0
C      1  0.5217450000000  0.4828070000000  0.4534260000000 1.0
C      1  0.5192860000000  0.5242970000000  0.4565770000000 1.0
C      1  0.5338090000000  0.5800030000000  0.4771920000000 1.0
C      1  0.5810360000000  0.4651410000000  0.4788800000000 1.0
C      1  0.4641250000000  0.4235840000000  0.4776480000000 1.0
C      1  0.4197630000000  0.5314150000000  0.4842670000000 1.0
C      1  0.5316030000000  0.4277450000000  0.5211090000000 1.0
C      1  0.5747250000000  0.5327100000000  0.5165590000000 1.0
C      1  0.4698040000000  0.5742270000000  0.5180150000000 1.0
C      1  0.4220830000000  0.4672490000000  0.5168210000000 1.0
C      1  0.5162530000000  0.4805610000000  0.5899050000000 1.0
C      1  0.4847250000000  0.4829170000000  0.5802200000000 1.0
C      1  0.4806760000000  0.5135360000000  0.5915540000000 1.0
C      1  0.5109840000000  0.5108570000000  0.5910400000000 1.0
C      1  0.5136860000000  0.5177220000000  0.4250430000000 1.0
C      1  0.4822480000000  0.5179610000000  0.4219220000000 1.0
C      1  0.4895230000000  0.4865040000000  0.4300630000000 1.0
C      1  0.5206770000000  0.4874410000000  0.4188380000000 1.0
C      1  0.5062430000000  0.5600890000000  0.4776550000000 1.0
C      1  0.5616160000000  0.4936470000000  0.4769420000000 1.0
C      1  0.4942600000000  0.4393400000000  0.4781910000000 1.0
C      1  0.4398440000000  0.5035170000000  0.4838470000000 1.0
C      1  0.4998390000000  0.4354600000000  0.5115150000000 1.0
C      1  0.5665820000000  0.5001610000000  0.5099480000000 1.0
C      1  0.5017000000000  0.5647180000000  0.5110420000000 1.0
C      1  0.4386850000000  0.4969290000000  0.5172080000000 1.0
C      1  0.5011260000000  0.5045180000000  0.5331790000000 1.0
C      1  0.5017880000000  0.5013970000000  0.4737390000000 1.0
C      1  0.5011140000000  0.5031880000000  0.5023860000000 1.0
END
