TITL C-3289328-6581-561 0.00049927855512788 125000 -294.446019170365 0 0 64 (C1) n - 1
REM
REM in /nfs/bkarasulu/CARBON/AIRSS/Generating-Clusters/AIREBO/with-SteepDescent/Higher-Symm/SD-CG/HFTN-CG
REM
REM
REM
REM
REM
REM ./C.cell (b20cbc046b6831c77cfcea5457e17084)
REM
REM compiler GCC version 9.2.1 20190827 (Red Hat 9.2.1-1)
REM options -cpp -mtune=generic -march=x86-64 -g -O0 -fpre-include=/usr/include/finclude/math-vector-fortran.h
REM seed 2134721181 1598652488 403877346 -862548217 1486637702 -492064244 1743238822 -1830869959 -327490695 1890936942 765853489 -1292114494 -1945626332 -2096547354 -1444084442 573795056 -3789149 -234210765 63943191 -650061799 1576576802 -1761498006 -434783176 1278135471 -777068768 -584146509 260710304 2083894567 375312329 -1772356390 525903772 -1617505074 -598156751
REM
CELL 1.54180   50.00000   50.00000   50.00000   90.00000   90.00000   90.00000
LATT -1
SFAC C  
C      1  0.4776370000000  0.4496210000000  0.5106210000000 1.0
C      1  0.5133740000000  0.4789650000000  0.4458110000000 1.0
C      1  0.4465160000000  0.5159970000000  0.4759490000000 1.0
C      1  0.5132680000000  0.5419020000000  0.5055000000000 1.0
C      1  0.5333680000000  0.4576620000000  0.5136220000000 1.0
C      1  0.4669650000000  0.5502470000000  0.4894450000000 1.0
C      1  0.4968670000000  0.5214840000000  0.4604170000000 1.0
C      1  0.4988050000000  0.4792930000000  0.5461030000000 1.0
C      1  0.5064540000000  0.5296290000000  0.5573610000000 1.0
C      1  0.5466690000000  0.4846400000000  0.4669400000000 1.0
C      1  0.5425500000000  0.4991710000000  0.5307350000000 1.0
C      1  0.4531040000000  0.4947590000000  0.5173890000000 1.0
C      1  0.4611170000000  0.4697460000000  0.4957800000000 1.0
C      1  0.4683100000000  0.5025840000000  0.4608670000000 1.0
C      1  0.4966080000000  0.4609990000000  0.4586210000000 1.0
C      1  0.5362640000000  0.5217860000000  0.5028670000000 1.0
C      1  0.4523780000000  0.5267450000000  0.5076740000000 1.0
C      1  0.5486640000000  0.4626390000000  0.4862350000000 1.0
C      1  0.5212280000000  0.5040590000000  0.4629220000000 1.0
C      1  0.4676760000000  0.4886460000000  0.5428570000000 1.0
C      1  0.5193720000000  0.5001060000000  0.5500660000000 1.0
C      1  0.4951750000000  0.5426050000000  0.4814090000000 1.0
C      1  0.4932120000000  0.5430950000000  0.5329370000000 1.0
C      1  0.5052280000000  0.4571340000000  0.5272100000000 1.0
C      1  0.4553540000000  0.4837410000000  0.5698400000000 1.0
C      1  0.5780490000000  0.4575770000000  0.4903790000000 1.0
C      1  0.4888270000000  0.5765550000000  0.4688610000000 1.0
C      1  0.5281230000000  0.5061900000000  0.5811020000000 1.0
C      1  0.5296570000000  0.4758090000000  0.3948570000000 1.0
C      1  0.4714130000000  0.5145840000000  0.4305250000000 1.0
C      1  0.4192440000000  0.5325080000000  0.5000320000000 1.0
C      1  0.4292840000000  0.4662850000000  0.5028560000000 1.0
C      1  0.5670830000000  0.5352960000000  0.5077270000000 1.0
C      1  0.5085710000000  0.4384190000000  0.4696320000000 1.0
C      1  0.5054190000000  0.5730900000000  0.5290420000000 1.0
C      1  0.4957810000000  0.4258590000000  0.5365450000000 1.0
C      1  0.4826010000000  0.4707220000000  0.5747620000000 1.0
C      1  0.4613350000000  0.5770630000000  0.4806830000000 1.0
C      1  0.5795280000000  0.4809200000000  0.4689560000000 1.0
C      1  0.5188130000000  0.5315600000000  0.5882980000000 1.0
C      1  0.4921610000000  0.5327070000000  0.4286680000000 1.0
C      1  0.5206260000000  0.4780210000000  0.4193630000000 1.0
C      1  0.5212580000000  0.4344980000000  0.4933120000000 1.0
C      1  0.4723490000000  0.4208890000000  0.5175980000000 1.0
C      1  0.5261310000000  0.5732960000000  0.5109210000000 1.0
C      1  0.4177190000000  0.5221070000000  0.4715470000000 1.0
C      1  0.5646500000000  0.5208880000000  0.5309060000000 1.0
C      1  0.4202570000000  0.4852910000000  0.5205120000000 1.0
C      1  0.5533070000000  0.5239150000000  0.4394400000000 1.0
C      1  0.4731610000000  0.5414970000000  0.5674300000000 1.0
C      1  0.5762360000000  0.4841710000000  0.5557010000000 1.0
C      1  0.4527090000000  0.5722290000000  0.5310040000000 1.0
C      1  0.5480580000000  0.4480490000000  0.5572990000000 1.0
C      1  0.4598820000000  0.4362130000000  0.4658970000000 1.0
C      1  0.4313910000000  0.4729130000000  0.4590360000000 1.0
C      1  0.5508530000000  0.5548690000000  0.4727560000000 1.0
C      1  0.5761410000000  0.5093990000000  0.4776170000000 1.0
C      1  0.5826540000000  0.4565890000000  0.5181460000000 1.0
C      1  0.4327480000000  0.5323880000000  0.5492710000000 1.0
C      1  0.4647360000000  0.4653120000000  0.4290670000000 1.0
C      1  0.4593850000000  0.5435280000000  0.5364090000000 1.0
C      1  0.5564430000000  0.4685940000000  0.5360830000000 1.0
C      1  0.5473540000000  0.5243580000000  0.4708190000000 1.0
C      1  0.4636940000000  0.4689080000000  0.4618780000000 1.0
END
