TITL C-3289323-3850-565 -0.000683999278397795 125000 -834.892518148832 0 0 155 (C1) n - 1
REM
REM in /nfs/bkarasulu/CARBON/AIRSS/Generating-Clusters/AIREBO/with-SteepDescent/Higher-Symm/SD-CG/HFTN-CG
REM
REM
REM
REM
REM
REM ./C.cell (b20cbc046b6831c77cfcea5457e17084)
REM
REM compiler GCC version 9.2.1 20190827 (Red Hat 9.2.1-1)
REM options -cpp -mtune=generic -march=x86-64 -g -O0 -fpre-include=/usr/include/finclude/math-vector-fortran.h
REM seed 2041310057 -1615988045 -1619440704 -966611445 1071853871 -646868257 1393682785 -305776500 631830572 1291027295 -171235636 -1642564873 -2008731778 40011963 813403503 134356232 -61428341 1626105109 -4656770 -1483688041 1896369262 931486486 1507262911 1982468311 1296938538 1198888206 1933866753 63167537 1155153262 1990030396 1506058444 -1811361192 -1006161184
REM
CELL 1.54180   50.00000   50.00000   50.00000   90.00000   90.00000   90.00000
LATT -1
SFAC C  
C      1  0.4502980000000  0.5626270000000  0.4498240000000 1.0
C      1  0.4383940000000  0.5752130000000  0.5149950000000 1.0
C      1  0.5086130000000  0.5671140000000  0.5704600000000 1.0
C      1  0.5651060000000  0.5683280000000  0.5120940000000 1.0
C      1  0.5370820000000  0.5725450000000  0.4453710000000 1.0
C      1  0.4456050000000  0.5241850000000  0.4388800000000 1.0
C      1  0.4255500000000  0.5233370000000  0.5393570000000 1.0
C      1  0.5126390000000  0.5324160000000  0.5899330000000 1.0
C      1  0.5857660000000  0.5277770000000  0.5181130000000 1.0
C      1  0.5468070000000  0.5419460000000  0.4089750000000 1.0
C      1  0.4494120000000  0.4085030000000  0.5123000000000 1.0
C      1  0.4927470000000  0.3880100000000  0.5329920000000 1.0
C      1  0.5330900000000  0.4027420000000  0.5098060000000 1.0
C      1  0.5164410000000  0.4068360000000  0.4651330000000 1.0
C      1  0.4647040000000  0.4162400000000  0.4543670000000 1.0
C      1  0.5286720000000  0.4736090000000  0.5007020000000 1.0
C      1  0.5075310000000  0.4676120000000  0.4772220000000 1.0
C      1  0.4798700000000  0.4745840000000  0.4849850000000 1.0
C      1  0.4776270000000  0.4777580000000  0.5167700000000 1.0
C      1  0.5059660000000  0.4662900000000  0.5217560000000 1.0
C      1  0.5133460000000  0.5104910000000  0.5655130000000 1.0
C      1  0.5573050000000  0.5174420000000  0.5102060000000 1.0
C      1  0.5410630000000  0.5191250000000  0.4270020000000 1.0
C      1  0.4653770000000  0.5044850000000  0.4524240000000 1.0
C      1  0.4552670000000  0.5099540000000  0.5374610000000 1.0
C      1  0.4063210000000  0.5373200000000  0.5149200000000 1.0
C      1  0.4843000000000  0.5436860000000  0.6049710000000 1.0
C      1  0.5859630000000  0.5462450000000  0.5445810000000 1.0
C      1  0.5855540000000  0.5621450000000  0.4324970000000 1.0
C      1  0.4651470000000  0.5412110000000  0.4196250000000 1.0
C      1  0.5382980000000  0.5482080000000  0.5888040000000 1.0
C      1  0.5999390000000  0.5400780000000  0.4929930000000 1.0
C      1  0.5237850000000  0.5551990000000  0.4006350000000 1.0
C      1  0.4198140000000  0.5281590000000  0.4525660000000 1.0
C      1  0.4307850000000  0.5410410000000  0.5679140000000 1.0
C      1  0.5388060000000  0.4481700000000  0.5356050000000 1.0
C      1  0.5484660000000  0.4379240000000  0.4712940000000 1.0
C      1  0.4841110000000  0.4508580000000  0.4495350000000 1.0
C      1  0.4391980000000  0.4437660000000  0.4970050000000 1.0
C      1  0.4747420000000  0.4338600000000  0.5500400000000 1.0
C      1  0.4662310000000  0.5364280000000  0.5504570000000 1.0
C      1  0.5421650000000  0.5215370000000  0.5403820000000 1.0
C      1  0.5612480000000  0.5168720000000  0.4764270000000 1.0
C      1  0.5101570000000  0.5145320000000  0.4363130000000 1.0
C      1  0.4433190000000  0.5118300000000  0.4859990000000 1.0
C      1  0.4388600000000  0.5085410000000  0.5739120000000 1.0
C      1  0.5597850000000  0.5312070000000  0.5889200000000 1.0
C      1  0.6096480000000  0.5126440000000  0.4899940000000 1.0
C      1  0.5050950000000  0.5384260000000  0.3894800000000 1.0
C      1  0.4099010000000  0.4985950000000  0.4612540000000 1.0
C      1  0.5518490000000  0.4778210000000  0.5252470000000 1.0
C      1  0.5449650000000  0.4694550000000  0.4590500000000 1.0
C      1  0.4630320000000  0.4759060000000  0.4448610000000 1.0
C      1  0.4331750000000  0.4715570000000  0.5156480000000 1.0
C      1  0.4891670000000  0.4769240000000  0.5663250000000 1.0
C      1  0.5924960000000  0.4688740000000  0.4402410000000 1.0
C      1  0.4743560000000  0.4631870000000  0.3958590000000 1.0
C      1  0.3879190000000  0.4589520000000  0.4995950000000 1.0
C      1  0.4626900000000  0.4674460000000  0.6071340000000 1.0
C      1  0.5781970000000  0.4684970000000  0.5675890000000 1.0
C      1  0.4875180000000  0.5110760000000  0.6002540000000 1.0
C      1  0.5883440000000  0.5117350000000  0.5458240000000 1.0
C      1  0.5751940000000  0.5383890000000  0.4222230000000 1.0
C      1  0.4582280000000  0.5079220000000  0.4120870000000 1.0
C      1  0.4049870000000  0.5038680000000  0.5205220000000 1.0
C      1  0.5401410000000  0.5788100000000  0.4769380000000 1.0
C      1  0.4955170000000  0.5703250000000  0.4592950000000 1.0
C      1  0.4596550000000  0.5826430000000  0.4980790000000 1.0
C      1  0.4824340000000  0.5645660000000  0.5403660000000 1.0
C      1  0.5122290000000  0.5799690000000  0.5346500000000 1.0
C      1  0.4975710000000  0.5954380000000  0.4742720000000 1.0
C      1  0.4761660000000  0.6039250000000  0.4915130000000 1.0
C      1  0.4897160000000  0.6182510000000  0.5134300000000 1.0
C      1  0.5149410000000  0.6033600000000  0.5164940000000 1.0
C      1  0.5220450000000  0.5955690000000  0.4890520000000 1.0
C      1  0.4893430000000  0.5215840000000  0.4103480000000 1.0
C      1  0.4112640000000  0.5157550000000  0.4900020000000 1.0
C      1  0.4656580000000  0.5274080000000  0.5808690000000 1.0
C      1  0.5651510000000  0.5200760000000  0.5654070000000 1.0
C      1  0.5670030000000  0.5138730000000  0.4446410000000 1.0
C      1  0.5956910000000  0.4907950000000  0.4981440000000 1.0
C      1  0.5433970000000  0.4719470000000  0.4192640000000 1.0
C      1  0.4102560000000  0.4845110000000  0.4328930000000 1.0
C      1  0.4231610000000  0.4834300000000  0.5564930000000 1.0
C      1  0.5220070000000  0.4929810000000  0.5917480000000 1.0
C      1  0.5184170000000  0.3832830000000  0.5239370000000 1.0
C      1  0.5426290000000  0.4053240000000  0.4830640000000 1.0
C      1  0.4934490000000  0.3999110000000  0.4531820000000 1.0
C      1  0.4440350000000  0.4145160000000  0.4792620000000 1.0
C      1  0.4721220000000  0.4051730000000  0.5341130000000 1.0
C      1  0.5262230000000  0.5074640000000  0.5006680000000 1.0
C      1  0.5080130000000  0.5131720000000  0.4704950000000 1.0
C      1  0.4768540000000  0.5073020000000  0.4826660000000 1.0
C      1  0.4815070000000  0.5115320000000  0.5161940000000 1.0
C      1  0.5113410000000  0.5102020000000  0.5315580000000 1.0
C      1  0.4268800000000  0.4301870000000  0.5256470000000 1.0
C      1  0.4901300000000  0.4324010000000  0.5776310000000 1.0
C      1  0.5718880000000  0.4444780000000  0.5337480000000 1.0
C      1  0.5524020000000  0.4289390000000  0.4387310000000 1.0
C      1  0.4567640000000  0.4385450000000  0.4330020000000 1.0
C      1  0.4006720000000  0.4738190000000  0.5252880000000 1.0
C      1  0.4923430000000  0.4781600000000  0.5992870000000 1.0
C      1  0.5824390000000  0.4826250000000  0.5393210000000 1.0
C      1  0.5657020000000  0.4839400000000  0.4369360000000 1.0
C      1  0.4542350000000  0.4770270000000  0.4145260000000 1.0
C      1  0.5705120000000  0.5727980000000  0.4526810000000 1.0
C      1  0.4790200000000  0.5662580000000  0.4319720000000 1.0
C      1  0.4185750000000  0.5611480000000  0.5011610000000 1.0
C      1  0.4817870000000  0.5639980000000  0.5811920000000 1.0
C      1  0.5654150000000  0.5659010000000  0.5405980000000 1.0
C      1  0.4570620000000  0.4838420000000  0.5591820000000 1.0
C      1  0.5378580000000  0.4900860000000  0.5537170000000 1.0
C      1  0.5682710000000  0.4836660000000  0.4793380000000 1.0
C      1  0.5131690000000  0.4841700000000  0.4212920000000 1.0
C      1  0.4285660000000  0.4804770000000  0.4831630000000 1.0
C      1  0.4585570000000  0.4599060000000  0.5350800000000 1.0
C      1  0.5143530000000  0.4687980000000  0.5502330000000 1.0
C      1  0.5584570000000  0.4573410000000  0.4984960000000 1.0
C      1  0.5145600000000  0.4656660000000  0.4462410000000 1.0
C      1  0.4537820000000  0.4627380000000  0.4726540000000 1.0
C      1  0.4821850000000  0.5430160000000  0.5145990000000 1.0
C      1  0.5114070000000  0.5517920000000  0.5164960000000 1.0
C      1  0.5254030000000  0.5402820000000  0.4936850000000 1.0
C      1  0.4983930000000  0.5447170000000  0.4780720000000 1.0
C      1  0.4708070000000  0.5557530000000  0.4895480000000 1.0
C      1  0.4498910000000  0.5402990000000  0.4752370000000 1.0
C      1  0.4486800000000  0.5643660000000  0.5410130000000 1.0
C      1  0.5271540000000  0.5514980000000  0.5465980000000 1.0
C      1  0.5538120000000  0.5491400000000  0.4863780000000 1.0
C      1  0.5139500000000  0.5479130000000  0.4415610000000 1.0
C      1  0.5830270000000  0.5660390000000  0.4822410000000 1.0
C      1  0.5109400000000  0.5759830000000  0.4229890000000 1.0
C      1  0.4215670000000  0.5578830000000  0.4685580000000 1.0
C      1  0.4535030000000  0.5655720000000  0.5741360000000 1.0
C      1  0.5448290000000  0.5721980000000  0.5669740000000 1.0
C      1  0.5069920000000  0.4491630000000  0.5912860000000 1.0
C      1  0.5956100000000  0.4625920000000  0.5172400000000 1.0
C      1  0.5415650000000  0.4435380000000  0.4168370000000 1.0
C      1  0.4308800000000  0.4576310000000  0.4298850000000 1.0
C      1  0.4159020000000  0.4519590000000  0.5457440000000 1.0
C      1  0.5188130000000  0.4398710000000  0.3995380000000 1.0
C      1  0.4057420000000  0.4497050000000  0.4513700000000 1.0
C      1  0.4246020000000  0.4496590000000  0.5775540000000 1.0
C      1  0.5350710000000  0.4543500000000  0.5907910000000 1.0
C      1  0.6074390000000  0.4539250000000  0.4884080000000 1.0
C      1  0.4710810000000  0.4327080000000  0.5022630000000 1.0
C      1  0.4907680000000  0.4385280000000  0.5226410000000 1.0
C      1  0.5221920000000  0.4303750000000  0.5165760000000 1.0
C      1  0.5166930000000  0.4356470000000  0.4832020000000 1.0
C      1  0.4841410000000  0.4312140000000  0.4761830000000 1.0
C      1  0.4039820000000  0.4589870000000  0.4771220000000 1.0
C      1  0.4461130000000  0.4649470000000  0.5852570000000 1.0
C      1  0.5523600000000  0.4718580000000  0.5766530000000 1.0
C      1  0.5942490000000  0.4651780000000  0.4675100000000 1.0
C      1  0.5008910000000  0.4624440000000  0.4004770000000 1.0
END
