TITL C-3289324-3781-194 -0.000196766279112023 125000 -197.896494207553 0 0 37 (C1) n - 1
REM
REM in /nfs/bkarasulu/CARBON/AIRSS/Generating-Clusters/AIREBO/with-SteepDescent/Higher-Symm/SD-CG/HFTN-CG
REM
REM
REM
REM
REM
REM ./C.cell (b20cbc046b6831c77cfcea5457e17084)
REM
REM compiler GCC version 9.2.1 20190827 (Red Hat 9.2.1-1)
REM options -cpp -mtune=generic -march=x86-64 -g -O0 -fpre-include=/usr/include/finclude/math-vector-fortran.h
REM seed 1146474618 -1540699945 -112556253 898192706 1010304666 -1414108264 -209876686 63205472 -105161382 550638880 255663324 -519535518 407422227 -1319659619 -1456876318 420902819 154518237 -984867850 -1500375793 1118179815 612398340 1711896970 -679481599 -1615143348 -579784621 251692400 232797363 -1431107755 -664205064 248805601 1818921411 1818244895 -1580697198
REM
CELL 1.54180   50.00000   50.00000   50.00000   90.00000   90.00000   90.00000
LATT -1
SFAC C  
C      1  0.4228680000000  0.5307990000000  0.5387160000000 1.0
C      1  0.4567960000000  0.5236680000000  0.4963960000000 1.0
C      1  0.4296890000000  0.5015840000000  0.4492290000000 1.0
C      1  0.3793240000000  0.4972840000000  0.4782290000000 1.0
C      1  0.3775700000000  0.5163690000000  0.5316880000000 1.0
C      1  0.5516640000000  0.4298230000000  0.5154740000000 1.0
C      1  0.5229390000000  0.4566260000000  0.5541140000000 1.0
C      1  0.4826390000000  0.5303100000000  0.4980290000000 1.0
C      1  0.5203590000000  0.5257940000000  0.4467280000000 1.0
C      1  0.5321600000000  0.4686070000000  0.4659970000000 1.0
C      1  0.5577280000000  0.4934970000000  0.5498280000000 1.0
C      1  0.5256700000000  0.5356180000000  0.5188350000000 1.0
C      1  0.5505970000000  0.5351150000000  0.4711520000000 1.0
C      1  0.5704480000000  0.4812610000000  0.4664090000000 1.0
C      1  0.5847690000000  0.4617840000000  0.5159940000000 1.0
C      1  0.4313880000000  0.5271230000000  0.5124440000000 1.0
C      1  0.4367420000000  0.5164570000000  0.4745500000000 1.0
C      1  0.4021060000000  0.5021670000000  0.4608780000000 1.0
C      1  0.3813470000000  0.5102600000000  0.5050170000000 1.0
C      1  0.3986490000000  0.5219830000000  0.5487000000000 1.0
C      1  0.5312420000000  0.4539670000000  0.5236710000000 1.0
C      1  0.5199860000000  0.4986180000000  0.5038960000000 1.0
C      1  0.5027390000000  0.5253060000000  0.4758070000000 1.0
C      1  0.5268990000000  0.5017020000000  0.4717580000000 1.0
C      1  0.5414630000000  0.4518070000000  0.4915380000000 1.0
C      1  0.5603010000000  0.5074800000000  0.4689990000000 1.0
C      1  0.5714690000000  0.4663540000000  0.4907690000000 1.0
C      1  0.5841220000000  0.4819350000000  0.5364260000000 1.0
C      1  0.5399280000000  0.5171610000000  0.5329970000000 1.0
C      1  0.5302380000000  0.5368210000000  0.4905930000000 1.0
C      1  0.5369810000000  0.4738930000000  0.5669970000000 1.0
C      1  0.4969800000000  0.5384060000000  0.5216660000000 1.0
C      1  0.5415770000000  0.5459170000000  0.4440970000000 1.0
C      1  0.5539830000000  0.4659800000000  0.4451270000000 1.0
C      1  0.5778140000000  0.4346110000000  0.5233780000000 1.0
C      1  0.4077340000000  0.5221480000000  0.4910780000000 1.0
C      1  0.5347530000000  0.4842510000000  0.5277690000000 1.0
END
