TITL C-3289324-3781-488 0.00455152204296724 125000 -182.722975323725 0 0 31 (C1) n - 1
REM
REM in /nfs/bkarasulu/CARBON/AIRSS/Generating-Clusters/AIREBO/with-SteepDescent/Higher-Symm/SD-CG/HFTN-CG
REM
REM
REM
REM
REM
REM ./C.cell (b20cbc046b6831c77cfcea5457e17084)
REM
REM compiler GCC version 9.2.1 20190827 (Red Hat 9.2.1-1)
REM options -cpp -mtune=generic -march=x86-64 -g -O0 -fpre-include=/usr/include/finclude/math-vector-fortran.h
REM seed -1256833423 896981350 1129387106 1055407043 -1522415117 1859022981 361183410 1873232045 796425553 1791411370 1086923158 -1875889783 1195020440 -453129268 -293098911 142350237 -495655195 -2028157309 599250171 1640585272 -1182926746 -1538530331 -784602909 -1913487109 -1716199221 1788373736 340264689 241839 499056896 1749376304 306612473 -860058639 1398712650
REM
CELL 1.54180   50.00000   50.00000   50.00000   90.00000   90.00000   90.00000
LATT -1
SFAC C  
C      1  0.5303920000000  0.6295170000000  0.5204960000000 1.0
C      1  0.4855060000000  0.6142240000000  0.5381340000000 1.0
C      1  0.4726260000000  0.5739310000000  0.5094590000000 1.0
C      1  0.5105850000000  0.5521660000000  0.4794530000000 1.0
C      1  0.5429650000000  0.5928370000000  0.4873380000000 1.0
C      1  0.5419460000000  0.6170790000000  0.4993190000000 1.0
C      1  0.5283620000000  0.5725870000000  0.4771960000000 1.0
C      1  0.4828150000000  0.5530560000000  0.4954940000000 1.0
C      1  0.4713830000000  0.5934380000000  0.5280050000000 1.0
C      1  0.5055940000000  0.6312150000000  0.5314880000000 1.0
C      1  0.5117260000000  0.4397600000000  0.5527050000000 1.0
C      1  0.4534240000000  0.4601570000000  0.5200620000000 1.0
C      1  0.4459000000000  0.4273020000000  0.4580580000000 1.0
C      1  0.5093700000000  0.4440570000000  0.4357530000000 1.0
C      1  0.5484680000000  0.4495570000000  0.4956890000000 1.0
C      1  0.4898320000000  0.4254880000000  0.4334030000000 1.0
C      1  0.4391290000000  0.4470330000000  0.4753010000000 1.0
C      1  0.4673460000000  0.4502900000000  0.5407100000000 1.0
C      1  0.5352910000000  0.4417760000000  0.5401990000000 1.0
C      1  0.5408300000000  0.4563950000000  0.4709460000000 1.0
C      1  0.5550030000000  0.4392960000000  0.5206780000000 1.0
C      1  0.4859700000000  0.4463690000000  0.5610130000000 1.0
C      1  0.5202470000000  0.4628770000000  0.4533230000000 1.0
C      1  0.4632640000000  0.4223550000000  0.4378230000000 1.0
C      1  0.4500130000000  0.4657230000000  0.4930090000000 1.0
C      1  0.4640260000000  0.4872750000000  0.4820090000000 1.0
C      1  0.4930200000000  0.5254940000000  0.4826940000000 1.0
C      1  0.5053100000000  0.4859730000000  0.4584060000000 1.0
C      1  0.5789520000000  0.4280610000000  0.5258180000000 1.0
C      1  0.4794910000000  0.4487200000000  0.5870700000000 1.0
C      1  0.4871870000000  0.5005820000000  0.4738610000000 1.0
END
