TITL C-3289331-6719-548 0.000573957099592888 125000 -718.224056985019 0 0 135 (C1) n - 1
REM
REM in /nfs/bkarasulu/CARBON/AIRSS/Generating-Clusters/AIREBO/with-SteepDescent/Higher-Symm/SD-CG/HFTN-CG
REM
REM
REM
REM
REM
REM ./C.cell (b20cbc046b6831c77cfcea5457e17084)
REM
REM compiler GCC version 9.2.1 20190827 (Red Hat 9.2.1-1)
REM options -cpp -mtune=generic -march=x86-64 -g -O0 -fpre-include=/usr/include/finclude/math-vector-fortran.h
REM seed -2001825410 1729879563 -486457464 -74077114 535920564 -474197995 2034747304 1057641372 -752876719 212406426 408321258 1613707616 1163859432 -369767340 1092513470 365134226 -1157481387 1946575797 2109797515 -1967343040 1228652319 -2039406598 -1583589404 203894457 940463914 -1301541977 563020616 402046209 1330103158 -1912661968 -721754063 889345932 603134849
REM
CELL 1.54180   50.00000   50.00000   50.00000   90.00000   90.00000   90.00000
LATT -1
SFAC C  
C      1  0.4848800000000  0.4984780000000  0.5873410000000 1.0
C      1  0.4780660000000  0.4287550000000  0.4534170000000 1.0
C      1  0.4844790000000  0.5667430000000  0.4616060000000 1.0
C      1  0.5149850000000  0.4939030000000  0.5764700000000 1.0
C      1  0.5115130000000  0.4331850000000  0.4582740000000 1.0
C      1  0.5180790000000  0.5643300000000  0.4568930000000 1.0
C      1  0.4186810000000  0.4880680000000  0.5449980000000 1.0
C      1  0.4063240000000  0.4676970000000  0.4656710000000 1.0
C      1  0.4113650000000  0.5496520000000  0.4873300000000 1.0
C      1  0.5756780000000  0.4859280000000  0.5465290000000 1.0
C      1  0.5889700000000  0.4632270000000  0.4632380000000 1.0
C      1  0.5870780000000  0.5450970000000  0.4899950000000 1.0
C      1  0.4820460000000  0.5101220000000  0.4524050000000 1.0
C      1  0.4651470000000  0.5297880000000  0.5185220000000 1.0
C      1  0.4872570000000  0.4617870000000  0.5106580000000 1.0
C      1  0.5211000000000  0.5033870000000  0.4477720000000 1.0
C      1  0.5280970000000  0.5309380000000  0.5205840000000 1.0
C      1  0.5237200000000  0.4592940000000  0.5274770000000 1.0
C      1  0.5842740000000  0.4524930000000  0.5207930000000 1.0
C      1  0.5870210000000  0.5058590000000  0.4420240000000 1.0
C      1  0.5853490000000  0.5330160000000  0.5280100000000 1.0
C      1  0.4102250000000  0.4565450000000  0.5221090000000 1.0
C      1  0.4164290000000  0.5030480000000  0.4447170000000 1.0
C      1  0.4099980000000  0.5396710000000  0.5306360000000 1.0
C      1  0.4651170000000  0.5177600000000  0.5460660000000 1.0
C      1  0.4895350000000  0.4629000000000  0.4767510000000 1.0
C      1  0.4752240000000  0.5365550000000  0.4730750000000 1.0
C      1  0.5370920000000  0.5077360000000  0.5437660000000 1.0
C      1  0.5149520000000  0.4649820000000  0.4560270000000 1.0
C      1  0.5244430000000  0.5430470000000  0.4826410000000 1.0
C      1  0.4827760000000  0.4350370000000  0.5557110000000 1.0
C      1  0.4605010000000  0.4880720000000  0.4114090000000 1.0
C      1  0.4790940000000  0.5774750000000  0.5262730000000 1.0
C      1  0.5167220000000  0.4336290000000  0.5573300000000 1.0
C      1  0.5420900000000  0.4919230000000  0.4157220000000 1.0
C      1  0.5128870000000  0.5808390000000  0.5319030000000 1.0
C      1  0.5566640000000  0.5361770000000  0.4335830000000 1.0
C      1  0.5541710000000  0.5588050000000  0.5518610000000 1.0
C      1  0.5548080000000  0.4261830000000  0.5214590000000 1.0
C      1  0.4462420000000  0.5301160000000  0.4323000000000 1.0
C      1  0.4416170000000  0.5584030000000  0.5557280000000 1.0
C      1  0.4438000000000  0.4292380000000  0.5239920000000 1.0
C      1  0.5588070000000  0.4698470000000  0.3993410000000 1.0
C      1  0.5285060000000  0.6014600000000  0.5136770000000 1.0
C      1  0.5287780000000  0.4324670000000  0.5887080000000 1.0
C      1  0.4590650000000  0.4562890000000  0.4075140000000 1.0
C      1  0.4662840000000  0.6057750000000  0.5149370000000 1.0
C      1  0.4766050000000  0.4454960000000  0.5874300000000 1.0
C      1  0.5677170000000  0.4832230000000  0.4359270000000 1.0
C      1  0.5621910000000  0.5654910000000  0.5260450000000 1.0
C      1  0.5494960000000  0.4407760000000  0.5517140000000 1.0
C      1  0.4369120000000  0.4793060000000  0.4315720000000 1.0
C      1  0.4466970000000  0.5675400000000  0.5232580000000 1.0
C      1  0.4520290000000  0.4488760000000  0.5505080000000 1.0
C      1  0.5514980000000  0.4980470000000  0.4586290000000 1.0
C      1  0.5587410000000  0.5373960000000  0.5072960000000 1.0
C      1  0.5571430000000  0.4652710000000  0.5294020000000 1.0
C      1  0.4356470000000  0.4846570000000  0.4656060000000 1.0
C      1  0.4335510000000  0.5388170000000  0.5097880000000 1.0
C      1  0.4369150000000  0.4682510000000  0.5290560000000 1.0
C      1  0.5266530000000  0.4195320000000  0.4854870000000 1.0
C      1  0.5225650000000  0.5556530000000  0.4265330000000 1.0
C      1  0.5219650000000  0.5266390000000  0.5760620000000 1.0
C      1  0.4828080000000  0.4308920000000  0.4859590000000 1.0
C      1  0.4834620000000  0.5535930000000  0.4321470000000 1.0
C      1  0.4825980000000  0.5247200000000  0.5700320000000 1.0
C      1  0.4871010000000  0.4656720000000  0.5416080000000 1.0
C      1  0.4865780000000  0.4926850000000  0.4273300000000 1.0
C      1  0.4807240000000  0.5531480000000  0.5025650000000 1.0
C      1  0.5146820000000  0.4677680000000  0.5591510000000 1.0
C      1  0.5146280000000  0.4792000000000  0.4268430000000 1.0
C      1  0.5105970000000  0.5580320000000  0.5098400000000 1.0
C      1  0.5971740000000  0.4953460000000  0.5219230000000 1.0
C      1  0.5986310000000  0.4798840000000  0.4914110000000 1.0
C      1  0.5973640000000  0.5129140000000  0.4934020000000 1.0
C      1  0.3977300000000  0.5025570000000  0.5227030000000 1.0
C      1  0.3963210000000  0.4829640000000  0.4948640000000 1.0
C      1  0.4051720000000  0.5158350000000  0.4920790000000 1.0
C      1  0.5130360000000  0.5147550000000  0.4947240000000 1.0
C      1  0.5140460000000  0.4912730000000  0.5269960000000 1.0
C      1  0.5181330000000  0.4905190000000  0.4782710000000 1.0
C      1  0.4822430000000  0.5138350000000  0.4960430000000 1.0
C      1  0.4802330000000  0.4949700000000  0.5310600000000 1.0
C      1  0.4736330000000  0.4905810000000  0.4763460000000 1.0
C      1  0.5486480000000  0.4974310000000  0.5732390000000 1.0
C      1  0.5458070000000  0.4340290000000  0.4614250000000 1.0
C      1  0.5488490000000  0.5714600000000  0.4694770000000 1.0
C      1  0.4510690000000  0.5023170000000  0.5802060000000 1.0
C      1  0.4474260000000  0.4329900000000  0.4676050000000 1.0
C      1  0.4510110000000  0.5678150000000  0.4675280000000 1.0
C      1  0.4365600000000  0.4738690000000  0.5685230000000 1.0
C      1  0.4288120000000  0.4500800000000  0.4469650000000 1.0
C      1  0.4334060000000  0.5749530000000  0.4928450000000 1.0
C      1  0.5625340000000  0.4665180000000  0.5702200000000 1.0
C      1  0.5666830000000  0.4506610000000  0.4444100000000 1.0
C      1  0.5717920000000  0.5727570000000  0.4942470000000 1.0
C      1  0.4420730000000  0.5347170000000  0.4657340000000 1.0
C      1  0.4386700000000  0.5272770000000  0.5620650000000 1.0
C      1  0.4367390000000  0.4406550000000  0.4967970000000 1.0
C      1  0.5548320000000  0.5380330000000  0.4674980000000 1.0
C      1  0.5603700000000  0.5259620000000  0.5584290000000 1.0
C      1  0.5587820000000  0.4423990000000  0.4917460000000 1.0
C      1  0.5458340000000  0.5938050000000  0.4944640000000 1.0
C      1  0.5473900000000  0.4491730000000  0.5935490000000 1.0
C      1  0.5693480000000  0.4509080000000  0.4124340000000 1.0
C      1  0.4431300000000  0.6036700000000  0.5044160000000 1.0
C      1  0.4662420000000  0.4716470000000  0.5835070000000 1.0
C      1  0.4569140000000  0.4420320000000  0.4310370000000 1.0
C      1  0.4107290000000  0.5178560000000  0.5506520000000 1.0
C      1  0.4044630000000  0.4499890000000  0.4932060000000 1.0
C      1  0.4089710000000  0.5286800000000  0.4608290000000 1.0
C      1  0.5911770000000  0.5140170000000  0.5504050000000 1.0
C      1  0.5923320000000  0.4464740000000  0.4909460000000 1.0
C      1  0.5853700000000  0.5234430000000  0.4640970000000 1.0
C      1  0.5132890000000  0.4030430000000  0.5098220000000 1.0
C      1  0.5158180000000  0.5346880000000  0.4026830000000 1.0
C      1  0.5146940000000  0.5563690000000  0.5767790000000 1.0
C      1  0.4864940000000  0.4109910000000  0.5091900000000 1.0
C      1  0.4855890000000  0.5348270000000  0.4071850000000 1.0
C      1  0.4864090000000  0.5554810000000  0.5736160000000 1.0
C      1  0.4614110000000  0.5196680000000  0.4121440000000 1.0
C      1  0.4694140000000  0.5698990000000  0.5578330000000 1.0
C      1  0.4704620000000  0.4163360000000  0.5307790000000 1.0
C      1  0.5409580000000  0.5221540000000  0.4152900000000 1.0
C      1  0.5289830000000  0.5701230000000  0.5572920000000 1.0
C      1  0.5278770000000  0.4139760000000  0.5316130000000 1.0
C      1  0.4430200000000  0.5120440000000  0.4910740000000 1.0
C      1  0.4557020000000  0.4883550000000  0.5119160000000 1.0
C      1  0.4512870000000  0.4675280000000  0.4872340000000 1.0
C      1  0.5525510000000  0.5115540000000  0.4887440000000 1.0
C      1  0.5429880000000  0.4890140000000  0.5092810000000 1.0
C      1  0.5468610000000  0.4726230000000  0.4816090000000 1.0
C      1  0.5060510000000  0.5319170000000  0.5464700000000 1.0
C      1  0.5060020000000  0.5297410000000  0.4410490000000 1.0
C      1  0.5110960000000  0.4422110000000  0.5030390000000 1.0
END
