TITL C-3289327-5623-323 0.00156831076668477 125000 -617.394338770454 0 0 104 (C1) n - 1
REM
REM in /nfs/bkarasulu/CARBON/AIRSS/Generating-Clusters/AIREBO/with-SteepDescent/Higher-Symm/SD-CG/HFTN-CG
REM
REM
REM
REM
REM
REM ./C.cell (b20cbc046b6831c77cfcea5457e17084)
REM
REM compiler GCC version 9.2.1 20190827 (Red Hat 9.2.1-1)
REM options -cpp -mtune=generic -march=x86-64 -g -O0 -fpre-include=/usr/include/finclude/math-vector-fortran.h
REM seed -1274276579 -1050134888 -854560842 -1601646964 839100076 -1723217501 711052800 1940722798 774758322 -715850874 -963180979 -962604986 -1325084636 308172733 86797109 1587904243 -945992496 162283207 1940877839 940303023 -1442887832 135658764 1682303780 1174949460 -1268533751 -1612160491 -448591679 -106942051 1959719704 -1075021295 -1258426654 -1494912006 -434936366
REM
CELL 1.54180   50.00000   50.00000   50.00000   90.00000   90.00000   90.00000
LATT -1
SFAC C  
C      1  0.4876440000000  0.5397180000000  0.4622660000000 1.0
C      1  0.5358140000000  0.4593570000000  0.4846660000000 1.0
C      1  0.4624460000000  0.4856620000000  0.5537940000000 1.0
C      1  0.4806330000000  0.4603410000000  0.5401990000000 1.0
C      1  0.5130000000000  0.5297340000000  0.5417550000000 1.0
C      1  0.5115310000000  0.4667880000000  0.4618990000000 1.0
C      1  0.5218990000000  0.5431040000000  0.5132740000000 1.0
C      1  0.4728550000000  0.4628520000000  0.5071860000000 1.0
C      1  0.4592180000000  0.5407100000000  0.4940540000000 1.0
C      1  0.4647490000000  0.5179120000000  0.4711650000000 1.0
C      1  0.5394790000000  0.4841570000000  0.4626550000000 1.0
C      1  0.5371400000000  0.5159070000000  0.5255640000000 1.0
C      1  0.5159620000000  0.5282050000000  0.4629560000000 1.0
C      1  0.4605170000000  0.4625320000000  0.4785640000000 1.0
C      1  0.5369040000000  0.4876000000000  0.5355680000000 1.0
C      1  0.5084740000000  0.4732270000000  0.5398650000000 1.0
C      1  0.4880250000000  0.5467940000000  0.5341940000000 1.0
C      1  0.4866650000000  0.4506500000000  0.4607660000000 1.0
C      1  0.4639710000000  0.5301750000000  0.5227680000000 1.0
C      1  0.5263430000000  0.4629230000000  0.5143090000000 1.0
C      1  0.5371320000000  0.5397490000000  0.4871020000000 1.0
C      1  0.5390640000000  0.5096310000000  0.4758410000000 1.0
C      1  0.4592620000000  0.4882070000000  0.4562900000000 1.0
C      1  0.4721300000000  0.5124300000000  0.5467550000000 1.0
C      1  0.4338080000000  0.5196200000000  0.5164060000000 1.0
C      1  0.5166940000000  0.5160570000000  0.4329930000000 1.0
C      1  0.5151750000000  0.4309140000000  0.5115430000000 1.0
C      1  0.4305730000000  0.4776040000000  0.4842570000000 1.0
C      1  0.5701920000000  0.5149870000000  0.4858420000000 1.0
C      1  0.5793330000000  0.4879070000000  0.5136640000000 1.0
C      1  0.5142450000000  0.4858420000000  0.5709090000000 1.0
C      1  0.4833540000000  0.5262850000000  0.5682150000000 1.0
C      1  0.4788110000000  0.4822210000000  0.4321040000000 1.0
C      1  0.5123820000000  0.5790640000000  0.4839710000000 1.0
C      1  0.4915830000000  0.4201490000000  0.4679550000000 1.0
C      1  0.4897960000000  0.5806690000000  0.5355080000000 1.0
C      1  0.5675160000000  0.5183390000000  0.5175980000000 1.0
C      1  0.4860380000000  0.5118790000000  0.4236510000000 1.0
C      1  0.4861150000000  0.4338470000000  0.5195920000000 1.0
C      1  0.5834330000000  0.4833310000000  0.4843400000000 1.0
C      1  0.4341930000000  0.5113010000000  0.4845510000000 1.0
C      1  0.4268260000000  0.4868300000000  0.5149810000000 1.0
C      1  0.4826490000000  0.4750450000000  0.5773340000000 1.0
C      1  0.5140200000000  0.5179590000000  0.5722250000000 1.0
C      1  0.5130350000000  0.4842010000000  0.4327330000000 1.0
C      1  0.4888420000000  0.5710940000000  0.4719810000000 1.0
C      1  0.5157810000000  0.4180880000000  0.4816810000000 1.0
C      1  0.5145290000000  0.5738930000000  0.5164360000000 1.0
C      1  0.5314280000000  0.5471640000000  0.5724730000000 1.0
C      1  0.5446570000000  0.5708750000000  0.5307330000000 1.0
C      1  0.5685710000000  0.5312290000000  0.5461620000000 1.0
C      1  0.5321050000000  0.4569200000000  0.4291850000000 1.0
C      1  0.4692500000000  0.5339300000000  0.4272750000000 1.0
C      1  0.4593470000000  0.4505420000000  0.5724570000000 1.0
C      1  0.5397660000000  0.4239750000000  0.4667910000000 1.0
C      1  0.4594130000000  0.5678660000000  0.4647530000000 1.0
C      1  0.4539060000000  0.4313810000000  0.5282560000000 1.0
C      1  0.5753130000000  0.4667610000000  0.4625270000000 1.0
C      1  0.4291800000000  0.5299180000000  0.4574980000000 1.0
C      1  0.4278630000000  0.4720620000000  0.5392780000000 1.0
C      1  0.4719310000000  0.5514520000000  0.5709760000000 1.0
C      1  0.4569210000000  0.5762680000000  0.5355410000000 1.0
C      1  0.4315230000000  0.5344170000000  0.5457030000000 1.0
C      1  0.4682680000000  0.4541030000000  0.4255640000000 1.0
C      1  0.5297820000000  0.5444820000000  0.4291880000000 1.0
C      1  0.5316980000000  0.4568190000000  0.5677300000000 1.0
C      1  0.4615120000000  0.4196000000000  0.4598920000000 1.0
C      1  0.5366700000000  0.5750700000000  0.4687070000000 1.0
C      1  0.5432730000000  0.4294960000000  0.5281130000000 1.0
C      1  0.4291010000000  0.4620550000000  0.4540350000000 1.0
C      1  0.5670020000000  0.5308510000000  0.4567520000000 1.0
C      1  0.5727410000000  0.4702330000000  0.5352870000000 1.0
C      1  0.5155650000000  0.4362440000000  0.4187680000000 1.0
C      1  0.4377720000000  0.4235710000000  0.5067670000000 1.0
C      1  0.4172110000000  0.5128680000000  0.4384140000000 1.0
C      1  0.5155170000000  0.5692030000000  0.5803630000000 1.0
C      1  0.4871810000000  0.4377580000000  0.5647760000000 1.0
C      1  0.4855800000000  0.5591310000000  0.4344020000000 1.0
C      1  0.4452750000000  0.5665740000000  0.4906880000000 1.0
C      1  0.5609260000000  0.4364510000000  0.4857130000000 1.0
C      1  0.5649290000000  0.5753110000000  0.5112360000000 1.0
C      1  0.4316580000000  0.4899740000000  0.5630130000000 1.0
C      1  0.5722610000000  0.5111920000000  0.5658290000000 1.0
C      1  0.5627020000000  0.4851370000000  0.4402580000000 1.0
C      1  0.4903920000000  0.4349160000000  0.4308220000000 1.0
C      1  0.5642310000000  0.4232090000000  0.5102090000000 1.0
C      1  0.5730990000000  0.5113710000000  0.4361360000000 1.0
C      1  0.4909230000000  0.5723720000000  0.5672030000000 1.0
C      1  0.5132210000000  0.4358730000000  0.5746810000000 1.0
C      1  0.5103200000000  0.5636350000000  0.4218240000000 1.0
C      1  0.5595810000000  0.5634100000000  0.4862460000000 1.0
C      1  0.4448480000000  0.4325110000000  0.4816240000000 1.0
C      1  0.4420120000000  0.5826380000000  0.5130220000000 1.0
C      1  0.5604360000000  0.4865530000000  0.5591100000000 1.0
C      1  0.4219930000000  0.5160910000000  0.5650730000000 1.0
C      1  0.4295690000000  0.4882130000000  0.4395510000000 1.0
C      1  0.5476400000000  0.5511070000000  0.4502200000000 1.0
C      1  0.5493160000000  0.4507200000000  0.5458830000000 1.0
C      1  0.4493430000000  0.5554900000000  0.5531810000000 1.0
C      1  0.4431830000000  0.4485450000000  0.5477130000000 1.0
C      1  0.5505400000000  0.4482260000000  0.4491870000000 1.0
C      1  0.4500230000000  0.5466840000000  0.4476540000000 1.0
C      1  0.4481190000000  0.4435220000000  0.4434710000000 1.0
C      1  0.5497100000000  0.5516090000000  0.5511680000000 1.0
END
