TITL C-3289328-6581-744 0.00207910940480848 125000 -547.586906463048 0 0 100 (C1) n - 1
REM
REM in /nfs/bkarasulu/CARBON/AIRSS/Generating-Clusters/AIREBO/with-SteepDescent/Higher-Symm/SD-CG/HFTN-CG
REM
REM
REM
REM
REM
REM ./C.cell (b20cbc046b6831c77cfcea5457e17084)
REM
REM compiler GCC version 9.2.1 20190827 (Red Hat 9.2.1-1)
REM options -cpp -mtune=generic -march=x86-64 -g -O0 -fpre-include=/usr/include/finclude/math-vector-fortran.h
REM seed -372096934 485704048 -824260099 2078931225 2065508075 -65980637 1702259845 -2837456 -312231013 -1519371168 -1970283134 -1825168074 749751712 316426513 -920745651 1740180157 -254968814 -1221879487 -1743084876 -538809229 -876399007 -1821048664 -1195636492 1710390675 -1139086586 -1810862214 1879805135 -1829403831 -171904289 1292656466 1133999791 -1194948273 1997210976
REM
CELL 1.54180   50.00000   50.00000   50.00000   90.00000   90.00000   90.00000
LATT -1
SFAC C  
C      1  0.4865610000000  0.4865910000000  0.5518780000000 1.0
C      1  0.4930600000000  0.5196990000000  0.4515230000000 1.0
C      1  0.4891140000000  0.5200410000000  0.5575160000000 1.0
C      1  0.4912730000000  0.4852700000000  0.4546160000000 1.0
C      1  0.5342270000000  0.4179790000000  0.4808910000000 1.0
C      1  0.5301490000000  0.5740050000000  0.5152440000000 1.0
C      1  0.5425060000000  0.5841560000000  0.4898730000000 1.0
C      1  0.5262640000000  0.4193750000000  0.5139920000000 1.0
C      1  0.4150340000000  0.5156080000000  0.5237210000000 1.0
C      1  0.4156090000000  0.4690230000000  0.4841640000000 1.0
C      1  0.4097930000000  0.4849360000000  0.5099480000000 1.0
C      1  0.4040950000000  0.4854370000000  0.4575480000000 1.0
C      1  0.5433820000000  0.4349730000000  0.5388980000000 1.0
C      1  0.5494380000000  0.5638850000000  0.4634090000000 1.0
C      1  0.5464400000000  0.5584910000000  0.5407640000000 1.0
C      1  0.5464200000000  0.4338620000000  0.4533640000000 1.0
C      1  0.5078330000000  0.4479030000000  0.5599240000000 1.0
C      1  0.5209630000000  0.5593440000000  0.4454900000000 1.0
C      1  0.5186220000000  0.5481460000000  0.5576600000000 1.0
C      1  0.5074610000000  0.4455880000000  0.4426610000000 1.0
C      1  0.5074990000000  0.4361280000000  0.4698050000000 1.0
C      1  0.5109990000000  0.5482080000000  0.5263870000000 1.0
C      1  0.5125460000000  0.5607060000000  0.4761660000000 1.0
C      1  0.5072000000000  0.4499660000000  0.5311630000000 1.0
C      1  0.4456120000000  0.5362520000000  0.4718650000000 1.0
C      1  0.4531260000000  0.4602200000000  0.5228390000000 1.0
C      1  0.4629380000000  0.4593060000000  0.4915750000000 1.0
C      1  0.4499170000000  0.5443770000000  0.5285020000000 1.0
C      1  0.4692680000000  0.5477130000000  0.5555770000000 1.0
C      1  0.4737640000000  0.4587180000000  0.4596450000000 1.0
C      1  0.4711090000000  0.4568100000000  0.5469740000000 1.0
C      1  0.4676580000000  0.5398920000000  0.4478160000000 1.0
C      1  0.4738430000000  0.5202560000000  0.5271360000000 1.0
C      1  0.4991990000000  0.4859010000000  0.4876900000000 1.0
C      1  0.5011550000000  0.4812760000000  0.5215710000000 1.0
C      1  0.4834990000000  0.5130060000000  0.4822150000000 1.0
C      1  0.5790780000000  0.4654170000000  0.5027410000000 1.0
C      1  0.5906420000000  0.5337330000000  0.4804960000000 1.0
C      1  0.5846940000000  0.5363300000000  0.5077890000000 1.0
C      1  0.5791030000000  0.4683090000000  0.4761190000000 1.0
C      1  0.4665230000000  0.4915030000000  0.4321520000000 1.0
C      1  0.4479000000000  0.5239570000000  0.5637830000000 1.0
C      1  0.4497710000000  0.5185710000000  0.4322610000000 1.0
C      1  0.4592040000000  0.4956590000000  0.5699230000000 1.0
C      1  0.5293350000000  0.4974570000000  0.5127580000000 1.0
C      1  0.5163160000000  0.5217770000000  0.4839360000000 1.0
C      1  0.5045090000000  0.5205700000000  0.5153250000000 1.0
C      1  0.5299790000000  0.4820630000000  0.4844180000000 1.0
C      1  0.4960500000000  0.5754710000000  0.5175870000000 1.0
C      1  0.4817880000000  0.4313120000000  0.4873910000000 1.0
C      1  0.4939730000000  0.4240380000000  0.5161740000000 1.0
C      1  0.4893450000000  0.5766220000000  0.4873940000000 1.0
C      1  0.5070320000000  0.4753140000000  0.5765790000000 1.0
C      1  0.5217840000000  0.5280670000000  0.4412400000000 1.0
C      1  0.5112390000000  0.5262280000000  0.5793100000000 1.0
C      1  0.5127190000000  0.4749660000000  0.4303270000000 1.0
C      1  0.5572410000000  0.4825520000000  0.5252650000000 1.0
C      1  0.5429060000000  0.5143190000000  0.4640990000000 1.0
C      1  0.5678780000000  0.5132100000000  0.5357220000000 1.0
C      1  0.5523670000000  0.4819540000000  0.4633270000000 1.0
C      1  0.5393270000000  0.5446870000000  0.4896840000000 1.0
C      1  0.5352950000000  0.4580550000000  0.5158620000000 1.0
C      1  0.5324940000000  0.4508550000000  0.4867080000000 1.0
C      1  0.5590580000000  0.5465360000000  0.5126920000000 1.0
C      1  0.4199110000000  0.5030700000000  0.4377260000000 1.0
C      1  0.4320030000000  0.4879240000000  0.5591520000000 1.0
C      1  0.4418710000000  0.4820240000000  0.4451260000000 1.0
C      1  0.4185860000000  0.5164230000000  0.5530150000000 1.0
C      1  0.5121240000000  0.5199230000000  0.4096680000000 1.0
C      1  0.4994970000000  0.4876460000000  0.6039110000000 1.0
C      1  0.5090770000000  0.4950410000000  0.4053450000000 1.0
C      1  0.5028230000000  0.5129390000000  0.6056770000000 1.0
C      1  0.5912480000000  0.4832530000000  0.5248220000000 1.0
C      1  0.5769420000000  0.5139090000000  0.4664130000000 1.0
C      1  0.5969540000000  0.5145410000000  0.5253280000000 1.0
C      1  0.5912500000000  0.4903750000000  0.4610380000000 1.0
C      1  0.4467970000000  0.5080360000000  0.5142330000000 1.0
C      1  0.4443050000000  0.4807800000000  0.4749750000000 1.0
C      1  0.4352660000000  0.4818170000000  0.5291050000000 1.0
C      1  0.4527290000000  0.5089910000000  0.4850780000000 1.0
C      1  0.5488220000000  0.5156450000000  0.4247740000000 1.0
C      1  0.5354040000000  0.4841880000000  0.5693840000000 1.0
C      1  0.5440660000000  0.4869010000000  0.4246560000000 1.0
C      1  0.5373950000000  0.5124830000000  0.5693320000000 1.0
C      1  0.4581300000000  0.5807570000000  0.4766910000000 1.0
C      1  0.4633540000000  0.4157860000000  0.5250580000000 1.0
C      1  0.4510660000000  0.4223520000000  0.4752900000000 1.0
C      1  0.4479780000000  0.5842820000000  0.5280150000000 1.0
C      1  0.5484630000000  0.4656090000000  0.5527520000000 1.0
C      1  0.5567350000000  0.5462810000000  0.4349100000000 1.0
C      1  0.5521370000000  0.5274130000000  0.5517920000000 1.0
C      1  0.5467760000000  0.4586940000000  0.4426680000000 1.0
C      1  0.4273900000000  0.4372780000000  0.4877980000000 1.0
C      1  0.4342130000000  0.5623410000000  0.5123540000000 1.0
C      1  0.4398210000000  0.5609180000000  0.4848360000000 1.0
C      1  0.4425780000000  0.4323660000000  0.5129790000000 1.0
C      1  0.4779100000000  0.5680990000000  0.4559890000000 1.0
C      1  0.4737090000000  0.4295280000000  0.5502010000000 1.0
C      1  0.4649050000000  0.4339030000000  0.4512500000000 1.0
C      1  0.4726410000000  0.5759070000000  0.5375900000000 1.0
END
