TITL C-3289330-4660-341 -630.83096209196 125000 -494.823190427972 0 0 87 (C1) n - 1
REM
REM in /nfs/bkarasulu/CARBON/AIRSS/Generating-Clusters/AIREBO/with-SteepDescent/Higher-Symm/SD-CG/HFTN-CG
REM
REM
REM
REM
REM
REM ./C.cell (b20cbc046b6831c77cfcea5457e17084)
REM
REM compiler GCC version 9.2.1 20190827 (Red Hat 9.2.1-1)
REM options -cpp -mtune=generic -march=x86-64 -g -O0 -fpre-include=/usr/include/finclude/math-vector-fortran.h
REM seed -2041264964 871920175 1819899371 -328776585 -1599922363 1644761102 1543434022 -242307056 672957074 995510543 -716148893 837938233 -1051577875 1925058619 1907751497 -1740990311 -2004108953 -2122656000 1192391017 1490658884 -1055531747 -326871426 -416177069 -522681582 810563560 1359559817 1375566935 -1723543247 718866969 1007615094 1638130733 -1127666990 1328413336
REM
CELL 1.54180   50.00000   50.00000   50.00000   90.00000   90.00000   90.00000
LATT -1
SFAC C  
C      1  0.5154200000000  0.4236620000000  0.5152140000000 1.0
C      1  0.4164350000000  0.5267070000000  0.5143190000000 1.0
C      1  0.5773540000000  0.5533120000000  0.5232370000000 1.0
C      1  0.5149430000000  0.4173760000000  0.4866300000000 1.0
C      1  0.4134540000000  0.5287130000000  0.4825400000000 1.0
C      1  0.5709170000000  0.5470780000000  0.4920980000000 1.0
C      1  0.4897470000000  0.4234980000000  0.5243150000000 1.0
C      1  0.5896620000000  0.5253770000000  0.5196050000000 1.0
C      1  0.4301170000000  0.5536270000000  0.5214850000000 1.0
C      1  0.4896480000000  0.4130810000000  0.4772080000000 1.0
C      1  0.5835790000000  0.5191990000000  0.4885600000000 1.0
C      1  0.4300700000000  0.5541060000000  0.4889840000000 1.0
C      1  0.5352230000000  0.4446410000000  0.4878340000000 1.0
C      1  0.4294280000000  0.5001790000000  0.4876670000000 1.0
C      1  0.5392340000000  0.5539580000000  0.4879440000000 1.0
C      1  0.5426530000000  0.4430960000000  0.5211290000000 1.0
C      1  0.4287930000000  0.4975410000000  0.5208930000000 1.0
C      1  0.5450510000000  0.5568790000000  0.5205250000000 1.0
C      1  0.4650990000000  0.4365940000000  0.4755260000000 1.0
C      1  0.5649050000000  0.4934220000000  0.4872580000000 1.0
C      1  0.4611570000000  0.5590310000000  0.4807360000000 1.0
C      1  0.4655180000000  0.4408530000000  0.5083520000000 1.0
C      1  0.5727300000000  0.4970570000000  0.5197510000000 1.0
C      1  0.4616950000000  0.5557500000000  0.5129670000000 1.0
C      1  0.5752680000000  0.4761330000000  0.5426400000000 1.0
C      1  0.4442270000000  0.4479030000000  0.5334840000000 1.0
C      1  0.4833930000000  0.5729760000000  0.5287530000000 1.0
C      1  0.5699030000000  0.4738900000000  0.4634090000000 1.0
C      1  0.4362220000000  0.4528280000000  0.4672340000000 1.0
C      1  0.4850130000000  0.5777730000000  0.4705230000000 1.0
C      1  0.4268590000000  0.4697590000000  0.5360340000000 1.0
C      1  0.5620190000000  0.4511060000000  0.5431470000000 1.0
C      1  0.5152490000000  0.5730690000000  0.5179890000000 1.0
C      1  0.4233870000000  0.4777460000000  0.4663250000000 1.0
C      1  0.5554210000000  0.4498590000000  0.4637060000000 1.0
C      1  0.5146590000000  0.5771620000000  0.4839180000000 1.0
C      1  0.4554560000000  0.4938920000000  0.4489230000000 1.0
C      1  0.5112940000000  0.5424500000000  0.4482650000000 1.0
C      1  0.5271440000000  0.4678230000000  0.4419540000000 1.0
C      1  0.4581430000000  0.4918110000000  0.5473950000000 1.0
C      1  0.5153750000000  0.5417050000000  0.5426560000000 1.0
C      1  0.5272930000000  0.4691010000000  0.5508590000000 1.0
C      1  0.5404590000000  0.4934020000000  0.4448060000000 1.0
C      1  0.4827870000000  0.5424040000000  0.4515330000000 1.0
C      1  0.4678640000000  0.4674580000000  0.4477240000000 1.0
C      1  0.5409100000000  0.4949660000000  0.5503140000000 1.0
C      1  0.4872120000000  0.5374210000000  0.5464890000000 1.0
C      1  0.4745610000000  0.4682580000000  0.5495830000000 1.0
C      1  0.5261720000000  0.5730450000000  0.5502240000000 1.0
C      1  0.5457350000000  0.4453570000000  0.5688330000000 1.0
C      1  0.4274060000000  0.4904260000000  0.5615020000000 1.0
C      1  0.5292660000000  0.5708060000000  0.4537070000000 1.0
C      1  0.5424750000000  0.4378440000000  0.4385380000000 1.0
C      1  0.4231130000000  0.4934890000000  0.4388240000000 1.0
C      1  0.4730740000000  0.5659310000000  0.5581990000000 1.0
C      1  0.4587710000000  0.4401390000000  0.5599740000000 1.0
C      1  0.5708430000000  0.4957980000000  0.5665680000000 1.0
C      1  0.4673320000000  0.5708910000000  0.4431250000000 1.0
C      1  0.4471790000000  0.4415360000000  0.4402140000000 1.0
C      1  0.5736550000000  0.4927630000000  0.4385680000000 1.0
C      1  0.5507360000000  0.5210010000000  0.5698500000000 1.0
C      1  0.4873850000000  0.4487390000000  0.5729930000000 1.0
C      1  0.4626950000000  0.5369750000000  0.5686880000000 1.0
C      1  0.5559190000000  0.5204410000000  0.4347770000000 1.0
C      1  0.4848700000000  0.4392820000000  0.4479640000000 1.0
C      1  0.4561740000000  0.5420530000000  0.4321090000000 1.0
C      1  0.4467080000000  0.5158560000000  0.5659070000000 1.0
C      1  0.5140220000000  0.4473570000000  0.5715030000000 1.0
C      1  0.5399940000000  0.5441190000000  0.5617330000000 1.0
C      1  0.4413120000000  0.5200560000000  0.4346480000000 1.0
C      1  0.5098410000000  0.4402830000000  0.4367680000000 1.0
C      1  0.5441750000000  0.5430240000000  0.4428660000000 1.0
C      1  0.4866950000000  0.4632540000000  0.5220310000000 1.0
C      1  0.4762550000000  0.5286500000000  0.5190280000000 1.0
C      1  0.5406710000000  0.5036930000000  0.5194590000000 1.0
C      1  0.4868890000000  0.4708100000000  0.4724520000000 1.0
C      1  0.4748830000000  0.5292730000000  0.4791090000000 1.0
C      1  0.5364100000000  0.5026120000000  0.4740140000000 1.0
C      1  0.5158290000000  0.4631450000000  0.5214580000000 1.0
C      1  0.5260120000000  0.5290380000000  0.5162370000000 1.0
C      1  0.4611790000000  0.5032990000000  0.5181690000000 1.0
C      1  0.5162760000000  0.4681350000000  0.4721750000000 1.0
C      1  0.5241630000000  0.5293660000000  0.4762950000000 1.0
C      1  0.4599340000000  0.5038160000000  0.4782310000000 1.0
C      1  0.5286660000000  0.4821950000000  0.4999060000000 1.0
C      1  0.4739920000000  0.4810440000000  0.4988410000000 1.0
C      1  0.5003450000000  0.5288250000000  0.4976670000000 1.0
END
