TITL C-3289326-3776-634 0.00427407508259515 125000 -1121.09254397773 0 0 197 (C1) n - 1
REM
REM in /nfs/bkarasulu/CARBON/AIRSS/Generating-Clusters/AIREBO/with-SteepDescent/Higher-Symm/SD-CG/HFTN-CG
REM
REM
REM
REM
REM
REM ./C.cell (b20cbc046b6831c77cfcea5457e17084)
REM
REM compiler GCC version 9.2.1 20190827 (Red Hat 9.2.1-1)
REM options -cpp -mtune=generic -march=x86-64 -g -O0 -fpre-include=/usr/include/finclude/math-vector-fortran.h
REM seed 1005254900 -1591771093 -638384719 -1077190154 339361102 1152032993 1997115865 707959175 -283093098 759991367 -2135118491 1469762381 892858748 -311413641 -495359760 1058410889 -942887124 78229783 1414877470 -1911434737 -59441893 -1246956227 762192177 -1664695942 -1485689794 951027972 1588360250 468566690 -387538892 -739298460 1699907365 -2089586976 -601433420
REM
CELL 1.54180   50.00000   50.00000   50.00000   90.00000   90.00000   90.00000
LATT -1
SFAC C  
C      1  0.5333370000000  0.5086760000000  0.5371190000000 1.0
C      1  0.5066310000000  0.5276850000000  0.5320800000000 1.0
C      1  0.5483280000000  0.5228650000000  0.5092710000000 1.0
C      1  0.5098150000000  0.5053700000000  0.4727980000000 1.0
C      1  0.4790450000000  0.4923300000000  0.4731530000000 1.0
C      1  0.4822220000000  0.4826890000000  0.5167070000000 1.0
C      1  0.4962630000000  0.4581320000000  0.4846770000000 1.0
C      1  0.4936550000000  0.5490280000000  0.4824160000000 1.0
C      1  0.4964910000000  0.4556030000000  0.5265180000000 1.0
C      1  0.5179770000000  0.4773210000000  0.5000360000000 1.0
C      1  0.4764520000000  0.5283380000000  0.4987690000000 1.0
C      1  0.4607560000000  0.4806550000000  0.4954670000000 1.0
C      1  0.4752500000000  0.4475180000000  0.4601230000000 1.0
C      1  0.4555030000000  0.4535940000000  0.4850460000000 1.0
C      1  0.4580490000000  0.4757200000000  0.4520560000000 1.0
C      1  0.4819000000000  0.5389640000000  0.5475410000000 1.0
C      1  0.5211990000000  0.4517540000000  0.5476180000000 1.0
C      1  0.5114770000000  0.5534860000000  0.4544910000000 1.0
C      1  0.4596060000000  0.5412990000000  0.5240470000000 1.0
C      1  0.5353770000000  0.4630810000000  0.5212620000000 1.0
C      1  0.5449790000000  0.5388090000000  0.4831950000000 1.0
C      1  0.4552310000000  0.5220010000000  0.5514000000000 1.0
C      1  0.5511470000000  0.4809910000000  0.5418930000000 1.0
C      1  0.5273730000000  0.5269740000000  0.4609800000000 1.0
C      1  0.5555510000000  0.5442820000000  0.5844300000000 1.0
C      1  0.5450690000000  0.5910690000000  0.5546470000000 1.0
C      1  0.5814700000000  0.5568490000000  0.5375220000000 1.0
C      1  0.5557750000000  0.4551890000000  0.4162800000000 1.0
C      1  0.4414940000000  0.5401520000000  0.4155670000000 1.0
C      1  0.4455940000000  0.4505040000000  0.5794870000000 1.0
C      1  0.5520970000000  0.4191840000000  0.4470020000000 1.0
C      1  0.4585220000000  0.5847760000000  0.4419760000000 1.0
C      1  0.4625770000000  0.4070160000000  0.5563650000000 1.0
C      1  0.5960430000000  0.4446250000000  0.4407920000000 1.0
C      1  0.4203390000000  0.5555370000000  0.4647050000000 1.0
C      1  0.4145850000000  0.4403000000000  0.5378530000000 1.0
C      1  0.5382320000000  0.5352270000000  0.5577980000000 1.0
C      1  0.5164600000000  0.5577320000000  0.5447420000000 1.0
C      1  0.5516790000000  0.5436540000000  0.5309100000000 1.0
C      1  0.5213270000000  0.4793180000000  0.4605170000000 1.0
C      1  0.4732230000000  0.5124540000000  0.4500140000000 1.0
C      1  0.4657580000000  0.4753020000000  0.5428340000000 1.0
C      1  0.5195300000000  0.4236110000000  0.4506590000000 1.0
C      1  0.4739630000000  0.5402980000000  0.4579020000000 1.0
C      1  0.4708050000000  0.4416710000000  0.5424460000000 1.0
C      1  0.5430220000000  0.4664480000000  0.4803590000000 1.0
C      1  0.4503150000000  0.5504490000000  0.4783470000000 1.0
C      1  0.4433960000000  0.4521920000000  0.5286970000000 1.0
C      1  0.5930730000000  0.4379810000000  0.5070690000000 1.0
C      1  0.4374500000000  0.4800090000000  0.5730520000000 1.0
C      1  0.4923830000000  0.5882720000000  0.4430620000000 1.0
C      1  0.5736560000000  0.5649270000000  0.5052850000000 1.0
C      1  0.4156610000000  0.4402700000000  0.5029020000000 1.0
C      1  0.4206530000000  0.5675770000000  0.4990400000000 1.0
C      1  0.4367460000000  0.5065890000000  0.4116060000000 1.0
C      1  0.5589360000000  0.4825750000000  0.4232270000000 1.0
C      1  0.5581770000000  0.5104600000000  0.5820400000000 1.0
C      1  0.4926210000000  0.4180380000000  0.5676070000000 1.0
C      1  0.5146820000000  0.6011090000000  0.5661310000000 1.0
C      1  0.4887810000000  0.3966810000000  0.4277200000000 1.0
C      1  0.4862500000000  0.4262680000000  0.4133750000000 1.0
C      1  0.4341770000000  0.4199110000000  0.4832600000000 1.0
C      1  0.4190750000000  0.4803280000000  0.4218360000000 1.0
C      1  0.4745470000000  0.5737670000000  0.5839650000000 1.0
C      1  0.5194790000000  0.4269770000000  0.5825260000000 1.0
C      1  0.5174780000000  0.5778540000000  0.4231780000000 1.0
C      1  0.4431130000000  0.5897860000000  0.5116310000000 1.0
C      1  0.5640610000000  0.4226070000000  0.5028260000000 1.0
C      1  0.5738940000000  0.5871960000000  0.4830520000000 1.0
C      1  0.4157940000000  0.5176130000000  0.5555010000000 1.0
C      1  0.5736820000000  0.4912020000000  0.5730480000000 1.0
C      1  0.5735680000000  0.5153100000000  0.4409560000000 1.0
C      1  0.4438700000000  0.5337420000000  0.6004020000000 1.0
C      1  0.5390010000000  0.6054400000000  0.4532350000000 1.0
C      1  0.5910440000000  0.4567270000000  0.5360000000000 1.0
C      1  0.4429840000000  0.4530270000000  0.4009770000000 1.0
C      1  0.5428180000000  0.5338570000000  0.4118130000000 1.0
C      1  0.5544430000000  0.4586990000000  0.6002150000000 1.0
C      1  0.5472580000000  0.4057030000000  0.5489740000000 1.0
C      1  0.4802880000000  0.5984500000000  0.5613720000000 1.0
C      1  0.4621630000000  0.3925800000000  0.4482640000000 1.0
C      1  0.5898860000000  0.5580640000000  0.4629790000000 1.0
C      1  0.4023140000000  0.4473100000000  0.4719570000000 1.0
C      1  0.4117800000000  0.5594350000000  0.5311540000000 1.0
C      1  0.4777420000000  0.4770630000000  0.6055870000000 1.0
C      1  0.4823020000000  0.6196270000000  0.4833260000000 1.0
C      1  0.6133340000000  0.4819960000000  0.4758320000000 1.0
C      1  0.4662170000000  0.5278210000000  0.3953410000000 1.0
C      1  0.5185330000000  0.4744310000000  0.3898380000000 1.0
C      1  0.5279350000000  0.5302760000000  0.5987120000000 1.0
C      1  0.4716840000000  0.3855630000000  0.5315620000000 1.0
C      1  0.5374480000000  0.6181100000000  0.5353110000000 1.0
C      1  0.5232150000000  0.3876270000000  0.4789730000000 1.0
C      1  0.6069990000000  0.5355030000000  0.5305300000000 1.0
C      1  0.3974670000000  0.4670120000000  0.5254640000000 1.0
C      1  0.4001920000000  0.5291830000000  0.4726060000000 1.0
C      1  0.5129420000000  0.4988300000000  0.5624990000000 1.0
C      1  0.5119070000000  0.5774540000000  0.5190880000000 1.0
C      1  0.5730820000000  0.5051490000000  0.5012050000000 1.0
C      1  0.5120970000000  0.4765210000000  0.4313460000000 1.0
C      1  0.4856930000000  0.4933090000000  0.4287440000000 1.0
C      1  0.4862410000000  0.4855700000000  0.5662190000000 1.0
C      1  0.5094560000000  0.4285290000000  0.4827580000000 1.0
C      1  0.4948320000000  0.5768690000000  0.4946890000000 1.0
C      1  0.4901300000000  0.4281840000000  0.5103650000000 1.0
C      1  0.5690470000000  0.4815660000000  0.4799180000000 1.0
C      1  0.4441930000000  0.5207040000000  0.4936850000000 1.0
C      1  0.4359440000000  0.4939890000000  0.5087940000000 1.0
C      1  0.5431670000000  0.5719400000000  0.5185990000000 1.0
C      1  0.5750680000000  0.4959180000000  0.5303900000000 1.0
C      1  0.5060960000000  0.5709400000000  0.5742600000000 1.0
C      1  0.5426280000000  0.4359640000000  0.4819690000000 1.0
C      1  0.4615280000000  0.5763200000000  0.4904070000000 1.0
C      1  0.4562670000000  0.4298690000000  0.5071140000000 1.0
C      1  0.5760090000000  0.4868610000000  0.4498860000000 1.0
C      1  0.4437330000000  0.5041510000000  0.4422160000000 1.0
C      1  0.4382380000000  0.4952860000000  0.5426700000000 1.0
C      1  0.5091680000000  0.4427340000000  0.4273190000000 1.0
C      1  0.4857020000000  0.5566820000000  0.4346740000000 1.0
C      1  0.4925970000000  0.4520060000000  0.5661140000000 1.0
C      1  0.5139030000000  0.3774010000000  0.5037610000000 1.0
C      1  0.3811990000000  0.4934590000000  0.5113720000000 1.0
C      1  0.4933820000000  0.5127620000000  0.3809400000000 1.0
C      1  0.5211100000000  0.6308100000000  0.5081660000000 1.0
C      1  0.4852950000000  0.3743960000000  0.5044780000000 1.0
C      1  0.4920650000000  0.6296280000000  0.5079050000000 1.0
C      1  0.3795720000000  0.5069480000000  0.4801640000000 1.0
C      1  0.6216050000000  0.5079200000000  0.4863790000000 1.0
C      1  0.6208320000000  0.5083350000000  0.5154480000000 1.0
C      1  0.5013870000000  0.4876030000000  0.6164310000000 1.0
C      1  0.5025110000000  0.5160500000000  0.6152980000000 1.0
C      1  0.4946780000000  0.4842300000000  0.3783820000000 1.0
C      1  0.5365040000000  0.5746530000000  0.4499790000000 1.0
C      1  0.5636180000000  0.4520970000000  0.5173350000000 1.0
C      1  0.4341860000000  0.5285460000000  0.5762670000000 1.0
C      1  0.5423710000000  0.4319480000000  0.5613530000000 1.0
C      1  0.4677180000000  0.5680970000000  0.5523070000000 1.0
C      1  0.4744470000000  0.4237010000000  0.4442470000000 1.0
C      1  0.5588220000000  0.5619540000000  0.4683150000000 1.0
C      1  0.4332780000000  0.4456200000000  0.4609990000000 1.0
C      1  0.4419970000000  0.5672030000000  0.5327750000000 1.0
C      1  0.4391020000000  0.4557690000000  0.4320790000000 1.0
C      1  0.5482020000000  0.5246920000000  0.4370120000000 1.0
C      1  0.5581400000000  0.4612570000000  0.5686840000000 1.0
C      1  0.3926240000000  0.5201140000000  0.5152530000000 1.0
C      1  0.5167860000000  0.5216340000000  0.3967320000000 1.0
C      1  0.5238880000000  0.3931720000000  0.5280390000000 1.0
C      1  0.3934530000000  0.4798020000000  0.4758580000000 1.0
C      1  0.6055960000000  0.5312590000000  0.4764750000000 1.0
C      1  0.6119430000000  0.4812550000000  0.5259240000000 1.0
C      1  0.5266130000000  0.4744710000000  0.6072930000000 1.0
C      1  0.4750100000000  0.5236110000000  0.6062440000000 1.0
C      1  0.4694790000000  0.4694680000000  0.3885430000000 1.0
C      1  0.5289230000000  0.6174560000000  0.4825750000000 1.0
C      1  0.4745770000000  0.3843880000000  0.4785320000000 1.0
C      1  0.4781620000000  0.6189680000000  0.5352560000000 1.0
C      1  0.4099660000000  0.4767010000000  0.5532960000000 1.0
C      1  0.4880840000000  0.5474520000000  0.4066890000000 1.0
C      1  0.5453950000000  0.4032710000000  0.4733510000000 1.0
C      1  0.4243750000000  0.5165740000000  0.4571980000000 1.0
C      1  0.6021260000000  0.4707550000000  0.4513110000000 1.0
C      1  0.5953790000000  0.5112110000000  0.5462550000000 1.0
C      1  0.4718330000000  0.4523400000000  0.5916730000000 1.0
C      1  0.5216880000000  0.5612950000000  0.5962700000000 1.0
C      1  0.5297270000000  0.4517210000000  0.4054170000000 1.0
C      1  0.5576330000000  0.5991970000000  0.5178690000000 1.0
C      1  0.4467440000000  0.4027190000000  0.5205060000000 1.0
C      1  0.4640100000000  0.5986940000000  0.4690520000000 1.0
C      1  0.4699270000000  0.4371230000000  0.3922760000000 1.0
C      1  0.4421410000000  0.3934600000000  0.4737320000000 1.0
C      1  0.4041500000000  0.4697660000000  0.4459960000000 1.0
C      1  0.4664690000000  0.5556560000000  0.6046150000000 1.0
C      1  0.5275250000000  0.4414620000000  0.6053680000000 1.0
C      1  0.5190720000000  0.5550500000000  0.4027210000000 1.0
C      1  0.4498570000000  0.6152770000000  0.5215080000000 1.0
C      1  0.5552790000000  0.4005280000000  0.5189770000000 1.0
C      1  0.5608580000000  0.6108580000000  0.4762610000000 1.0
C      1  0.4027140000000  0.5342460000000  0.5378500000000 1.0
C      1  0.6007670000000  0.4804490000000  0.5581070000000 1.0
C      1  0.5945330000000  0.5318110000000  0.4460300000000 1.0
C      1  0.5286270000000  0.5000010000000  0.5881030000000 1.0
C      1  0.5079380000000  0.6035180000000  0.5336130000000 1.0
C      1  0.5873760000000  0.5359610000000  0.5027660000000 1.0
C      1  0.5318880000000  0.4954600000000  0.4123670000000 1.0
C      1  0.4673210000000  0.4953280000000  0.4053290000000 1.0
C      1  0.4624120000000  0.4989170000000  0.5864870000000 1.0
C      1  0.5000230000000  0.3972110000000  0.4598050000000 1.0
C      1  0.5038710000000  0.5975520000000  0.4709470000000 1.0
C      1  0.4966610000000  0.4073790000000  0.5354870000000 1.0
C      1  0.5949400000000  0.4700030000000  0.4987140000000 1.0
C      1  0.4167650000000  0.5359390000000  0.4991920000000 1.0
C      1  0.4139630000000  0.4740380000000  0.4992100000000 1.0
C      1  0.5690620000000  0.4365740000000  0.4336050000000 1.0
C      1  0.4413050000000  0.5605360000000  0.4383630000000 1.0
C      1  0.4374660000000  0.4295790000000  0.5607150000000 1.0
C      1  0.5597540000000  0.5687240000000  0.5608720000000 1.0
C      1  0.5016260000000  0.5065900000000  0.5058000000000 1.0
END
