TITL C-3289329-2751-622 -0.000602985143694274 125000 -157.157255139155 0 0 30 (C1) n - 1
REM
REM in /nfs/bkarasulu/CARBON/AIRSS/Generating-Clusters/AIREBO/with-SteepDescent/Higher-Symm/SD-CG/HFTN-CG
REM
REM
REM
REM
REM
REM ./C.cell (b20cbc046b6831c77cfcea5457e17084)
REM
REM compiler GCC version 9.2.1 20190827 (Red Hat 9.2.1-1)
REM options -cpp -mtune=generic -march=x86-64 -g -O0 -fpre-include=/usr/include/finclude/math-vector-fortran.h
REM seed -2011634878 1754048324 1204221140 -86468095 -664939729 1519001843 1406353444 1262908133 -1258537320 -1445843997 2104625280 -1927588784 -1365179454 1922212727 916257300 1949947706 -1763225306 1462099171 2139706786 -1436691949 -63947562 -342989720 -1746935742 -1430768423 18116393 -497710479 748528944 -1700043382 737006829 1167626737 -1968196568 1707919455 -1628504493
REM
CELL 1.54180   50.00000   50.00000   50.00000   90.00000   90.00000   90.00000
LATT -1
SFAC C  
C      1  0.5084530000000  0.5109270000000  0.5630660000000 1.0
C      1  0.5091410000000  0.5567310000000  0.5078180000000 1.0
C      1  0.5572590000000  0.5081160000000  0.5136970000000 1.0
C      1  0.4865120000000  0.4876460000000  0.5276070000000 1.0
C      1  0.5165500000000  0.4900330000000  0.4622150000000 1.0
C      1  0.4833940000000  0.5120120000000  0.4592780000000 1.0
C      1  0.4804590000000  0.4562660000000  0.5174810000000 1.0
C      1  0.5124470000000  0.4620790000000  0.4816580000000 1.0
C      1  0.4902320000000  0.5281290000000  0.4874790000000 1.0
C      1  0.4593650000000  0.4820950000000  0.5103980000000 1.0
C      1  0.5305950000000  0.4876820000000  0.4923190000000 1.0
C      1  0.4583830000000  0.5193810000000  0.4807050000000 1.0
C      1  0.5085520000000  0.5097210000000  0.4378260000000 1.0
C      1  0.5214120000000  0.5396090000000  0.4862330000000 1.0
C      1  0.5422320000000  0.5190710000000  0.4857600000000 1.0
C      1  0.4855530000000  0.4780710000000  0.4569030000000 1.0
C      1  0.5164620000000  0.4887170000000  0.5419890000000 1.0
C      1  0.4896830000000  0.5176950000000  0.5391120000000 1.0
C      1  0.4782410000000  0.4589190000000  0.4839910000000 1.0
C      1  0.5064340000000  0.4411830000000  0.5055320000000 1.0
C      1  0.4896180000000  0.5371990000000  0.5202750000000 1.0
C      1  0.4586240000000  0.4856800000000  0.4762150000000 1.0
C      1  0.5375060000000  0.4894880000000  0.5248560000000 1.0
C      1  0.4402000000000  0.5070210000000  0.5041790000000 1.0
C      1  0.5147730000000  0.5818260000000  0.5148680000000 1.0
C      1  0.5156480000000  0.5163050000000  0.4142550000000 1.0
C      1  0.5182540000000  0.4193420000000  0.5125260000000 1.0
C      1  0.5145450000000  0.5191480000000  0.5873140000000 1.0
C      1  0.5760530000000  0.5186550000000  0.4905510000000 1.0
C      1  0.4177460000000  0.5145280000000  0.5143820000000 1.0
END
