TITL C-3289323-3850-383 -0.00109732397858538 125000 -619.908489213706 0 0 121 (C1) n - 1
REM
REM in /nfs/bkarasulu/CARBON/AIRSS/Generating-Clusters/AIREBO/with-SteepDescent/Higher-Symm/SD-CG/HFTN-CG
REM
REM
REM
REM
REM
REM ./C.cell (b20cbc046b6831c77cfcea5457e17084)
REM
REM compiler GCC version 9.2.1 20190827 (Red Hat 9.2.1-1)
REM options -cpp -mtune=generic -march=x86-64 -g -O0 -fpre-include=/usr/include/finclude/math-vector-fortran.h
REM seed 1045895643 1607185928 797501070 -606069693 -1432062317 -1777614912 428405083 280747339 63036615 2086094103 2116355916 -1408176804 1343854974 -1271007087 533853284 1652015355 -1791241019 1247865605 -275553301 134963023 77204371 19743373 -54465172 -114346133 -1254640901 -609714845 1482289012 1818088993 -48955336 279205788 1008150914 508230109 1614422402
REM
CELL 1.54180   50.00000   50.00000   50.00000   90.00000   90.00000   90.00000
LATT -1
SFAC C  
C      1  0.4866570000000  0.4562610000000  0.5713000000000 1.0
C      1  0.4764320000000  0.4552720000000  0.4125550000000 1.0
C      1  0.4875800000000  0.5953490000000  0.5020140000000 1.0
C      1  0.5191630000000  0.4505660000000  0.5813100000000 1.0
C      1  0.5100200000000  0.4565550000000  0.4184950000000 1.0
C      1  0.5198220000000  0.5973110000000  0.5088750000000 1.0
C      1  0.4830610000000  0.5260340000000  0.4206540000000 1.0
C      1  0.4885790000000  0.5677590000000  0.5771510000000 1.0
C      1  0.4860090000000  0.4061180000000  0.5245590000000 1.0
C      1  0.5107200000000  0.5328570000000  0.4065670000000 1.0
C      1  0.5179800000000  0.5548250000000  0.5653600000000 1.0
C      1  0.5161750000000  0.4172620000000  0.5178230000000 1.0
C      1  0.5380080000000  0.5746130000000  0.5507150000000 1.0
C      1  0.5377200000000  0.4176320000000  0.5413480000000 1.0
C      1  0.5296000000000  0.5107370000000  0.4085660000000 1.0
C      1  0.4672770000000  0.5723260000000  0.5588170000000 1.0
C      1  0.4641790000000  0.4202160000000  0.5400110000000 1.0
C      1  0.4622810000000  0.5064250000000  0.4076250000000 1.0
C      1  0.5753060000000  0.4863710000000  0.4704170000000 1.0
C      1  0.5796770000000  0.5283890000000  0.5012350000000 1.0
C      1  0.5789220000000  0.4819530000000  0.5260310000000 1.0
C      1  0.4215650000000  0.4860940000000  0.4697580000000 1.0
C      1  0.4240320000000  0.5329790000000  0.5013240000000 1.0
C      1  0.4194200000000  0.4823850000000  0.5193690000000 1.0
C      1  0.5870610000000  0.4585150000000  0.5381450000000 1.0
C      1  0.5808880000000  0.4874270000000  0.4432870000000 1.0
C      1  0.5877270000000  0.5479890000000  0.5194910000000 1.0
C      1  0.4123130000000  0.4566930000000  0.5277360000000 1.0
C      1  0.4121320000000  0.4913530000000  0.4441190000000 1.0
C      1  0.4187430000000  0.5559630000000  0.5156820000000 1.0
C      1  0.4855470000000  0.5741930000000  0.4758840000000 1.0
C      1  0.4845400000000  0.4901190000000  0.5736510000000 1.0
C      1  0.4808750000000  0.4435950000000  0.4422990000000 1.0
C      1  0.5175670000000  0.5782340000000  0.4822140000000 1.0
C      1  0.5165520000000  0.4822030000000  0.5755370000000 1.0
C      1  0.5142260000000  0.4424000000000  0.4488330000000 1.0
C      1  0.5615070000000  0.4468540000000  0.5100300000000 1.0
C      1  0.5595370000000  0.5204260000000  0.4494560000000 1.0
C      1  0.5591820000000  0.5310420000000  0.5416930000000 1.0
C      1  0.4424150000000  0.4483720000000  0.5030420000000 1.0
C      1  0.4387250000000  0.5209610000000  0.4470730000000 1.0
C      1  0.4364820000000  0.5313070000000  0.5412480000000 1.0
C      1  0.5462120000000  0.5492000000000  0.4371290000000 1.0
C      1  0.5468030000000  0.5278960000000  0.5719580000000 1.0
C      1  0.5480260000000  0.4201270000000  0.4938790000000 1.0
C      1  0.4534420000000  0.5489980000000  0.4338140000000 1.0
C      1  0.4464860000000  0.5229390000000  0.5726560000000 1.0
C      1  0.4576950000000  0.4206680000000  0.4905900000000 1.0
C      1  0.5121290000000  0.5440530000000  0.5157590000000 1.0
C      1  0.5157640000000  0.4679420000000  0.5306520000000 1.0
C      1  0.5154080000000  0.4972530000000  0.4608840000000 1.0
C      1  0.4810510000000  0.5354300000000  0.5175690000000 1.0
C      1  0.4852840000000  0.4640910000000  0.5206050000000 1.0
C      1  0.4848460000000  0.4907370000000  0.4532550000000 1.0
C      1  0.4225780000000  0.5353130000000  0.4733660000000 1.0
C      1  0.4182320000000  0.5016690000000  0.5394210000000 1.0
C      1  0.4229010000000  0.4597530000000  0.4776270000000 1.0
C      1  0.5802130000000  0.5346160000000  0.4734450000000 1.0
C      1  0.5813440000000  0.5050710000000  0.5409230000000 1.0
C      1  0.5776900000000  0.4616600000000  0.4839230000000 1.0
C      1  0.5390010000000  0.5536990000000  0.4879790000000 1.0
C      1  0.5405640000000  0.4899660000000  0.5527450000000 1.0
C      1  0.5382160000000  0.4608380000000  0.4621040000000 1.0
C      1  0.4635020000000  0.5521740000000  0.4858810000000 1.0
C      1  0.4631840000000  0.4819030000000  0.5515800000000 1.0
C      1  0.4598890000000  0.4611690000000  0.4624750000000 1.0
C      1  0.5202840000000  0.5631360000000  0.4541470000000 1.0
C      1  0.5173220000000  0.5129300000000  0.5754350000000 1.0
C      1  0.5208540000000  0.4276300000000  0.4749670000000 1.0
C      1  0.4808410000000  0.5578060000000  0.4506640000000 1.0
C      1  0.4768800000000  0.5203150000000  0.5790990000000 1.0
C      1  0.4814430000000  0.4282790000000  0.4691090000000 1.0
C      1  0.4437620000000  0.5639730000000  0.5356930000000 1.0
C      1  0.4390560000000  0.4395030000000  0.5346420000000 1.0
C      1  0.4380900000000  0.4964420000000  0.4251950000000 1.0
C      1  0.5620370000000  0.5619510000000  0.5339170000000 1.0
C      1  0.5607780000000  0.4398930000000  0.5433040000000 1.0
C      1  0.5544050000000  0.4979140000000  0.4264070000000 1.0
C      1  0.4476300000000  0.5124410000000  0.5149320000000 1.0
C      1  0.4473840000000  0.4818870000000  0.5000040000000 1.0
C      1  0.4489060000000  0.5055990000000  0.4756600000000 1.0
C      1  0.5526640000000  0.5122270000000  0.5141250000000 1.0
C      1  0.5506560000000  0.4789700000000  0.5073350000000 1.0
C      1  0.5512360000000  0.5082970000000  0.4803790000000 1.0
C      1  0.4777030000000  0.4798210000000  0.4846690000000 1.0
C      1  0.4772260000000  0.5210620000000  0.4869790000000 1.0
C      1  0.4762500000000  0.4962400000000  0.5236300000000 1.0
C      1  0.5229900000000  0.4775270000000  0.4875350000000 1.0
C      1  0.5227640000000  0.5239060000000  0.4905120000000 1.0
C      1  0.5228000000000  0.5008740000000  0.5258540000000 1.0
C      1  0.4423280000000  0.5564910000000  0.4637830000000 1.0
C      1  0.4376240000000  0.4968790000000  0.5609780000000 1.0
C      1  0.4391110000000  0.4345610000000  0.4663760000000 1.0
C      1  0.5598080000000  0.5558940000000  0.4663950000000 1.0
C      1  0.5675370000000  0.5033040000000  0.5685780000000 1.0
C      1  0.5595560000000  0.4405780000000  0.4711550000000 1.0
C      1  0.4832880000000  0.5657540000000  0.5325250000000 1.0
C      1  0.4870010000000  0.4421240000000  0.5418110000000 1.0
C      1  0.4833270000000  0.4862610000000  0.4202370000000 1.0
C      1  0.5124730000000  0.5747050000000  0.5311840000000 1.0
C      1  0.5167060000000  0.4400930000000  0.5505480000000 1.0
C      1  0.5155330000000  0.4888250000000  0.4277320000000 1.0
C      1  0.5167230000000  0.4475650000000  0.5024100000000 1.0
C      1  0.5176260000000  0.5307550000000  0.4580030000000 1.0
C      1  0.5146610000000  0.5279220000000  0.5448320000000 1.0
C      1  0.4861210000000  0.4487190000000  0.4926800000000 1.0
C      1  0.4866070000000  0.5242400000000  0.4544270000000 1.0
C      1  0.4832520000000  0.5198880000000  0.5470380000000 1.0
C      1  0.4505810000000  0.4671340000000  0.4315610000000 1.0
C      1  0.4630800000000  0.5727290000000  0.5089220000000 1.0
C      1  0.4539910000000  0.4523240000000  0.5609240000000 1.0
C      1  0.5409500000000  0.4672990000000  0.4318490000000 1.0
C      1  0.5457530000000  0.5751120000000  0.5101570000000 1.0
C      1  0.5476910000000  0.4600000000000  0.5648070000000 1.0
C      1  0.5247650000000  0.5396900000000  0.5950450000000 1.0
C      1  0.5217790000000  0.3979940000000  0.4907070000000 1.0
C      1  0.5173430000000  0.5600760000000  0.4213780000000 1.0
C      1  0.4918630000000  0.5420530000000  0.5924900000000 1.0
C      1  0.4883580000000  0.4047320000000  0.4920280000000 1.0
C      1  0.4831150000000  0.5594560000000  0.4178590000000 1.0
C      1  0.5005470000000  0.4999120000000  0.5000410000000 1.0
END
