TITL C-3289328-6581-118 -0.00077029251659345 125000 -368.569856249457 0 0 74 (C1) n - 1
REM
REM in /nfs/bkarasulu/CARBON/AIRSS/Generating-Clusters/AIREBO/with-SteepDescent/Higher-Symm/SD-CG/HFTN-CG
REM
REM
REM
REM
REM
REM ./C.cell (b20cbc046b6831c77cfcea5457e17084)
REM
REM compiler GCC version 9.2.1 20190827 (Red Hat 9.2.1-1)
REM options -cpp -mtune=generic -march=x86-64 -g -O0 -fpre-include=/usr/include/finclude/math-vector-fortran.h
REM seed 904077973 -1693515211 -1230265235 -1515291078 -1635704728 2055322265 1360385590 -107272088 -771255632 1344573694 1610906147 -110781105 -192804881 134299265 -571437725 -540434761 -1088899099 -1085538186 -1402742810 -1110002147 -264596130 -557224163 1601688996 1187635587 -398321682 1259580012 -888325347 -1639931429 423838637 2066019459 -1899272769 -393694879 -86764699
REM
CELL 1.54180   50.00000   50.00000   50.00000   90.00000   90.00000   90.00000
LATT -1
SFAC C  
C      1  0.5490380000000  0.4795690000000  0.4495600000000 1.0
C      1  0.5546700000000  0.5545080000000  0.4701300000000 1.0
C      1  0.5582390000000  0.5260630000000  0.5439300000000 1.0
C      1  0.5576930000000  0.4519420000000  0.5303780000000 1.0
C      1  0.4522880000000  0.4842320000000  0.4500590000000 1.0
C      1  0.4486230000000  0.5474400000000  0.4851990000000 1.0
C      1  0.4511260000000  0.5173820000000  0.5512020000000 1.0
C      1  0.4482010000000  0.4540560000000  0.5150830000000 1.0
C      1  0.5149590000000  0.5252630000000  0.4813770000000 1.0
C      1  0.5128120000000  0.5168670000000  0.5254140000000 1.0
C      1  0.5124150000000  0.4739820000000  0.5154590000000 1.0
C      1  0.5177210000000  0.4862620000000  0.4736610000000 1.0
C      1  0.4828650000000  0.5270460000000  0.4836270000000 1.0
C      1  0.4813250000000  0.5162020000000  0.5253790000000 1.0
C      1  0.4806510000000  0.4772490000000  0.5163650000000 1.0
C      1  0.4839370000000  0.4824120000000  0.4740310000000 1.0
C      1  0.4748770000000  0.4602380000000  0.4416750000000 1.0
C      1  0.4717570000000  0.5596830000000  0.4634930000000 1.0
C      1  0.4757050000000  0.5392750000000  0.5597380000000 1.0
C      1  0.4731630000000  0.4418090000000  0.5330910000000 1.0
C      1  0.5289050000000  0.4543260000000  0.4408850000000 1.0
C      1  0.5276260000000  0.5612430000000  0.4631890000000 1.0
C      1  0.5327030000000  0.5348610000000  0.5550300000000 1.0
C      1  0.5307360000000  0.4418450000000  0.5356560000000 1.0
C      1  0.5684880000000  0.4635450000000  0.5539560000000 1.0
C      1  0.5705880000000  0.4639380000000  0.4685780000000 1.0
C      1  0.5699720000000  0.5299410000000  0.4596060000000 1.0
C      1  0.5726040000000  0.5478590000000  0.5328590000000 1.0
C      1  0.4280000000000  0.4669470000000  0.5374780000000 1.0
C      1  0.4314800000000  0.4604070000000  0.4621840000000 1.0
C      1  0.4297210000000  0.5338410000000  0.4617490000000 1.0
C      1  0.4300540000000  0.5408410000000  0.5388050000000 1.0
C      1  0.5161810000000  0.5126520000000  0.5650070000000 1.0
C      1  0.5177350000000  0.4346460000000  0.5110990000000 1.0
C      1  0.5199920000000  0.4846950000000  0.4325150000000 1.0
C      1  0.5147050000000  0.5644780000000  0.4888350000000 1.0
C      1  0.4885720000000  0.5130190000000  0.5668160000000 1.0
C      1  0.4903150000000  0.4322120000000  0.5101410000000 1.0
C      1  0.4890240000000  0.4867830000000  0.4344680000000 1.0
C      1  0.4873220000000  0.5669000000000  0.4888770000000 1.0
C      1  0.5294910000000  0.4588110000000  0.4902630000000 1.0
C      1  0.5252040000000  0.5114340000000  0.4520460000000 1.0
C      1  0.5297220000000  0.5406300000000  0.5078860000000 1.0
C      1  0.5266620000000  0.4901430000000  0.5417760000000 1.0
C      1  0.4730870000000  0.4550400000000  0.4917430000000 1.0
C      1  0.4746740000000  0.5093680000000  0.4554560000000 1.0
C      1  0.4718310000000  0.5453250000000  0.5101030000000 1.0
C      1  0.4723460000000  0.4910970000000  0.5465060000000 1.0
C      1  0.4458130000000  0.5603440000000  0.5260460000000 1.0
C      1  0.4434460000000  0.4774890000000  0.5581830000000 1.0
C      1  0.4466830000000  0.4410720000000  0.4754740000000 1.0
C      1  0.4464090000000  0.5229080000000  0.4422350000000 1.0
C      1  0.5560960000000  0.5609910000000  0.5147130000000 1.0
C      1  0.5504800000000  0.4818900000000  0.5646150000000 1.0
C      1  0.5568690000000  0.4413070000000  0.4802140000000 1.0
C      1  0.5556520000000  0.5173590000000  0.4401870000000 1.0
C      1  0.4890790000000  0.5532230000000  0.5383320000000 1.0
C      1  0.4858490000000  0.4603530000000  0.5519700000000 1.0
C      1  0.4869290000000  0.4444450000000  0.4625350000000 1.0
C      1  0.4848400000000  0.5405070000000  0.4462560000000 1.0
C      1  0.5177630000000  0.5545190000000  0.5365530000000 1.0
C      1  0.5143810000000  0.4604060000000  0.5528210000000 1.0
C      1  0.5148640000000  0.4437840000000  0.4634900000000 1.0
C      1  0.5132000000000  0.5425120000000  0.4453990000000 1.0
C      1  0.5568540000000  0.4726290000000  0.5050230000000 1.0
C      1  0.5592380000000  0.4942960000000  0.4788790000000 1.0
C      1  0.5546920000000  0.5262650000000  0.4897570000000 1.0
C      1  0.5547090000000  0.5006970000000  0.5240930000000 1.0
C      1  0.4314000000000  0.4829140000000  0.5084960000000 1.0
C      1  0.4327080000000  0.4891620000000  0.4772000000000 1.0
C      1  0.4311070000000  0.5188520000000  0.4914660000000 1.0
C      1  0.4321650000000  0.5123780000000  0.5233560000000 1.0
C      1  0.5280160000000  0.4999410000000  0.5030410000000 1.0
C      1  0.4883530000000  0.5008590000000  0.4983160000000 1.0
END
