TITL C-3289320-4661-655 -0.00376213215240514 125000 -436.221912895125 0 0 76 (C1) n - 1
REM
REM in /nfs/bkarasulu/CARBON/AIRSS/Generating-Clusters/AIREBO/with-SteepDescent/Higher-Symm/SD-CG/HFTN-CG
REM
REM
REM
REM
REM
REM ./C.cell (b20cbc046b6831c77cfcea5457e17084)
REM
REM compiler GCC version 9.2.1 20190827 (Red Hat 9.2.1-1)
REM options -cpp -mtune=generic -march=x86-64 -g -O0 -fpre-include=/usr/include/finclude/math-vector-fortran.h
REM seed -1267426849 205876055 -254897612 1849293828 -2011565647 -1429670804 -1690343602 -339842337 319259553 1384356808 1254267623 1352981803 144824790 511280044 -820227127 77718598 1950556358 772899538 -1265518222 -1128059441 1716150579 892780656 1438568062 1338784441 -1644487470 -1631093873 -1383036262 -1742715063 1910547365 -884747229 -1073736449 -1464044454 547449499
REM
CELL 1.54180   50.00000   50.00000   50.00000   90.00000   90.00000   90.00000
LATT -1
SFAC C  
C      1  0.5334140000000  0.4390800000000  0.4754360000000 1.0
C      1  0.5238540000000  0.4774670000000  0.5626220000000 1.0
C      1  0.5278010000000  0.5508750000000  0.5239550000000 1.0
C      1  0.5269250000000  0.5225660000000  0.4350140000000 1.0
C      1  0.4788310000000  0.4487200000000  0.4808420000000 1.0
C      1  0.4705220000000  0.4729370000000  0.5547100000000 1.0
C      1  0.4778040000000  0.5628060000000  0.5211700000000 1.0
C      1  0.4733540000000  0.5179400000000  0.4534530000000 1.0
C      1  0.5539790000000  0.5097390000000  0.4454870000000 1.0
C      1  0.5571050000000  0.4551030000000  0.4903020000000 1.0
C      1  0.5545380000000  0.4857050000000  0.5569800000000 1.0
C      1  0.5534770000000  0.5410080000000  0.5080140000000 1.0
C      1  0.4462930000000  0.4988680000000  0.4515230000000 1.0
C      1  0.4483620000000  0.4407600000000  0.4818600000000 1.0
C      1  0.4388890000000  0.4691860000000  0.5539040000000 1.0
C      1  0.4508930000000  0.5677440000000  0.5041200000000 1.0
C      1  0.4217690000000  0.5172430000000  0.4616680000000 1.0
C      1  0.4295380000000  0.4567350000000  0.4773500000000 1.0
C      1  0.4267760000000  0.4762320000000  0.5328150000000 1.0
C      1  0.4322640000000  0.5483120000000  0.5106230000000 1.0
C      1  0.5692530000000  0.5283660000000  0.4612660000000 1.0
C      1  0.5717570000000  0.4710100000000  0.4716450000000 1.0
C      1  0.5668650000000  0.4658190000000  0.5407520000000 1.0
C      1  0.5704240000000  0.5272930000000  0.5260130000000 1.0
C      1  0.5065130000000  0.4979100000000  0.5756420000000 1.0
C      1  0.5230630000000  0.5756780000000  0.5040510000000 1.0
C      1  0.5107560000000  0.5030590000000  0.4191450000000 1.0
C      1  0.5205780000000  0.4243710000000  0.4978420000000 1.0
C      1  0.4797720000000  0.4977060000000  0.5679630000000 1.0
C      1  0.4946310000000  0.5842470000000  0.5045980000000 1.0
C      1  0.4827290000000  0.5081420000000  0.4222620000000 1.0
C      1  0.4922770000000  0.4297750000000  0.4996890000000 1.0
C      1  0.4770060000000  0.5154720000000  0.4871830000000 1.0
C      1  0.4826510000000  0.4815900000000  0.4892220000000 1.0
C      1  0.4712370000000  0.4746640000000  0.5205870000000 1.0
C      1  0.4789630000000  0.5288840000000  0.5190690000000 1.0
C      1  0.5248220000000  0.5308220000000  0.4679640000000 1.0
C      1  0.5276100000000  0.4707160000000  0.4644020000000 1.0
C      1  0.5263750000000  0.4826810000000  0.5288450000000 1.0
C      1  0.5275950000000  0.5166990000000  0.5264190000000 1.0
C      1  0.4434700000000  0.5205270000000  0.4846160000000 1.0
C      1  0.4354520000000  0.4850540000000  0.4806390000000 1.0
C      1  0.4441950000000  0.4903650000000  0.5106420000000 1.0
C      1  0.4480590000000  0.5205040000000  0.5166980000000 1.0
C      1  0.5498530000000  0.5362810000000  0.4811280000000 1.0
C      1  0.5512780000000  0.4847470000000  0.4569890000000 1.0
C      1  0.5518800000000  0.4646390000000  0.5154130000000 1.0
C      1  0.5552530000000  0.5098730000000  0.5438600000000 1.0
C      1  0.4824970000000  0.4321370000000  0.5263590000000 1.0
C      1  0.4713490000000  0.5247260000000  0.5594040000000 1.0
C      1  0.4759710000000  0.5690390000000  0.4818870000000 1.0
C      1  0.4693060000000  0.4818740000000  0.4372250000000 1.0
C      1  0.5223000000000  0.4342880000000  0.5257020000000 1.0
C      1  0.5161810000000  0.5251950000000  0.5738820000000 1.0
C      1  0.5172610000000  0.5690500000000  0.4755870000000 1.0
C      1  0.5122460000000  0.4762950000000  0.4282290000000 1.0
C      1  0.4755900000000  0.4263430000000  0.5526060000000 1.0
C      1  0.4707190000000  0.5522160000000  0.5666300000000 1.0
C      1  0.4702220000000  0.5668480000000  0.4513740000000 1.0
C      1  0.4727920000000  0.4507920000000  0.4336430000000 1.0
C      1  0.5260510000000  0.4299110000000  0.5534730000000 1.0
C      1  0.5249610000000  0.5517800000000  0.5737900000000 1.0
C      1  0.5213810000000  0.5710980000000  0.4479280000000 1.0
C      1  0.5231750000000  0.4503200000000  0.4261950000000 1.0
C      1  0.5101250000000  0.5488180000000  0.4347110000000 1.0
C      1  0.5152440000000  0.4358920000000  0.4492310000000 1.0
C      1  0.5129480000000  0.4500990000000  0.5688550000000 1.0
C      1  0.5155450000000  0.5642370000000  0.5502170000000 1.0
C      1  0.4829730000000  0.5452270000000  0.4402590000000 1.0
C      1  0.4879580000000  0.4395070000000  0.4533970000000 1.0
C      1  0.4846940000000  0.4487220000000  0.5675940000000 1.0
C      1  0.4873970000000  0.5675270000000  0.5492020000000 1.0
C      1  0.4969920000000  0.5422490000000  0.4808520000000 1.0
C      1  0.5012120000000  0.5210100000000  0.5435760000000 1.0
C      1  0.4959580000000  0.4783830000000  0.4580680000000 1.0
C      1  0.5011090000000  0.4604990000000  0.5237310000000 1.0
END
