TITL C-3289322-3858-651 1.86304020215579e-05 125000 -112.071402140416 0 0 20 (C3) n - 1
REM
REM in /nfs/bkarasulu/CARBON/AIRSS/Generating-Clusters/AIREBO/with-SteepDescent/Higher-Symm/SD-CG/HFTN-CG
REM
REM
REM
REM
REM
REM ./C.cell (b20cbc046b6831c77cfcea5457e17084)
REM
REM compiler GCC version 9.2.1 20190827 (Red Hat 9.2.1-1)
REM options -cpp -mtune=generic -march=x86-64 -g -O0 -fpre-include=/usr/include/finclude/math-vector-fortran.h
REM seed 797658268 1111560834 -820721386 -1043528504 -1555659151 187059210 1294206405 1080724328 1752497026 687231268 1361525776 4694829 593948836 -763509590 1300047176 -630694263 830272672 427741728 1316241752 135628163 -934982418 1412838005 2048875562 1530420973 1749667961 509099779 266051008 -648266449 970377755 -1637092420 -1735900410 1305566392 661026994
REM
CELL 1.54180   50.00000   50.00000   50.00000   90.00000   90.00000   90.00000
LATT -1
SFAC C  
C      1  0.5132430000000  0.5635490000000  0.4977750000000 1.0
C      1  0.5131790000000  0.4662160000000  0.5557810000000 1.0
C      1  0.5136090000000  0.4646480000000  0.4424860000000 1.0
C      1  0.5049770000000  0.4583690000000  0.4903870000000 1.0
C      1  0.5049540000000  0.5251570000000  0.4683510000000 1.0
C      1  0.5047170000000  0.5108470000000  0.5372090000000 1.0
C      1  0.5132280000000  0.4322410000000  0.4927840000000 1.0
C      1  0.5132440000000  0.5361920000000  0.4445610000000 1.0
C      1  0.5128300000000  0.5259790000000  0.5586960000000 1.0
C      1  0.4946430000000  0.4991180000000  0.4717810000000 1.0
C      1  0.4944530000000  0.5208380000000  0.5128990000000 1.0
C      1  0.4945340000000  0.4743680000000  0.5111500000000 1.0
C      1  0.5050080000000  0.4734360000000  0.4663080000000 1.0
C      1  0.5048020000000  0.5384770000000  0.4934390000000 1.0
C      1  0.5047300000000  0.4824600000000  0.5362000000000 1.0
C      1  0.5234460000000  0.4082700000000  0.4956020000000 1.0
C      1  0.5235020000000  0.5457950000000  0.4224350000000 1.0
C      1  0.5229240000000  0.5403960000000  0.5781180000000 1.0
C      1  0.4762480000000  0.4980790000000  0.4985410000000 1.0
C      1  0.4487800000000  0.4980350000000  0.4984380000000 1.0
END
