TITL C-3289326-3776-250 0.00484216807256979 125000 -793.151508758584 0 0 145 (C1) n - 1
REM
REM in /nfs/bkarasulu/CARBON/AIRSS/Generating-Clusters/AIREBO/with-SteepDescent/Higher-Symm/SD-CG/HFTN-CG
REM
REM
REM
REM
REM
REM ./C.cell (b20cbc046b6831c77cfcea5457e17084)
REM
REM compiler GCC version 9.2.1 20190827 (Red Hat 9.2.1-1)
REM options -cpp -mtune=generic -march=x86-64 -g -O0 -fpre-include=/usr/include/finclude/math-vector-fortran.h
REM seed 500113795 -618678831 44150244 -371494708 -461895268 -979838277 -1534895449 -932618307 433786566 -1302880004 -1551021908 1470469608 2119790500 1393966066 -1597993815 -1544814926 -105827764 508204093 537945438 -1145113878 504093947 1660584571 -1255832327 -862031228 1426134992 -1896233466 -1862860072 759609832 -1895573156 1293233259 -736703807 -2053483401 -1607780071
REM
CELL 1.54180   50.00000   50.00000   50.00000   90.00000   90.00000   90.00000
LATT -1
SFAC C  
C      1  0.4268240000000  0.4796810000000  0.5303060000000 1.0
C      1  0.4678290000000  0.4369330000000  0.5242850000000 1.0
C      1  0.5209160000000  0.4257680000000  0.5219540000000 1.0
C      1  0.5717720000000  0.4931630000000  0.5287630000000 1.0
C      1  0.5511700000000  0.5528840000000  0.5251500000000 1.0
C      1  0.4911460000000  0.5664430000000  0.5285950000000 1.0
C      1  0.4375050000000  0.5363420000000  0.5369140000000 1.0
C      1  0.5296700000000  0.4761070000000  0.5953860000000 1.0
C      1  0.5360390000000  0.5082140000000  0.5992240000000 1.0
C      1  0.5246100000000  0.5370960000000  0.5972790000000 1.0
C      1  0.4983090000000  0.5483280000000  0.5999530000000 1.0
C      1  0.4536410000000  0.5058120000000  0.6072070000000 1.0
C      1  0.4643700000000  0.4789000000000  0.5975940000000 1.0
C      1  0.4954800000000  0.4759890000000  0.5920400000000 1.0
C      1  0.4587980000000  0.4242440000000  0.5531840000000 1.0
C      1  0.5266680000000  0.4135940000000  0.5486720000000 1.0
C      1  0.5728800000000  0.4800280000000  0.5630410000000 1.0
C      1  0.5661040000000  0.5528950000000  0.5542820000000 1.0
C      1  0.5028730000000  0.5870750000000  0.5515580000000 1.0
C      1  0.4401950000000  0.5549410000000  0.5652520000000 1.0
C      1  0.4208280000000  0.4818200000000  0.5637310000000 1.0
C      1  0.5758740000000  0.5065960000000  0.4574300000000 1.0
C      1  0.5505550000000  0.5355480000000  0.4679670000000 1.0
C      1  0.4920450000000  0.5588590000000  0.4666730000000 1.0
C      1  0.4503090000000  0.5307110000000  0.4731870000000 1.0
C      1  0.4449300000000  0.4678710000000  0.4626050000000 1.0
C      1  0.4881950000000  0.4331390000000  0.4485160000000 1.0
C      1  0.5397600000000  0.4512080000000  0.4647130000000 1.0
C      1  0.5020690000000  0.3945400000000  0.5349660000000 1.0
C      1  0.5853560000000  0.4595000000000  0.5440650000000 1.0
C      1  0.5894870000000  0.5471930000000  0.5333760000000 1.0
C      1  0.5236660000000  0.6034350000000  0.5336660000000 1.0
C      1  0.4398810000000  0.5754230000000  0.5413070000000 1.0
C      1  0.3991430000000  0.5006860000000  0.5485020000000 1.0
C      1  0.4320890000000  0.4245630000000  0.5359230000000 1.0
C      1  0.5018340000000  0.5397420000000  0.4160670000000 1.0
C      1  0.4742960000000  0.5258050000000  0.4156760000000 1.0
C      1  0.4710630000000  0.5041050000000  0.3988220000000 1.0
C      1  0.4791100000000  0.4758420000000  0.4132350000000 1.0
C      1  0.5346910000000  0.4758880000000  0.4087490000000 1.0
C      1  0.5429490000000  0.5087750000000  0.4113680000000 1.0
C      1  0.5234470000000  0.5264150000000  0.4041550000000 1.0
C      1  0.5857510000000  0.5367250000000  0.4491470000000 1.0
C      1  0.5328850000000  0.5616270000000  0.4589820000000 1.0
C      1  0.4637810000000  0.5583600000000  0.4477230000000 1.0
C      1  0.4225730000000  0.5139250000000  0.4766480000000 1.0
C      1  0.4426510000000  0.4446890000000  0.4390490000000 1.0
C      1  0.5142680000000  0.4144430000000  0.4479180000000 1.0
C      1  0.5691600000000  0.4579140000000  0.4712650000000 1.0
C      1  0.4603260000000  0.4241880000000  0.4403700000000 1.0
C      1  0.5367400000000  0.4212820000000  0.4612640000000 1.0
C      1  0.5859370000000  0.4763260000000  0.4611270000000 1.0
C      1  0.5726340000000  0.5602190000000  0.4602300000000 1.0
C      1  0.5168190000000  0.5860090000000  0.4512540000000 1.0
C      1  0.4352600000000  0.5555270000000  0.4554750000000 1.0
C      1  0.4196360000000  0.4905810000000  0.4634100000000 1.0
C      1  0.5366600000000  0.5091480000000  0.4640940000000 1.0
C      1  0.4956630000000  0.5345920000000  0.4479760000000 1.0
C      1  0.4667780000000  0.5168370000000  0.4467580000000 1.0
C      1  0.4680290000000  0.4838260000000  0.4434140000000 1.0
C      1  0.4945440000000  0.4618140000000  0.4400950000000 1.0
C      1  0.5281510000000  0.4671840000000  0.4409590000000 1.0
C      1  0.5495610000000  0.4939480000000  0.4400010000000 1.0
C      1  0.6137380000000  0.5553960000000  0.5308590000000 1.0
C      1  0.5333560000000  0.6266650000000  0.5297130000000 1.0
C      1  0.4292330000000  0.5990990000000  0.5406240000000 1.0
C      1  0.3740270000000  0.5039630000000  0.5541140000000 1.0
C      1  0.4114040000000  0.4090660000000  0.5371720000000 1.0
C      1  0.4939970000000  0.3691780000000  0.5400960000000 1.0
C      1  0.6041890000000  0.4421020000000  0.5479810000000 1.0
C      1  0.5745010000000  0.5051200000000  0.5796080000000 1.0
C      1  0.5451370000000  0.5560680000000  0.5798140000000 1.0
C      1  0.4911560000000  0.5772440000000  0.5816190000000 1.0
C      1  0.4416970000000  0.5328400000000  0.5913750000000 1.0
C      1  0.4419360000000  0.4643690000000  0.5828460000000 1.0
C      1  0.4829420000000  0.4257950000000  0.5771070000000 1.0
C      1  0.5321370000000  0.4328610000000  0.5680460000000 1.0
C      1  0.4162590000000  0.5142770000000  0.5258040000000 1.0
C      1  0.4369970000000  0.4504650000000  0.5167540000000 1.0
C      1  0.4901330000000  0.4180700000000  0.5129600000000 1.0
C      1  0.5642510000000  0.4610830000000  0.5201210000000 1.0
C      1  0.5713340000000  0.5250500000000  0.5168050000000 1.0
C      1  0.5239030000000  0.5730440000000  0.5207130000000 1.0
C      1  0.4584460000000  0.5616600000000  0.5205640000000 1.0
C      1  0.5319380000000  0.5273760000000  0.5227600000000 1.0
C      1  0.4870570000000  0.5346040000000  0.5261290000000 1.0
C      1  0.4595950000000  0.5212450000000  0.5211330000000 1.0
C      1  0.4559920000000  0.4895430000000  0.5265480000000 1.0
C      1  0.4807140000000  0.4676940000000  0.5191500000000 1.0
C      1  0.5329340000000  0.4531040000000  0.5183230000000 1.0
C      1  0.5415220000000  0.4985700000000  0.5168500000000 1.0
C      1  0.4934330000000  0.4576390000000  0.4892940000000 1.0
C      1  0.5240050000000  0.4621370000000  0.4893650000000 1.0
C      1  0.5327290000000  0.4913380000000  0.4906610000000 1.0
C      1  0.5166150000000  0.5397110000000  0.4999820000000 1.0
C      1  0.4895310000000  0.5265770000000  0.4953830000000 1.0
C      1  0.4643520000000  0.5067760000000  0.4915900000000 1.0
C      1  0.4688550000000  0.4789510000000  0.4828890000000 1.0
C      1  0.4311220000000  0.4488300000000  0.4876470000000 1.0
C      1  0.4896460000000  0.4268710000000  0.4817550000000 1.0
C      1  0.5754490000000  0.4458520000000  0.4958410000000 1.0
C      1  0.5770990000000  0.5246870000000  0.4862350000000 1.0
C      1  0.5165230000000  0.5696970000000  0.4876800000000 1.0
C      1  0.4568700000000  0.5590480000000  0.4909790000000 1.0
C      1  0.4074290000000  0.5241800000000  0.4979770000000 1.0
C      1  0.5573980000000  0.5259240000000  0.5704410000000 1.0
C      1  0.5167600000000  0.5612020000000  0.5664780000000 1.0
C      1  0.4688770000000  0.5515980000000  0.5832200000000 1.0
C      1  0.4414960000000  0.5033690000000  0.5754380000000 1.0
C      1  0.4652110000000  0.4522240000000  0.5678510000000 1.0
C      1  0.5052460000000  0.4502750000000  0.5750830000000 1.0
C      1  0.5443610000000  0.4633050000000  0.5710880000000 1.0
C      1  0.5121020000000  0.4619330000000  0.5438040000000 1.0
C      1  0.5373220000000  0.4819800000000  0.5453640000000 1.0
C      1  0.5367890000000  0.5137260000000  0.5533520000000 1.0
C      1  0.5052880000000  0.5379350000000  0.5527640000000 1.0
C      1  0.4777850000000  0.5273850000000  0.5642000000000 1.0
C      1  0.4648610000000  0.5017850000000  0.5555380000000 1.0
C      1  0.4807870000000  0.4720300000000  0.5525330000000 1.0
C      1  0.5416030000000  0.5922190000000  0.4831610000000 1.0
C      1  0.4632200000000  0.5835890000000  0.4785980000000 1.0
C      1  0.3978500000000  0.5498760000000  0.4896390000000 1.0
C      1  0.4019110000000  0.4355170000000  0.4756470000000 1.0
C      1  0.4712970000000  0.3992430000000  0.4777480000000 1.0
C      1  0.5739420000000  0.4176100000000  0.4941980000000 1.0
C      1  0.6077840000000  0.5158250000000  0.4795610000000 1.0
C      1  0.6108880000000  0.4907380000000  0.4684820000000 1.0
C      1  0.5638010000000  0.5851940000000  0.4683830000000 1.0
C      1  0.4906840000000  0.5924710000000  0.4674050000000 1.0
C      1  0.4103070000000  0.5620380000000  0.4672350000000 1.0
C      1  0.4064720000000  0.4663890000000  0.4732160000000 1.0
C      1  0.4557950000000  0.3999960000000  0.4546230000000 1.0
C      1  0.5554360000000  0.4066080000000  0.4764620000000 1.0
C      1  0.5076630000000  0.5050020000000  0.4494490000000 1.0
C      1  0.4988500000000  0.5099690000000  0.6123070000000 1.0
C      1  0.5031300000000  0.4911130000000  0.3609270000000 1.0
C      1  0.4848860000000  0.4905200000000  0.3114020000000 1.0
C      1  0.5028330000000  0.5007880000000  0.4830140000000 1.0
C      1  0.5048870000000  0.5048840000000  0.5460620000000 1.0
C      1  0.5082000000000  0.5051230000000  0.5799460000000 1.0
C      1  0.4950710000000  0.4912520000000  0.3355420000000 1.0
C      1  0.5120190000000  0.4933220000000  0.3853610000000 1.0
C      1  0.5004260000000  0.4945050000000  0.5163870000000 1.0
C      1  0.5071860000000  0.4930450000000  0.4190270000000 1.0
C      1  0.4987250000000  0.5069050000000  0.6380220000000 1.0
END
