TITL C-3289324-3781-674 -0.00274349163770868 125000 -1084.01283177887 0 0 196 (C1) n - 1
REM
REM in /nfs/bkarasulu/CARBON/AIRSS/Generating-Clusters/AIREBO/with-SteepDescent/Higher-Symm/SD-CG/HFTN-CG
REM
REM
REM
REM
REM
REM ./C.cell (b20cbc046b6831c77cfcea5457e17084)
REM
REM compiler GCC version 9.2.1 20190827 (Red Hat 9.2.1-1)
REM options -cpp -mtune=generic -march=x86-64 -g -O0 -fpre-include=/usr/include/finclude/math-vector-fortran.h
REM seed -1132457775 -1978253409 15325903 784573146 -476154591 -1133033503 -295899225 476564839 -1767189407 -539154551 -2039370631 -1450303545 684539002 -1978038824 -1391365246 -2052081027 58545748 392914045 -48999925 1423865808 -595475130 958696688 449310839 833665397 1150622542 1560815577 1001410324 1838688928 815975863 -1780557648 1478124731 -524863593 1816249559
REM
CELL 1.54180   50.00000   50.00000   50.00000   90.00000   90.00000   90.00000
LATT -1
SFAC C  
C      1  0.5092970000000  0.4477180000000  0.4682340000000 1.0
C      1  0.5245300000000  0.4350650000000  0.5276280000000 1.0
C      1  0.4743540000000  0.4356840000000  0.5241290000000 1.0
C      1  0.4986130000000  0.4502700000000  0.5342580000000 1.0
C      1  0.5368580000000  0.4278560000000  0.4723680000000 1.0
C      1  0.4840150000000  0.4340520000000  0.4764480000000 1.0
C      1  0.5314510000000  0.5618440000000  0.5236070000000 1.0
C      1  0.4787090000000  0.5600790000000  0.5172070000000 1.0
C      1  0.5041070000000  0.5463780000000  0.4767980000000 1.0
C      1  0.5276270000000  0.5496290000000  0.4958580000000 1.0
C      1  0.4769310000000  0.5555530000000  0.4881390000000 1.0
C      1  0.5015900000000  0.5483390000000  0.5298600000000 1.0
C      1  0.5606320000000  0.4840220000000  0.5520530000000 1.0
C      1  0.4235540000000  0.4717420000000  0.5099560000000 1.0
C      1  0.5292540000000  0.4795820000000  0.4317430000000 1.0
C      1  0.5557290000000  0.4965000000000  0.4449170000000 1.0
C      1  0.4223070000000  0.4922730000000  0.4859180000000 1.0
C      1  0.5132270000000  0.4932430000000  0.5741420000000 1.0
C      1  0.5760530000000  0.5224280000000  0.5192470000000 1.0
C      1  0.4517150000000  0.5147970000000  0.5356430000000 1.0
C      1  0.4748310000000  0.5165020000000  0.4315110000000 1.0
C      1  0.5714600000000  0.5183060000000  0.4880550000000 1.0
C      1  0.4474260000000  0.5154470000000  0.4477110000000 1.0
C      1  0.4697670000000  0.5142300000000  0.5623420000000 1.0
C      1  0.5724470000000  0.4553910000000  0.4827380000000 1.0
C      1  0.4733740000000  0.4555350000000  0.5646340000000 1.0
C      1  0.4560480000000  0.4548480000000  0.4583490000000 1.0
C      1  0.5632390000000  0.4483250000000  0.5147160000000 1.0
C      1  0.4798910000000  0.4453330000000  0.4383110000000 1.0
C      1  0.4466650000000  0.4514780000000  0.5478890000000 1.0
C      1  0.4613350000000  0.4994750000000  0.5918070000000 1.0
C      1  0.4246680000000  0.4965800000000  0.4308920000000 1.0
C      1  0.6035240000000  0.5075580000000  0.4844200000000 1.0
C      1  0.4654170000000  0.5130150000000  0.3990190000000 1.0
C      1  0.4285960000000  0.5059210000000  0.5852700000000 1.0
C      1  0.6022700000000  0.5007900000000  0.5180510000000 1.0
C      1  0.5272880000000  0.5713590000000  0.4082820000000 1.0
C      1  0.5612350000000  0.5626570000000  0.5726270000000 1.0
C      1  0.4049600000000  0.5734170000000  0.5182250000000 1.0
C      1  0.5348560000000  0.5681630000000  0.5920180000000 1.0
C      1  0.5546640000000  0.5611130000000  0.4256730000000 1.0
C      1  0.4067100000000  0.5638510000000  0.4853320000000 1.0
C      1  0.5008310000000  0.5351340000000  0.6014930000000 1.0
C      1  0.4052310000000  0.5377200000000  0.4542270000000 1.0
C      1  0.5827060000000  0.5343130000000  0.4399540000000 1.0
C      1  0.4968670000000  0.5434280000000  0.3943060000000 1.0
C      1  0.4138140000000  0.5322810000000  0.5477560000000 1.0
C      1  0.5888050000000  0.5329720000000  0.5555790000000 1.0
C      1  0.5673800000000  0.4157840000000  0.4814530000000 1.0
C      1  0.4768960000000  0.4080930000000  0.5623240000000 1.0
C      1  0.4486380000000  0.4232040000000  0.4483610000000 1.0
C      1  0.5712460000000  0.4189100000000  0.5101710000000 1.0
C      1  0.4795290000000  0.4115420000000  0.4399280000000 1.0
C      1  0.4499430000000  0.4180340000000  0.5530870000000 1.0
C      1  0.4984190000000  0.4205450000000  0.4131150000000 1.0
C      1  0.5748600000000  0.4233970000000  0.5437000000000 1.0
C      1  0.4187130000000  0.4236660000000  0.5414560000000 1.0
C      1  0.4957490000000  0.4172330000000  0.5856810000000 1.0
C      1  0.5899310000000  0.4208300000000  0.4631040000000 1.0
C      1  0.4213010000000  0.4274460000000  0.4615520000000 1.0
C      1  0.4954810000000  0.4792150000000  0.5268720000000 1.0
C      1  0.4759320000000  0.4812170000000  0.4815730000000 1.0
C      1  0.5318020000000  0.4857730000000  0.4794800000000 1.0
C      1  0.5039100000000  0.4808470000000  0.4626520000000 1.0
C      1  0.4681490000000  0.4827300000000  0.5126010000000 1.0
C      1  0.5387970000000  0.4839010000000  0.5187390000000 1.0
C      1  0.4998240000000  0.6000050000000  0.4690870000000 1.0
C      1  0.5243200000000  0.6054050000000  0.5117850000000 1.0
C      1  0.4771770000000  0.5997170000000  0.5136220000000 1.0
C      1  0.5020020000000  0.5987590000000  0.5269450000000 1.0
C      1  0.5248280000000  0.6018230000000  0.4816250000000 1.0
C      1  0.4772040000000  0.5975420000000  0.4856270000000 1.0
C      1  0.5875560000000  0.5437550000000  0.4722550000000 1.0
C      1  0.4753190000000  0.5406370000000  0.5832590000000 1.0
C      1  0.4332720000000  0.5446130000000  0.4374510000000 1.0
C      1  0.5917920000000  0.5490010000000  0.5269790000000 1.0
C      1  0.4742760000000  0.5567140000000  0.4052570000000 1.0
C      1  0.4303530000000  0.5512270000000  0.5650640000000 1.0
C      1  0.5025790000000  0.5348740000000  0.4321440000000 1.0
C      1  0.5526680000000  0.5152260000000  0.5410100000000 1.0
C      1  0.4373350000000  0.5300260000000  0.5134910000000 1.0
C      1  0.5274570000000  0.5193820000000  0.5634470000000 1.0
C      1  0.5505860000000  0.5253920000000  0.4621560000000 1.0
C      1  0.4402450000000  0.5206590000000  0.4805550000000 1.0
C      1  0.5912470000000  0.5064720000000  0.4215580000000 1.0
C      1  0.5153390000000  0.5124830000000  0.6222890000000 1.0
C      1  0.3782860000000  0.5161950000000  0.4578290000000 1.0
C      1  0.5992510000000  0.5105790000000  0.5795780000000 1.0
C      1  0.5229140000000  0.5042660000000  0.3812540000000 1.0
C      1  0.3912800000000  0.5088270000000  0.5378420000000 1.0
C      1  0.5631960000000  0.4647680000000  0.5787920000000 1.0
C      1  0.3968860000000  0.4651080000000  0.5235310000000 1.0
C      1  0.5270590000000  0.4634710000000  0.4018650000000 1.0
C      1  0.5771060000000  0.4753520000000  0.4290270000000 1.0
C      1  0.3977820000000  0.4713980000000  0.4750090000000 1.0
C      1  0.5312110000000  0.4709320000000  0.5889930000000 1.0
C      1  0.4373330000000  0.4675210000000  0.4202510000000 1.0
C      1  0.6040780000000  0.4542560000000  0.4862050000000 1.0
C      1  0.4597290000000  0.4655190000000  0.5910950000000 1.0
C      1  0.4330740000000  0.4543910000000  0.5771400000000 1.0
C      1  0.5984450000000  0.4672650000000  0.5138340000000 1.0
C      1  0.4618890000000  0.4572050000000  0.4157300000000 1.0
C      1  0.4767970000000  0.4088840000000  0.5177280000000 1.0
C      1  0.4945750000000  0.3978020000000  0.4649370000000 1.0
C      1  0.5166600000000  0.4092810000000  0.5159720000000 1.0
C      1  0.4775470000000  0.4056130000000  0.4903260000000 1.0
C      1  0.4948570000000  0.3948260000000  0.5377140000000 1.0
C      1  0.5171690000000  0.4075880000000  0.4866880000000 1.0
C      1  0.4464710000000  0.5754970000000  0.4427840000000 1.0
C      1  0.5774420000000  0.5739920000000  0.4824800000000 1.0
C      1  0.4784030000000  0.5700630000000  0.5717540000000 1.0
C      1  0.4499270000000  0.5764360000000  0.5580110000000 1.0
C      1  0.5780970000000  0.5771680000000  0.5165650000000 1.0
C      1  0.4743930000000  0.5806420000000  0.4253720000000 1.0
C      1  0.4517430000000  0.4358020000000  0.4860300000000 1.0
C      1  0.5595820000000  0.4446090000000  0.4550250000000 1.0
C      1  0.5033540000000  0.4495270000000  0.5647970000000 1.0
C      1  0.4468860000000  0.4488980000000  0.5139510000000 1.0
C      1  0.5490370000000  0.4535520000000  0.5423260000000 1.0
C      1  0.5115850000000  0.4516590000000  0.4365420000000 1.0
C      1  0.5696200000000  0.4967100000000  0.5888740000000 1.0
C      1  0.3828820000000  0.4899280000000  0.5185440000000 1.0
C      1  0.5409480000000  0.4860620000000  0.3901580000000 1.0
C      1  0.5638040000000  0.4965140000000  0.4059610000000 1.0
C      1  0.3833820000000  0.5000170000000  0.4873130000000 1.0
C      1  0.5396350000000  0.5017930000000  0.6028140000000 1.0
C      1  0.4731850000000  0.4868760000000  0.3815680000000 1.0
C      1  0.6246720000000  0.4848100000000  0.5382680000000 1.0
C      1  0.4018300000000  0.4854980000000  0.5866840000000 1.0
C      1  0.4689270000000  0.4875240000000  0.6228900000000 1.0
C      1  0.6237750000000  0.4914690000000  0.4655970000000 1.0
C      1  0.4027800000000  0.4834060000000  0.4083400000000 1.0
C      1  0.5468640000000  0.4238360000000  0.5587090000000 1.0
C      1  0.4153500000000  0.4122010000000  0.5154320000000 1.0
C      1  0.5264620000000  0.4274980000000  0.4230680000000 1.0
C      1  0.5507200000000  0.4237130000000  0.4328400000000 1.0
C      1  0.4230490000000  0.4198910000000  0.4902030000000 1.0
C      1  0.5234920000000  0.4231700000000  0.5712370000000 1.0
C      1  0.5302440000000  0.5180700000000  0.4871650000000 1.0
C      1  0.5022730000000  0.5186290000000  0.5265100000000 1.0
C      1  0.4715750000000  0.5246810000000  0.4835630000000 1.0
C      1  0.5292010000000  0.5119760000000  0.5177890000000 1.0
C      1  0.4998680000000  0.5131820000000  0.4726740000000 1.0
C      1  0.4803990000000  0.5108650000000  0.5080440000000 1.0
C      1  0.4361650000000  0.5639900000000  0.5123390000000 1.0
C      1  0.5105960000000  0.5566690000000  0.4504500000000 1.0
C      1  0.5486100000000  0.5485160000000  0.5466470000000 1.0
C      1  0.4376420000000  0.5537860000000  0.4814890000000 1.0
C      1  0.5164020000000  0.5512080000000  0.5586650000000 1.0
C      1  0.5412000000000  0.5555250000000  0.4540590000000 1.0
C      1  0.4008910000000  0.4476300000000  0.5466950000000 1.0
C      1  0.5032690000000  0.4477290000000  0.3975820000000 1.0
C      1  0.5851640000000  0.4483550000000  0.5585130000000 1.0
C      1  0.4046590000000  0.4510560000000  0.4560090000000 1.0
C      1  0.5078410000000  0.4478420000000  0.5981290000000 1.0
C      1  0.5921150000000  0.4515050000000  0.4482070000000 1.0
C      1  0.5461170000000  0.5779630000000  0.4746140000000 1.0
C      1  0.5032000000000  0.5817590000000  0.5516370000000 1.0
C      1  0.4580860000000  0.5765400000000  0.4725440000000 1.0
C      1  0.5481010000000  0.5830210000000  0.5078600000000 1.0
C      1  0.4981070000000  0.5832840000000  0.4466260000000 1.0
C      1  0.4569430000000  0.5796390000000  0.5277450000000 1.0
C      1  0.5337890000000  0.5341960000000  0.5931560000000 1.0
C      1  0.3982820000000  0.5309300000000  0.4868170000000 1.0
C      1  0.5582410000000  0.5283470000000  0.4170820000000 1.0
C      1  0.5265910000000  0.5377480000000  0.4098250000000 1.0
C      1  0.4049700000000  0.5399660000000  0.5172200000000 1.0
C      1  0.5646360000000  0.5294810000000  0.5792570000000 1.0
C      1  0.4425040000000  0.4826430000000  0.5349300000000 1.0
C      1  0.5024270000000  0.4966660000000  0.4325620000000 1.0
C      1  0.5686410000000  0.4801970000000  0.5134140000000 1.0
C      1  0.4522050000000  0.4848510000000  0.4605790000000 1.0
C      1  0.4946860000000  0.5008520000000  0.5504460000000 1.0
C      1  0.5613380000000  0.4864200000000  0.4831760000000 1.0
C      1  0.4992440000000  0.5101630000000  0.4009760000000 1.0
C      1  0.5887850000000  0.4995640000000  0.5492550000000 1.0
C      1  0.4197900000000  0.4993830000000  0.5539250000000 1.0
C      1  0.4947530000000  0.5032750000000  0.5968180000000 1.0
C      1  0.5874460000000  0.5040270000000  0.4546640000000 1.0
C      1  0.4103040000000  0.5047600000000  0.4575300000000 1.0
C      1  0.4784810000000  0.4621850000000  0.3939050000000 1.0
C      1  0.6054680000000  0.4615450000000  0.5451250000000 1.0
C      1  0.4062480000000  0.4606970000000  0.5729090000000 1.0
C      1  0.4838540000000  0.4612970000000  0.6132700000000 1.0
C      1  0.6173520000000  0.4655060000000  0.4625730000000 1.0
C      1  0.4079010000000  0.4603360000000  0.4295650000000 1.0
C      1  0.5761980000000  0.5740330000000  0.4487320000000 1.0
C      1  0.5086240000000  0.5802190000000  0.5848060000000 1.0
C      1  0.4167940000000  0.5778070000000  0.4577490000000 1.0
C      1  0.5779240000000  0.5794610000000  0.5484430000000 1.0
C      1  0.5029890000000  0.5846170000000  0.4073460000000 1.0
C      1  0.4203010000000  0.5840360000000  0.5430470000000 1.0
C      1  0.4509440000000  0.5397670000000  0.4095550000000 1.0
C      1  0.4433960000000  0.5344620000000  0.5844600000000 1.0
C      1  0.6047900000000  0.5496300000000  0.4983310000000 1.0
C      1  0.5158720000000  0.4686110000000  0.5032710000000 1.0
END
