TITL C-3289328-6581-7 0.00024497141281563 125000 -1043.40050092086 0 0 192 (C1) n - 1
REM
REM in /nfs/bkarasulu/CARBON/AIRSS/Generating-Clusters/AIREBO/with-SteepDescent/Higher-Symm/SD-CG/HFTN-CG
REM
REM
REM
REM
REM
REM ./C.cell (b20cbc046b6831c77cfcea5457e17084)
REM
REM compiler GCC version 9.2.1 20190827 (Red Hat 9.2.1-1)
REM options -cpp -mtune=generic -march=x86-64 -g -O0 -fpre-include=/usr/include/finclude/math-vector-fortran.h
REM seed 1047865992 -185267341 1692392559 676837255 2105452674 2014500020 830966189 2116189430 704870155 888506916 166246423 -151417507 345333441 873739279 -928892703 1529292928 -995580588 419001212 1303754969 955628814 30298281 -1277875906 1553005918 -2140724854 -1015881425 716728048 1308864135 1058266417 -845628851 2026695674 -1783055204 -566525120 786558636
REM
CELL 1.54180   50.00000   50.00000   50.00000   90.00000   90.00000   90.00000
LATT -1
SFAC C  
C      1  0.4549670000000  0.5714150000000  0.5647570000000 1.0
C      1  0.4473220000000  0.5759600000000  0.4743730000000 1.0
C      1  0.4501430000000  0.4975790000000  0.4218540000000 1.0
C      1  0.4631840000000  0.4235820000000  0.4773420000000 1.0
C      1  0.4609920000000  0.4626780000000  0.5840020000000 1.0
C      1  0.5378410000000  0.5612600000000  0.4321650000000 1.0
C      1  0.5537010000000  0.5669370000000  0.5547350000000 1.0
C      1  0.5433820000000  0.4840780000000  0.6005010000000 1.0
C      1  0.5429940000000  0.4224290000000  0.5161260000000 1.0
C      1  0.5384990000000  0.4547540000000  0.4223230000000 1.0
C      1  0.5391360000000  0.4045190000000  0.4520470000000 1.0
C      1  0.5336510000000  0.4271330000000  0.5792800000000 1.0
C      1  0.5338020000000  0.5474480000000  0.5988370000000 1.0
C      1  0.5419600000000  0.6027950000000  0.4781860000000 1.0
C      1  0.5284260000000  0.5102750000000  0.3882550000000 1.0
C      1  0.4631720000000  0.4014740000000  0.5428860000000 1.0
C      1  0.4655080000000  0.4193850000000  0.4277880000000 1.0
C      1  0.4613670000000  0.5501540000000  0.4056760000000 1.0
C      1  0.4685520000000  0.6115670000000  0.5124610000000 1.0
C      1  0.4595280000000  0.5081570000000  0.6020490000000 1.0
C      1  0.5513970000000  0.5302840000000  0.4600490000000 1.0
C      1  0.5386940000000  0.4927430000000  0.4638490000000 1.0
C      1  0.5468200000000  0.4598160000000  0.5028260000000 1.0
C      1  0.5433300000000  0.4928520000000  0.5409740000000 1.0
C      1  0.5480610000000  0.5399850000000  0.5168470000000 1.0
C      1  0.4516320000000  0.5311360000000  0.5300640000000 1.0
C      1  0.4581960000000  0.4798350000000  0.5363690000000 1.0
C      1  0.4634550000000  0.4635620000000  0.4973630000000 1.0
C      1  0.4582020000000  0.4759030000000  0.4678420000000 1.0
C      1  0.4513940000000  0.5363100000000  0.4763030000000 1.0
C      1  0.4092960000000  0.4613010000000  0.5210260000000 1.0
C      1  0.3874790000000  0.5084590000000  0.5321190000000 1.0
C      1  0.4011290000000  0.5487450000000  0.5060670000000 1.0
C      1  0.4002850000000  0.5180910000000  0.4676160000000 1.0
C      1  0.3917910000000  0.4403470000000  0.4697630000000 1.0
C      1  0.5957950000000  0.4668820000000  0.4884230000000 1.0
C      1  0.6174230000000  0.5434720000000  0.4431930000000 1.0
C      1  0.6033030000000  0.5415110000000  0.4975730000000 1.0
C      1  0.6087880000000  0.5097440000000  0.5420460000000 1.0
C      1  0.5946010000000  0.4661280000000  0.5320780000000 1.0
C      1  0.5018670000000  0.4226390000000  0.4862500000000 1.0
C      1  0.4968620000000  0.4653180000000  0.5665160000000 1.0
C      1  0.4932320000000  0.5516310000000  0.5523890000000 1.0
C      1  0.4980990000000  0.5758390000000  0.4698500000000 1.0
C      1  0.4951340000000  0.4951920000000  0.4203450000000 1.0
C      1  0.5033330000000  0.4193610000000  0.5158840000000 1.0
C      1  0.5014420000000  0.4674070000000  0.4283830000000 1.0
C      1  0.4945930000000  0.5555330000000  0.4484730000000 1.0
C      1  0.5041550000000  0.5688110000000  0.5292020000000 1.0
C      1  0.5024510000000  0.4948070000000  0.5757080000000 1.0
C      1  0.4966610000000  0.4152350000000  0.4244210000000 1.0
C      1  0.4947880000000  0.4001760000000  0.5553990000000 1.0
C      1  0.4908020000000  0.5174990000000  0.6119490000000 1.0
C      1  0.5015190000000  0.6126040000000  0.5087190000000 1.0
C      1  0.4896080000000  0.5423230000000  0.3952780000000 1.0
C      1  0.5021770000000  0.4199700000000  0.5737900000000 1.0
C      1  0.5075260000000  0.4029360000000  0.4464280000000 1.0
C      1  0.4951670000000  0.5166130000000  0.3848540000000 1.0
C      1  0.5116940000000  0.6120780000000  0.4830420000000 1.0
C      1  0.4993850000000  0.5459460000000  0.6020320000000 1.0
C      1  0.4317430000000  0.5429490000000  0.3986030000000 1.0
C      1  0.4435620000000  0.4071440000000  0.4463560000000 1.0
C      1  0.4471400000000  0.4253960000000  0.5553230000000 1.0
C      1  0.4434590000000  0.5298080000000  0.5850420000000 1.0
C      1  0.4502760000000  0.6133500000000  0.4880350000000 1.0
C      1  0.5514610000000  0.5227120000000  0.5945520000000 1.0
C      1  0.5525910000000  0.4212690000000  0.5548750000000 1.0
C      1  0.5646700000000  0.4210850000000  0.4431000000000 1.0
C      1  0.5533060000000  0.5254950000000  0.4058140000000 1.0
C      1  0.5529200000000  0.5908680000000  0.5052470000000 1.0
C      1  0.5221570000000  0.4509180000000  0.5583310000000 1.0
C      1  0.5145430000000  0.5441020000000  0.5736870000000 1.0
C      1  0.5243650000000  0.5743180000000  0.4832270000000 1.0
C      1  0.5160380000000  0.5198530000000  0.4183430000000 1.0
C      1  0.5260020000000  0.4309420000000  0.4680700000000 1.0
C      1  0.4797130000000  0.4482070000000  0.4389070000000 1.0
C      1  0.4740900000000  0.5365750000000  0.4333580000000 1.0
C      1  0.4793010000000  0.5804310000000  0.5165230000000 1.0
C      1  0.4771120000000  0.5105610000000  0.5754010000000 1.0
C      1  0.4798250000000  0.4289630000000  0.5326150000000 1.0
C      1  0.5167640000000  0.5990350000000  0.5353570000000 1.0
C      1  0.5122980000000  0.5554560000000  0.4110110000000 1.0
C      1  0.5102870000000  0.4397250000000  0.4107240000000 1.0
C      1  0.5145220000000  0.3918730000000  0.5304860000000 1.0
C      1  0.5143080000000  0.4937880000000  0.6054060000000 1.0
C      1  0.4942160000000  0.6056900000000  0.4570260000000 1.0
C      1  0.4836670000000  0.5680780000000  0.5805880000000 1.0
C      1  0.4859800000000  0.4436920000000  0.5896760000000 1.0
C      1  0.4861390000000  0.3987890000000  0.4715090000000 1.0
C      1  0.4749370000000  0.4940790000000  0.3949510000000 1.0
C      1  0.4581980000000  0.5940320000000  0.5394940000000 1.0
C      1  0.4659380000000  0.5686470000000  0.4340510000000 1.0
C      1  0.4537080000000  0.4471030000000  0.4166080000000 1.0
C      1  0.4443810000000  0.4046450000000  0.5147060000000 1.0
C      1  0.4372750000000  0.4827590000000  0.5978060000000 1.0
C      1  0.5522780000000  0.5825360000000  0.4541650000000 1.0
C      1  0.5497690000000  0.5714790000000  0.5853620000000 1.0
C      1  0.5454820000000  0.4590670000000  0.5816900000000 1.0
C      1  0.5412870000000  0.4058130000000  0.4855780000000 1.0
C      1  0.5332760000000  0.4830590000000  0.4042050000000 1.0
C      1  0.5209430000000  0.5350240000000  0.4456700000000 1.0
C      1  0.5230830000000  0.4574780000000  0.4526660000000 1.0
C      1  0.5201980000000  0.4446830000000  0.5280860000000 1.0
C      1  0.5161590000000  0.5182500000000  0.5548430000000 1.0
C      1  0.5222970000000  0.5547960000000  0.5057530000000 1.0
C      1  0.4761840000000  0.5258560000000  0.5502920000000 1.0
C      1  0.4834140000000  0.4572750000000  0.5383040000000 1.0
C      1  0.4860740000000  0.4472520000000  0.4688650000000 1.0
C      1  0.4758130000000  0.5079260000000  0.4405280000000 1.0
C      1  0.4764740000000  0.5672270000000  0.4895490000000 1.0
C      1  0.4089620000000  0.5540830000000  0.5664140000000 1.0
C      1  0.4234940000000  0.5978470000000  0.4848500000000 1.0
C      1  0.4196020000000  0.4996060000000  0.4086600000000 1.0
C      1  0.4274700000000  0.4080650000000  0.4896680000000 1.0
C      1  0.4219870000000  0.4586040000000  0.5785330000000 1.0
C      1  0.5717890000000  0.5626540000000  0.4346590000000 1.0
C      1  0.5778710000000  0.5781520000000  0.5336780000000 1.0
C      1  0.5746110000000  0.4888820000000  0.5876450000000 1.0
C      1  0.5741000000000  0.4107070000000  0.5234310000000 1.0
C      1  0.5862960000000  0.4568450000000  0.4255760000000 1.0
C      1  0.5696690000000  0.4794050000000  0.4996200000000 1.0
C      1  0.5748810000000  0.4935810000000  0.5283070000000 1.0
C      1  0.5710970000000  0.5206280000000  0.5080400000000 1.0
C      1  0.5810730000000  0.5250050000000  0.4758160000000 1.0
C      1  0.5721810000000  0.4927430000000  0.4697580000000 1.0
C      1  0.4296540000000  0.4673270000000  0.4944560000000 1.0
C      1  0.4280000000000  0.4897450000000  0.4689440000000 1.0
C      1  0.4272200000000  0.5192500000000  0.4847470000000 1.0
C      1  0.4211800000000  0.5234130000000  0.5166860000000 1.0
C      1  0.4344230000000  0.4920940000000  0.5172590000000 1.0
C      1  0.4439090000000  0.4401040000000  0.4547090000000 1.0
C      1  0.4445240000000  0.4487420000000  0.5345410000000 1.0
C      1  0.4372890000000  0.5165010000000  0.5572050000000 1.0
C      1  0.4400550000000  0.5563520000000  0.5014240000000 1.0
C      1  0.4349180000000  0.5306230000000  0.4284450000000 1.0
C      1  0.5597380000000  0.4466130000000  0.5331870000000 1.0
C      1  0.5768590000000  0.4355260000000  0.4649740000000 1.0
C      1  0.5552970000000  0.5146690000000  0.4321020000000 1.0
C      1  0.5620150000000  0.5632000000000  0.5002730000000 1.0
C      1  0.5544980000000  0.5144970000000  0.5647080000000 1.0
C      1  0.4072590000000  0.5286520000000  0.5472670000000 1.0
C      1  0.4133850000000  0.5724350000000  0.4952110000000 1.0
C      1  0.4165820000000  0.5063490000000  0.4414960000000 1.0
C      1  0.4208810000000  0.4385810000000  0.4793780000000 1.0
C      1  0.4164550000000  0.4595130000000  0.5504390000000 1.0
C      1  0.5921030000000  0.5444350000000  0.4500830000000 1.0
C      1  0.5914180000000  0.5642360000000  0.5092920000000 1.0
C      1  0.5843670000000  0.5012730000000  0.5604720000000 1.0
C      1  0.5910010000000  0.4380470000000  0.5241570000000 1.0
C      1  0.5885450000000  0.4660090000000  0.4562550000000 1.0
C      1  0.5043660000000  0.5216800000000  0.5231290000000 1.0
C      1  0.5044940000000  0.5299200000000  0.4912890000000 1.0
C      1  0.5090390000000  0.5093650000000  0.4645760000000 1.0
C      1  0.5183240000000  0.4660280000000  0.4853290000000 1.0
C      1  0.5161090000000  0.4784870000000  0.5301210000000 1.0
C      1  0.4782310000000  0.5225120000000  0.4705440000000 1.0
C      1  0.4772000000000  0.5394110000000  0.5092110000000 1.0
C      1  0.4876940000000  0.4967860000000  0.5368380000000 1.0
C      1  0.4931460000000  0.4696970000000  0.5081750000000 1.0
C      1  0.4915490000000  0.4807900000000  0.4704470000000 1.0
C      1  0.4313240000000  0.3927940000000  0.4657620000000 1.0
C      1  0.4419670000000  0.4356520000000  0.5808960000000 1.0
C      1  0.4333320000000  0.5562410000000  0.5796050000000 1.0
C      1  0.4643780000000  0.6032610000000  0.4626230000000 1.0
C      1  0.4169550000000  0.5199380000000  0.3905440000000 1.0
C      1  0.5454120000000  0.3954330000000  0.5366650000000 1.0
C      1  0.5645020000000  0.4396920000000  0.4221400000000 1.0
C      1  0.5648700000000  0.5501820000000  0.4048860000000 1.0
C      1  0.5468810000000  0.5938570000000  0.5351170000000 1.0
C      1  0.5662100000000  0.5045400000000  0.6152060000000 1.0
C      1  0.4959110000000  0.4487360000000  0.6182220000000 1.0
C      1  0.4974920000000  0.5959570000000  0.5819890000000 1.0
C      1  0.5068660000000  0.6055800000000  0.4283460000000 1.0
C      1  0.4782530000000  0.4671840000000  0.3813300000000 1.0
C      1  0.4896800000000  0.3733520000000  0.4889900000000 1.0
C      1  0.4971510000000  0.4503320000000  0.3834920000000 1.0
C      1  0.5154490000000  0.5879350000000  0.4126000000000 1.0
C      1  0.5069390000000  0.6091250000000  0.5629140000000 1.0
C      1  0.5023680000000  0.4720270000000  0.6251260000000 1.0
C      1  0.5020400000000  0.3705170000000  0.5106930000000 1.0
C      1  0.5587130000000  0.5576760000000  0.4719440000000 1.0
C      1  0.5466820000000  0.4856570000000  0.4342480000000 1.0
C      1  0.5606820000000  0.4334940000000  0.4892700000000 1.0
C      1  0.5577380000000  0.4684220000000  0.5541770000000 1.0
C      1  0.5428190000000  0.5377480000000  0.5465570000000 1.0
C      1  0.4470710000000  0.5634230000000  0.5326670000000 1.0
C      1  0.4464910000000  0.4872280000000  0.5653840000000 1.0
C      1  0.4506650000000  0.4356710000000  0.5065560000000 1.0
C      1  0.4463300000000  0.4698310000000  0.4382880000000 1.0
C      1  0.4416560000000  0.5526060000000  0.4502870000000 1.0
C      1  0.3997280000000  0.4898220000000  0.5171280000000 1.0
C      1  0.6036680000000  0.5191370000000  0.5176960000000 1.0
END
