TITL C-3289330-4660-457 2.71956586271512e-05 125000 -127.570760305375 0 0 23 (C2) n - 1
REM
REM in /nfs/bkarasulu/CARBON/AIRSS/Generating-Clusters/AIREBO/with-SteepDescent/Higher-Symm/SD-CG/HFTN-CG
REM
REM
REM
REM
REM
REM ./C.cell (b20cbc046b6831c77cfcea5457e17084)
REM
REM compiler GCC version 9.2.1 20190827 (Red Hat 9.2.1-1)
REM options -cpp -mtune=generic -march=x86-64 -g -O0 -fpre-include=/usr/include/finclude/math-vector-fortran.h
REM seed 1116861439 -1842153623 -193782427 -1186664724 766140875 -454088523 -252714667 784742984 769465107 906501385 -1861530021 1996092981 -1541737495 -1022393977 -54540737 194264322 -818424523 -1455001670 926965078 440235359 330777205 684103693 -1466968614 -741825003 198371426 -1071408533 -1539455119 -1969749561 -697166744 -890424560 1233044928 -2132532307 1027497445
REM
CELL 1.54180   50.00000   50.00000   50.00000   90.00000   90.00000   90.00000
LATT -1
SFAC C  
C      1  0.4946530000000  0.5465740000000  0.5084910000000 1.0
C      1  0.5191560000000  0.4436230000000  0.5053100000000 1.0
C      1  0.4946010000000  0.4529030000000  0.4929650000000 1.0
C      1  0.5190700000000  0.5558700000000  0.4958860000000 1.0
C      1  0.5458020000000  0.4892070000000  0.5105630000000 1.0
C      1  0.4520570000000  0.5142170000000  0.5009840000000 1.0
C      1  0.4520660000000  0.4852330000000  0.5009230000000 1.0
C      1  0.5456880000000  0.5103020000000  0.4903510000000 1.0
C      1  0.4281650000000  0.5257270000000  0.5074990000000 1.0
C      1  0.5311280000000  0.4967660000000  0.5336900000000 1.0
C      1  0.4281140000000  0.4737080000000  0.4946620000000 1.0
C      1  0.5307750000000  0.5027340000000  0.4673810000000 1.0
C      1  0.5204570000000  0.4197990000000  0.5178850000000 1.0
C      1  0.4994360000000  0.5336080000000  0.5335380000000 1.0
C      1  0.4991090000000  0.4658710000000  0.4678680000000 1.0
C      1  0.5202220000000  0.5796940000000  0.4832990000000 1.0
C      1  0.5416640000000  0.4615390000000  0.5043140000000 1.0
C      1  0.4733080000000  0.5325060000000  0.4953540000000 1.0
C      1  0.5415990000000  0.5379680000000  0.4966440000000 1.0
C      1  0.4733870000000  0.4669580000000  0.5063270000000 1.0
C      1  0.5054130000000  0.5065480000000  0.5275680000000 1.0
C      1  0.5051320000000  0.4929360000000  0.4737740000000 1.0
C      1  0.4956090000000  0.4997390000000  0.5007230000000 1.0
END
