TITL C-3289321-8710-665 0.00442989763450639 125000 -716.306887151051 0 0 125 (C1) n - 1
REM
REM in /nfs/bkarasulu/CARBON/AIRSS/Generating-Clusters/AIREBO/with-SteepDescent/Higher-Symm/SD-CG/HFTN-CG
REM
REM
REM
REM
REM
REM ./C.cell (b20cbc046b6831c77cfcea5457e17084)
REM
REM compiler GCC version 9.2.1 20190827 (Red Hat 9.2.1-1)
REM options -cpp -mtune=generic -march=x86-64 -g -O0 -fpre-include=/usr/include/finclude/math-vector-fortran.h
REM seed -825542030 -754429438 -1163025840 -1988014085 803788629 1235919054 -1171853319 1728784922 -487196302 1046954088 -831170980 -2104622183 -1474774569 1480866698 1216691341 -1546354451 1132460856 -365274786 -2037778127 -429093875 -1463158704 299613463 1464200020 586879043 -1759630248 462070369 -764651882 2114755730 -667431190 -1347525472 1457628632 -1204242976 410589601
REM
CELL 1.54180   50.00000   50.00000   50.00000   90.00000   90.00000   90.00000
LATT -1
SFAC C  
C      1  0.5249580000000  0.4165230000000  0.5334710000000 1.0
C      1  0.4728040000000  0.4335270000000  0.5382200000000 1.0
C      1  0.4539910000000  0.4215030000000  0.4881310000000 1.0
C      1  0.5021930000000  0.4292960000000  0.4555520000000 1.0
C      1  0.5443400000000  0.4261720000000  0.4874170000000 1.0
C      1  0.5304730000000  0.4237470000000  0.4627220000000 1.0
C      1  0.4784600000000  0.4282500000000  0.4702410000000 1.0
C      1  0.4541070000000  0.4278160000000  0.5151380000000 1.0
C      1  0.4992590000000  0.4247190000000  0.5457390000000 1.0
C      1  0.5378960000000  0.4095570000000  0.5093610000000 1.0
C      1  0.6094850000000  0.5043450000000  0.4865510000000 1.0
C      1  0.5508520000000  0.5070520000000  0.6018430000000 1.0
C      1  0.4021660000000  0.4937430000000  0.5737790000000 1.0
C      1  0.4014310000000  0.5092230000000  0.4409290000000 1.0
C      1  0.5211340000000  0.5051210000000  0.3921130000000 1.0
C      1  0.6106030000000  0.5047740000000  0.5118160000000 1.0
C      1  0.5446030000000  0.5001450000000  0.4004970000000 1.0
C      1  0.4176110000000  0.5071260000000  0.4215460000000 1.0
C      1  0.3949350000000  0.4991290000000  0.5499090000000 1.0
C      1  0.5273700000000  0.5040350000000  0.6108990000000 1.0
C      1  0.4551510000000  0.5692500000000  0.5154310000000 1.0
C      1  0.4767060000000  0.5763510000000  0.4640840000000 1.0
C      1  0.5328390000000  0.5811860000000  0.4574700000000 1.0
C      1  0.5467090000000  0.5838990000000  0.5109190000000 1.0
C      1  0.5020210000000  0.5771620000000  0.5432500000000 1.0
C      1  0.4569410000000  0.5780850000000  0.4858390000000 1.0
C      1  0.4730220000000  0.5703440000000  0.5377080000000 1.0
C      1  0.5281390000000  0.5753730000000  0.5340530000000 1.0
C      1  0.5483210000000  0.5846130000000  0.4835950000000 1.0
C      1  0.5052200000000  0.5828150000000  0.4523700000000 1.0
C      1  0.4042420000000  0.4723620000000  0.5061290000000 1.0
C      1  0.4572140000000  0.4755990000000  0.4199730000000 1.0
C      1  0.5649170000000  0.4703410000000  0.4386270000000 1.0
C      1  0.5839190000000  0.4770640000000  0.5444680000000 1.0
C      1  0.4842180000000  0.4767140000000  0.5894850000000 1.0
C      1  0.4062040000000  0.4750910000000  0.4774890000000 1.0
C      1  0.4568660000000  0.4774980000000  0.5857270000000 1.0
C      1  0.5637420000000  0.4767730000000  0.5648770000000 1.0
C      1  0.5806280000000  0.4716420000000  0.4618500000000 1.0
C      1  0.4832030000000  0.4755990000000  0.4093260000000 1.0
C      1  0.5618000000000  0.5568070000000  0.4696200000000 1.0
C      1  0.5415190000000  0.5483930000000  0.5463790000000 1.0
C      1  0.4635450000000  0.5432570000000  0.5559510000000 1.0
C      1  0.4410880000000  0.5522360000000  0.4811070000000 1.0
C      1  0.4967120000000  0.5569260000000  0.4358030000000 1.0
C      1  0.5622150000000  0.5579630000000  0.5230840000000 1.0
C      1  0.5494110000000  0.5612120000000  0.4392400000000 1.0
C      1  0.4670760000000  0.5481510000000  0.4481740000000 1.0
C      1  0.4390100000000  0.5465050000000  0.5204610000000 1.0
C      1  0.4950660000000  0.5524440000000  0.5655390000000 1.0
C      1  0.4972900000000  0.5338780000000  0.5385940000000 1.0
C      1  0.4542460000000  0.5170670000000  0.5159470000000 1.0
C      1  0.4761520000000  0.5219050000000  0.4672800000000 1.0
C      1  0.5257270000000  0.5217960000000  0.4649780000000 1.0
C      1  0.5454950000000  0.5322790000000  0.5101010000000 1.0
C      1  0.5025350000000  0.5323150000000  0.4558360000000 1.0
C      1  0.4593720000000  0.5315680000000  0.4896200000000 1.0
C      1  0.4723180000000  0.5154120000000  0.5388790000000 1.0
C      1  0.5242060000000  0.5254650000000  0.5320800000000 1.0
C      1  0.5431370000000  0.5352450000000  0.4813980000000 1.0
C      1  0.5100580000000  0.4565800000000  0.4063370000000 1.0
C      1  0.5913300000000  0.4549200000000  0.4864570000000 1.0
C      1  0.5417020000000  0.4581970000000  0.5680460000000 1.0
C      1  0.4356660000000  0.4661970000000  0.5616330000000 1.0
C      1  0.4205020000000  0.4578380000000  0.4584140000000 1.0
C      1  0.5151500000000  0.4622990000000  0.5889200000000 1.0
C      1  0.5857560000000  0.4590280000000  0.5174560000000 1.0
C      1  0.5375650000000  0.4629410000000  0.4221810000000 1.0
C      1  0.4305740000000  0.4646220000000  0.4311290000000 1.0
C      1  0.4192650000000  0.4614950000000  0.5321270000000 1.0
C      1  0.5043160000000  0.5036780000000  0.5890640000000 1.0
C      1  0.4140100000000  0.5000450000000  0.5232680000000 1.0
C      1  0.4491320000000  0.5053880000000  0.4299060000000 1.0
C      1  0.5487270000000  0.4996010000000  0.4333200000000 1.0
C      1  0.5818750000000  0.5048330000000  0.5278930000000 1.0
C      1  0.4976090000000  0.5043150000000  0.4147830000000 1.0
C      1  0.4142960000000  0.5058210000000  0.4703900000000 1.0
C      1  0.4313840000000  0.4975590000000  0.5806750000000 1.0
C      1  0.5534140000000  0.5058640000000  0.5692310000000 1.0
C      1  0.5799010000000  0.5020950000000  0.4731530000000 1.0
C      1  0.4673130000000  0.4932420000000  0.4559790000000 1.0
C      1  0.5289230000000  0.4906960000000  0.4595010000000 1.0
C      1  0.5503950000000  0.4999090000000  0.5159800000000 1.0
C      1  0.5082840000000  0.4885830000000  0.5599830000000 1.0
C      1  0.4412950000000  0.4905180000000  0.5085900000000 1.0
C      1  0.4802260000000  0.4887390000000  0.5480750000000 1.0
C      1  0.5329090000000  0.4991130000000  0.5455700000000 1.0
C      1  0.5516610000000  0.4869410000000  0.4845650000000 1.0
C      1  0.4986950000000  0.4873360000000  0.4442690000000 1.0
C      1  0.4418820000000  0.4927150000000  0.4785600000000 1.0
C      1  0.4000940000000  0.5381890000000  0.4896670000000 1.0
C      1  0.4813290000000  0.5387960000000  0.4037270000000 1.0
C      1  0.5885980000000  0.5339490000000  0.4507520000000 1.0
C      1  0.5746300000000  0.5411140000000  0.5674710000000 1.0
C      1  0.4580950000000  0.5366350000000  0.5948070000000 1.0
C      1  0.4009000000000  0.5365930000000  0.5144950000000 1.0
C      1  0.4823870000000  0.5359030000000  0.5997920000000 1.0
C      1  0.5883160000000  0.5394380000000  0.5468820000000 1.0
C      1  0.5737910000000  0.5306910000000  0.4312770000000 1.0
C      1  0.4575830000000  0.5392480000000  0.4103840000000 1.0
C      1  0.5540620000000  0.4675600000000  0.5200610000000 1.0
C      1  0.5027330000000  0.4550370000000  0.5596550000000 1.0
C      1  0.4509670000000  0.4613850000000  0.5198390000000 1.0
C      1  0.4685680000000  0.4599600000000  0.4628350000000 1.0
C      1  0.5310320000000  0.4569020000000  0.4550200000000 1.0
C      1  0.5581180000000  0.4534710000000  0.4893810000000 1.0
C      1  0.5016680000000  0.4551840000000  0.4379630000000 1.0
C      1  0.4417770000000  0.4432450000000  0.4699580000000 1.0
C      1  0.4650010000000  0.4632070000000  0.5494970000000 1.0
C      1  0.5376710000000  0.4418310000000  0.5456140000000 1.0
C      1  0.5122740000000  0.5349080000000  0.4171600000000 1.0
C      1  0.5833200000000  0.5343570000000  0.4833850000000 1.0
C      1  0.5425800000000  0.5371440000000  0.5770040000000 1.0
C      1  0.4380600000000  0.5256770000000  0.5700060000000 1.0
C      1  0.4197350000000  0.5377010000000  0.4621970000000 1.0
C      1  0.5130890000000  0.5364420000000  0.5864690000000 1.0
C      1  0.5850930000000  0.5353780000000  0.5132790000000 1.0
C      1  0.5410890000000  0.5316240000000  0.4247030000000 1.0
C      1  0.4388090000000  0.5368910000000  0.4375520000000 1.0
C      1  0.4206970000000  0.5283540000000  0.5409090000000 1.0
C      1  0.4902560000000  0.4633820000000  0.4851380000000 1.0
C      1  0.5177280000000  0.4591770000000  0.4856040000000 1.0
C      1  0.5273590000000  0.4516880000000  0.5147300000000 1.0
C      1  0.5008790000000  0.4606850000000  0.5285950000000 1.0
C      1  0.4810840000000  0.4659150000000  0.5101190000000 1.0
END
