TITL C-3289327-5623-351 -0.0020897514291077 125000 -846.094721817183 0 0 152 (C1) n - 1
REM
REM in /nfs/bkarasulu/CARBON/AIRSS/Generating-Clusters/AIREBO/with-SteepDescent/Higher-Symm/SD-CG/HFTN-CG
REM
REM
REM
REM
REM
REM ./C.cell (b20cbc046b6831c77cfcea5457e17084)
REM
REM compiler GCC version 9.2.1 20190827 (Red Hat 9.2.1-1)
REM options -cpp -mtune=generic -march=x86-64 -g -O0 -fpre-include=/usr/include/finclude/math-vector-fortran.h
REM seed -675164231 -1752873610 2016533385 1769676022 1207376466 723451293 1267995406 1173523104 732761165 -2037173112 952822301 317916065 -2089185139 -1140009383 -659500998 -563554817 957934479 -451728381 1410107424 981817071 -1776280684 -2014152964 219103060 -1297024003 -246877349 365798884 -505535681 217156611 152576911 1322054209 -1446895419 1992986244 839007059
REM
CELL 1.54180   50.00000   50.00000   50.00000   90.00000   90.00000   90.00000
LATT -1
SFAC C  
C      1  0.5949590000000  0.4479480000000  0.4728920000000 1.0
C      1  0.4289800000000  0.4401860000000  0.4399370000000 1.0
C      1  0.5045710000000  0.4544380000000  0.6090750000000 1.0
C      1  0.5927920000000  0.5450290000000  0.5365360000000 1.0
C      1  0.4166520000000  0.5604160000000  0.5630570000000 1.0
C      1  0.4837740000000  0.5582630000000  0.4067040000000 1.0
C      1  0.3986550000000  0.5556300000000  0.5424460000000 1.0
C      1  0.5760130000000  0.5535590000000  0.5576000000000 1.0
C      1  0.5074530000000  0.5518470000000  0.3943910000000 1.0
C      1  0.4073480000000  0.4485250000000  0.4548590000000 1.0
C      1  0.5920710000000  0.4518540000000  0.4455120000000 1.0
C      1  0.5281470000000  0.4610370000000  0.6017380000000 1.0
C      1  0.5572640000000  0.4881510000000  0.5130200000000 1.0
C      1  0.4879000000000  0.4936760000000  0.4432270000000 1.0
C      1  0.4612410000000  0.4968880000000  0.5361040000000 1.0
C      1  0.5599880000000  0.5136760000000  0.4907200000000 1.0
C      1  0.4882510000000  0.5057380000000  0.5547670000000 1.0
C      1  0.4607160000000  0.5122110000000  0.4512700000000 1.0
C      1  0.4478070000000  0.5109800000000  0.4827390000000 1.0
C      1  0.5215570000000  0.5140160000000  0.5527830000000 1.0
C      1  0.5423130000000  0.5062300000000  0.4624880000000 1.0
C      1  0.4400490000000  0.4983710000000  0.5123990000000 1.0
C      1  0.5193170000000  0.4944890000000  0.4404370000000 1.0
C      1  0.5397180000000  0.4870730000000  0.5427580000000 1.0
C      1  0.5604760000000  0.5074430000000  0.5604580000000 1.0
C      1  0.5252670000000  0.5081140000000  0.4127970000000 1.0
C      1  0.4134280000000  0.5113190000000  0.5210580000000 1.0
C      1  0.5588290000000  0.4884600000000  0.4406190000000 1.0
C      1  0.5263720000000  0.4953180000000  0.5809390000000 1.0
C      1  0.4186740000000  0.4938350000000  0.4790320000000 1.0
C      1  0.4405940000000  0.4926060000000  0.4320330000000 1.0
C      1  0.4817090000000  0.4900390000000  0.5808120000000 1.0
C      1  0.5845830000000  0.4933390000000  0.4789660000000 1.0
C      1  0.4416200000000  0.5038990000000  0.5597540000000 1.0
C      1  0.4741060000000  0.5052340000000  0.4143580000000 1.0
C      1  0.5835110000000  0.5080450000000  0.5225190000000 1.0
C      1  0.5201100000000  0.4343430000000  0.4248350000000 1.0
C      1  0.4247960000000  0.4392630000000  0.5190310000000 1.0
C      1  0.5599320000000  0.4412850000000  0.5539400000000 1.0
C      1  0.5158510000000  0.5607400000000  0.5668200000000 1.0
C      1  0.4301430000000  0.5653320000000  0.4766150000000 1.0
C      1  0.5545490000000  0.5635070000000  0.4498960000000 1.0
C      1  0.4846370000000  0.5556160000000  0.5793320000000 1.0
C      1  0.5709590000000  0.5656400000000  0.4742570000000 1.0
C      1  0.4479150000000  0.5651270000000  0.4476150000000 1.0
C      1  0.4905880000000  0.4376730000000  0.4350800000000 1.0
C      1  0.5714280000000  0.4421820000000  0.5268110000000 1.0
C      1  0.4452700000000  0.4396900000000  0.5461780000000 1.0
C      1  0.5149570000000  0.5500540000000  0.5360610000000 1.0
C      1  0.5238830000000  0.5532400000000  0.4732160000000 1.0
C      1  0.4607350000000  0.5468760000000  0.4946010000000 1.0
C      1  0.5233540000000  0.4475610000000  0.4786920000000 1.0
C      1  0.5274330000000  0.4530520000000  0.5258180000000 1.0
C      1  0.4608690000000  0.4495030000000  0.5108730000000 1.0
C      1  0.4908430000000  0.4475400000000  0.4676050000000 1.0
C      1  0.4768910000000  0.4478890000000  0.5401990000000 1.0
C      1  0.5457940000000  0.4393730000000  0.5043900000000 1.0
C      1  0.4758840000000  0.5583320000000  0.5492810000000 1.0
C      1  0.4705660000000  0.5504500000000  0.4656550000000 1.0
C      1  0.5266310000000  0.5523580000000  0.5043580000000 1.0
C      1  0.3936770000000  0.4854390000000  0.4981310000000 1.0
C      1  0.5565570000000  0.4855070000000  0.5931380000000 1.0
C      1  0.5530550000000  0.4798050000000  0.4099410000000 1.0
C      1  0.3937440000000  0.5195890000000  0.4967700000000 1.0
C      1  0.5562320000000  0.5148930000000  0.4110620000000 1.0
C      1  0.5552430000000  0.5199460000000  0.5916460000000 1.0
C      1  0.6058900000000  0.5194670000000  0.4996090000000 1.0
C      1  0.4457700000000  0.5215630000000  0.4050380000000 1.0
C      1  0.4495750000000  0.5112990000000  0.5907710000000 1.0
C      1  0.6075520000000  0.4848960000000  0.5012970000000 1.0
C      1  0.4529550000000  0.4751360000000  0.5850840000000 1.0
C      1  0.4245420000000  0.5008820000000  0.4032160000000 1.0
C      1  0.4745670000000  0.4562540000000  0.4179030000000 1.0
C      1  0.4342990000000  0.4582420000000  0.5681040000000 1.0
C      1  0.5973570000000  0.4613910000000  0.5236800000000 1.0
C      1  0.4721970000000  0.5363770000000  0.5946910000000 1.0
C      1  0.4356230000000  0.5450040000000  0.4263540000000 1.0
C      1  0.5938220000000  0.5434590000000  0.4787170000000 1.0
C      1  0.5296380000000  0.5423190000000  0.5920390000000 1.0
C      1  0.5594560000000  0.5433700000000  0.4296670000000 1.0
C      1  0.4097060000000  0.5442880000000  0.4796870000000 1.0
C      1  0.5309900000000  0.4571870000000  0.4115730000000 1.0
C      1  0.5712770000000  0.4613500000000  0.5742370000000 1.0
C      1  0.4050910000000  0.4609800000000  0.5168850000000 1.0
C      1  0.4360700000000  0.5349790000000  0.5704470000000 1.0
C      1  0.5725360000000  0.5374850000000  0.5115220000000 1.0
C      1  0.4739430000000  0.5347090000000  0.4291830000000 1.0
C      1  0.4487960000000  0.4642700000000  0.4318600000000 1.0
C      1  0.5734720000000  0.4657840000000  0.4927870000000 1.0
C      1  0.4853160000000  0.4577950000000  0.5871880000000 1.0
C      1  0.5656310000000  0.4574720000000  0.4399430000000 1.0
C      1  0.4170110000000  0.4619080000000  0.4770590000000 1.0
C      1  0.5321800000000  0.4659660000000  0.5683380000000 1.0
C      1  0.5463350000000  0.5369590000000  0.5568170000000 1.0
C      1  0.4121960000000  0.5438510000000  0.5214790000000 1.0
C      1  0.5235920000000  0.5391080000000  0.4126750000000 1.0
C      1  0.4457790000000  0.5572960000000  0.5468950000000 1.0
C      1  0.5533900000000  0.5608850000000  0.5153710000000 1.0
C      1  0.4870910000000  0.5629170000000  0.4400540000000 1.0
C      1  0.4584600000000  0.4445130000000  0.4576270000000 1.0
C      1  0.5659050000000  0.4354600000000  0.4795330000000 1.0
C      1  0.4942420000000  0.4421500000000  0.5631900000000 1.0
C      1  0.5453120000000  0.4377750000000  0.4550100000000 1.0
C      1  0.4424010000000  0.4475740000000  0.4841840000000 1.0
C      1  0.5263660000000  0.4357000000000  0.5539760000000 1.0
C      1  0.5489240000000  0.5683790000000  0.5452620000000 1.0
C      1  0.4395580000000  0.5588910000000  0.5147640000000 1.0
C      1  0.5181620000000  0.5508440000000  0.4395680000000 1.0
C      1  0.4800040000000  0.5315580000000  0.5342340000000 1.0
C      1  0.5281390000000  0.5211880000000  0.4967020000000 1.0
C      1  0.4844680000000  0.5231620000000  0.4730030000000 1.0
C      1  0.4801830000000  0.4778170000000  0.4723140000000 1.0
C      1  0.5279940000000  0.4829660000000  0.4966730000000 1.0
C      1  0.4841960000000  0.4756500000000  0.5287620000000 1.0
C      1  0.5140950000000  0.4789730000000  0.4695040000000 1.0
C      1  0.4660320000000  0.4801690000000  0.5001170000000 1.0
C      1  0.5120540000000  0.4792030000000  0.5246200000000 1.0
C      1  0.5092530000000  0.5213390000000  0.5219440000000 1.0
C      1  0.4724240000000  0.5198490000000  0.5044680000000 1.0
C      1  0.5131960000000  0.5230060000000  0.4676930000000 1.0
C      1  0.5567970000000  0.5853430000000  0.4956460000000 1.0
C      1  0.4646700000000  0.5893160000000  0.4647890000000 1.0
C      1  0.4881810000000  0.5826230000000  0.5373970000000 1.0
C      1  0.5318060000000  0.4107070000000  0.5081120000000 1.0
C      1  0.4594520000000  0.4140020000000  0.5289520000000 1.0
C      1  0.4840410000000  0.4109470000000  0.4543700000000 1.0
C      1  0.4427770000000  0.4178010000000  0.4995550000000 1.0
C      1  0.5156880000000  0.4110990000000  0.5329060000000 1.0
C      1  0.5186460000000  0.4166860000000  0.4539370000000 1.0
C      1  0.4503340000000  0.5849940000000  0.4957770000000 1.0
C      1  0.5255030000000  0.5808880000000  0.4534930000000 1.0
C      1  0.5210330000000  0.5865710000000  0.5452840000000 1.0
C      1  0.4138260000000  0.5199140000000  0.4627900000000 1.0
C      1  0.5156010000000  0.5168660000000  0.5987960000000 1.0
C      1  0.5765680000000  0.5164120000000  0.4376140000000 1.0
C      1  0.4066190000000  0.4846630000000  0.5357640000000 1.0
C      1  0.5138160000000  0.4803900000000  0.4034170000000 1.0
C      1  0.5824450000000  0.4865700000000  0.5629280000000 1.0
C      1  0.5961150000000  0.4866480000000  0.5394520000000 1.0
C      1  0.4868990000000  0.4782970000000  0.4063980000000 1.0
C      1  0.4215470000000  0.4820590000000  0.5583200000000 1.0
C      1  0.5893850000000  0.5188390000000  0.4633320000000 1.0
C      1  0.4884190000000  0.5127180000000  0.6000540000000 1.0
C      1  0.4238190000000  0.5200700000000  0.4381740000000 1.0
C      1  0.4794090000000  0.5915230000000  0.5122580000000 1.0
C      1  0.4964910000000  0.5901150000000  0.4686540000000 1.0
C      1  0.4691580000000  0.4091280000000  0.4798070000000 1.0
C      1  0.4872940000000  0.4056160000000  0.5247300000000 1.0
C      1  0.5160340000000  0.4032910000000  0.4852570000000 1.0
C      1  0.5275240000000  0.5916510000000  0.5117760000000 1.0
C      1  0.5021880000000  0.5969170000000  0.4960920000000 1.0
C      1  0.4898350000000  0.3983970000000  0.4961880000000 1.0
END
