TITL C-3289335-9438-569 0.00202219190712042 125000 -163.041341992294 0 0 32 (C1) n - 1
REM
REM in /nfs/bkarasulu/CARBON/AIRSS/Generating-Clusters/AIREBO/with-SteepDescent/Higher-Symm/SD-CG/HFTN-CG
REM
REM
REM
REM
REM
REM ./C.cell (b20cbc046b6831c77cfcea5457e17084)
REM
REM compiler GCC version 9.2.1 20190827 (Red Hat 9.2.1-1)
REM options -cpp -mtune=generic -march=x86-64 -g -O0 -fpre-include=/usr/include/finclude/math-vector-fortran.h
REM seed -1079596265 600328067 676405007 -2023027910 -1106607562 621451090 -1109087032 -985410185 -509992562 -1851331868 1777402227 1564029248 -1234272100 -676044489 1427359053 -2144416425 1339586193 2058906866 -313292896 -1607187260 1556569794 -758965219 19205962 113417966 -171184119 -1901421089 -136963345 -331517849 -1269159555 -2137332989 -1519503894 -1877182835 -1330837983
REM
CELL 1.54180   50.00000   50.00000   50.00000   90.00000   90.00000   90.00000
LATT -1
SFAC C  
C      1  0.5519030000000  0.4660570000000  0.5089110000000 1.0
C      1  0.5002480000000  0.5606800000000  0.5084640000000 1.0
C      1  0.4412590000000  0.4705650000000  0.5138520000000 1.0
C      1  0.4475560000000  0.4679290000000  0.4874980000000 1.0
C      1  0.4941050000000  0.5649430000000  0.4822080000000 1.0
C      1  0.5548830000000  0.4712050000000  0.4816770000000 1.0
C      1  0.4799560000000  0.4911710000000  0.4851760000000 1.0
C      1  0.5198680000000  0.4900960000000  0.4831980000000 1.0
C      1  0.5000330000000  0.5255890000000  0.4827900000000 1.0
C      1  0.5179140000000  0.4869320000000  0.5105750000000 1.0
C      1  0.4780080000000  0.4858530000000  0.5129500000000 1.0
C      1  0.4968610000000  0.5209420000000  0.5105060000000 1.0
C      1  0.5197720000000  0.5393270000000  0.5276290000000 1.0
C      1  0.4525380000000  0.4977000000000  0.5309690000000 1.0
C      1  0.5238990000000  0.4587320000000  0.5277390000000 1.0
C      1  0.4768830000000  0.5412450000000  0.4649160000000 1.0
C      1  0.5472900000000  0.5013110000000  0.4711520000000 1.0
C      1  0.4756850000000  0.4619370000000  0.4682840000000 1.0
C      1  0.4767480000000  0.5194900000000  0.5378810000000 1.0
C      1  0.4932260000000  0.4676230000000  0.5356570000000 1.0
C      1  0.5263460000000  0.5088180000000  0.5346470000000 1.0
C      1  0.5239020000000  0.5226170000000  0.4605330000000 1.0
C      1  0.5050150000000  0.4712680000000  0.4612020000000 1.0
C      1  0.4713830000000  0.5089090000000  0.4574650000000 1.0
C      1  0.4596270000000  0.4633180000000  0.5394670000000 1.0
C      1  0.5468820000000  0.4822290000000  0.5365100000000 1.0
C      1  0.4887190000000  0.5498470000000  0.5366660000000 1.0
C      1  0.5353170000000  0.4582220000000  0.4630420000000 1.0
C      1  0.4509120000000  0.4833420000000  0.4591040000000 1.0
C      1  0.5099140000000  0.5533620000000  0.4566180000000 1.0
C      1  0.4988890000000  0.4979170000000  0.5463910000000 1.0
C      1  0.5018290000000  0.5009130000000  0.4492440000000 1.0
END
