TITL C-3289330-4660-555 0.00387239615162727 125000 -355.079267081618 0 0 71 (C1) n - 1
REM
REM in /nfs/bkarasulu/CARBON/AIRSS/Generating-Clusters/AIREBO/with-SteepDescent/Higher-Symm/SD-CG/HFTN-CG
REM
REM
REM
REM
REM
REM ./C.cell (b20cbc046b6831c77cfcea5457e17084)
REM
REM compiler GCC version 9.2.1 20190827 (Red Hat 9.2.1-1)
REM options -cpp -mtune=generic -march=x86-64 -g -O0 -fpre-include=/usr/include/finclude/math-vector-fortran.h
REM seed 218995601 -1598340589 -1229348042 1912846910 2105955530 -2032158963 244723230 1739776238 -1016537607 978042878 -1439386800 -1039320884 -1341333982 -1780898765 -232630545 -1296209740 1691193753 1563892532 1018853896 -1946148871 942417243 -334293310 2121170129 1090895460 262874952 -1473676377 -571149625 562688637 1153158114 -233873339 1802821637 2038547066 790388665
REM
CELL 1.54180   50.00000   50.00000   50.00000   90.00000   90.00000   90.00000
LATT -1
SFAC C  
C      1  0.4859670000000  0.5036360000000  0.4231990000000 1.0
C      1  0.5738670000000  0.5024900000000  0.5265090000000 1.0
C      1  0.4394350000000  0.5049560000000  0.5516620000000 1.0
C      1  0.5147110000000  0.4992630000000  0.4228520000000 1.0
C      1  0.4253790000000  0.5005730000000  0.5267120000000 1.0
C      1  0.5602670000000  0.4986710000000  0.5520530000000 1.0
C      1  0.5377820000000  0.4433050000000  0.5301230000000 1.0
C      1  0.4559380000000  0.4412670000000  0.5170990000000 1.0
C      1  0.5097090000000  0.4397940000000  0.4530290000000 1.0
C      1  0.4631660000000  0.5638540000000  0.5313490000000 1.0
C      1  0.5445220000000  0.5610130000000  0.5172090000000 1.0
C      1  0.4909780000000  0.5634530000000  0.4530570000000 1.0
C      1  0.5428570000000  0.4290000000000  0.4932130000000 1.0
C      1  0.4875620000000  0.4289310000000  0.5380790000000 1.0
C      1  0.4736500000000  0.4309660000000  0.4676880000000 1.0
C      1  0.4575580000000  0.5750600000000  0.4934210000000 1.0
C      1  0.5148860000000  0.5741870000000  0.5404660000000 1.0
C      1  0.5266090000000  0.5722830000000  0.4686260000000 1.0
C      1  0.5754100000000  0.5256110000000  0.4805320000000 1.0
C      1  0.4793700000000  0.5262020000000  0.5764760000000 1.0
C      1  0.4447550000000  0.5260690000000  0.4445870000000 1.0
C      1  0.4242510000000  0.4780450000000  0.4805960000000 1.0
C      1  0.5197700000000  0.4779770000000  0.5762540000000 1.0
C      1  0.5560600000000  0.4774970000000  0.4441090000000 1.0
C      1  0.4813990000000  0.4859930000000  0.4909780000000 1.0
C      1  0.5207580000000  0.4847610000000  0.4865190000000 1.0
C      1  0.4990090000000  0.4855720000000  0.5200780000000 1.0
C      1  0.5141710000000  0.5176770000000  0.4920790000000 1.0
C      1  0.4803830000000  0.5199600000000  0.4889280000000 1.0
C      1  0.5012800000000  0.5193490000000  0.5235060000000 1.0
C      1  0.4396850000000  0.5738500000000  0.5306630000000 1.0
C      1  0.5032810000000  0.5725410000000  0.4326150000000 1.0
C      1  0.5571760000000  0.5708890000000  0.5370610000000 1.0
C      1  0.5606200000000  0.4322290000000  0.5330370000000 1.0
C      1  0.4975020000000  0.4301160000000  0.4328080000000 1.0
C      1  0.4443670000000  0.4313200000000  0.5375660000000 1.0
C      1  0.4702010000000  0.4948830000000  0.5283340000000 1.0
C      1  0.4893010000000  0.4926320000000  0.4614220000000 1.0
C      1  0.5401350000000  0.4918330000000  0.5079350000000 1.0
C      1  0.5306970000000  0.5086980000000  0.5273320000000 1.0
C      1  0.5097060000000  0.5125820000000  0.4601200000000 1.0
C      1  0.4597070000000  0.5130040000000  0.5105420000000 1.0
C      1  0.5666780000000  0.4898950000000  0.4957410000000 1.0
C      1  0.4704680000000  0.4923450000000  0.5575190000000 1.0
C      1  0.4642560000000  0.4913860000000  0.4463330000000 1.0
C      1  0.4341500000000  0.5132260000000  0.4963880000000 1.0
C      1  0.5292210000000  0.5115840000000  0.5571700000000 1.0
C      1  0.5356300000000  0.5116130000000  0.4466570000000 1.0
C      1  0.5410290000000  0.4825830000000  0.4201320000000 1.0
C      1  0.5483030000000  0.4825150000000  0.5762680000000 1.0
C      1  0.4105500000000  0.4827030000000  0.5055280000000 1.0
C      1  0.4600070000000  0.5212510000000  0.4205950000000 1.0
C      1  0.4508740000000  0.5215120000000  0.5758970000000 1.0
C      1  0.5886850000000  0.5212740000000  0.5058260000000 1.0
C      1  0.4710090000000  0.4535230000000  0.4899460000000 1.0
C      1  0.5259770000000  0.4517780000000  0.4796910000000 1.0
C      1  0.5061530000000  0.4537970000000  0.5307010000000 1.0
C      1  0.5276630000000  0.5488930000000  0.4906650000000 1.0
C      1  0.4747160000000  0.5523760000000  0.4798120000000 1.0
C      1  0.4942720000000  0.5515420000000  0.5326440000000 1.0
C      1  0.4490520000000  0.5484700000000  0.4586680000000 1.0
C      1  0.5590190000000  0.5465880000000  0.4782410000000 1.0
C      1  0.4891110000000  0.5486320000000  0.5655550000000 1.0
C      1  0.5516000000000  0.4550470000000  0.4581150000000 1.0
C      1  0.4396440000000  0.4562910000000  0.4782350000000 1.0
C      1  0.5100180000000  0.4563870000000  0.5638060000000 1.0
C      1  0.4371770000000  0.5021360000000  0.4642050000000 1.0
C      1  0.5634270000000  0.5013380000000  0.4637280000000 1.0
C      1  0.4998230000000  0.5022560000000  0.5718650000000 1.0
C      1  0.4987690000000  0.5592410000000  0.5010280000000 1.0
C      1  0.5011460000000  0.4455240000000  0.4996470000000 1.0
END
