TITL C-3289334-2237-743 -0.000181254874697498 125000 -193.701819677391 0 0 33 (C1) n - 1
REM
REM in /nfs/bkarasulu/CARBON/AIRSS/Generating-Clusters/AIREBO/with-SteepDescent/Higher-Symm/SD-CG/HFTN-CG
REM
REM
REM
REM
REM
REM ./C.cell (b20cbc046b6831c77cfcea5457e17084)
REM
REM compiler GCC version 9.2.1 20190827 (Red Hat 9.2.1-1)
REM options -cpp -mtune=generic -march=x86-64 -g -O0 -fpre-include=/usr/include/finclude/math-vector-fortran.h
REM seed 1308619431 293209754 -219287906 -468947283 211836728 1419919746 1247535970 1778815581 96318142 -336594334 -981003392 -1677866384 394800983 -1923578148 -1500122876 -1440320876 1638728763 2078299427 1925073508 897440199 1597650070 -23179775 -1212649795 2045216040 -1373454640 -691829451 134276911 -1118179517 -1853560456 1699825838 -478125839 859261602 -1705236550
REM
CELL 1.54180   50.00000   50.00000   50.00000   90.00000   90.00000   90.00000
LATT -1
SFAC C  
C      1  0.5569760000000  0.5164880000000  0.5448820000000 1.0
C      1  0.4996950000000  0.5771720000000  0.5428250000000 1.0
C      1  0.4598010000000  0.5230700000000  0.5308490000000 1.0
C      1  0.4424140000000  0.5418310000000  0.4761760000000 1.0
C      1  0.4529250000000  0.4994730000000  0.4495680000000 1.0
C      1  0.5061600000000  0.5188250000000  0.4536910000000 1.0
C      1  0.5580130000000  0.5228100000000  0.4904110000000 1.0
C      1  0.5007450000000  0.4913750000000  0.4507870000000 1.0
C      1  0.5606720000000  0.5012240000000  0.4751950000000 1.0
C      1  0.5434670000000  0.5034140000000  0.5644830000000 1.0
C      1  0.4979350000000  0.4850820000000  0.5256330000000 1.0
C      1  0.4616870000000  0.4968230000000  0.5377200000000 1.0
C      1  0.4824710000000  0.4735540000000  0.5517180000000 1.0
C      1  0.4743130000000  0.4823540000000  0.4559220000000 1.0
C      1  0.5475190000000  0.4866390000000  0.4565810000000 1.0
C      1  0.5259810000000  0.4851020000000  0.5741860000000 1.0
C      1  0.5004210000000  0.4755880000000  0.5760170000000 1.0
C      1  0.4618360000000  0.4680300000000  0.5252660000000 1.0
C      1  0.4598190000000  0.4584110000000  0.5000280000000 1.0
C      1  0.4688850000000  0.4622490000000  0.4747350000000 1.0
C      1  0.5234000000000  0.4747030000000  0.4487420000000 1.0
C      1  0.5302720000000  0.5401770000000  0.4903460000000 1.0
C      1  0.5480380000000  0.5318200000000  0.5208910000000 1.0
C      1  0.4949800000000  0.5552610000000  0.5273060000000 1.0
C      1  0.4694580000000  0.5462970000000  0.5179580000000 1.0
C      1  0.4645690000000  0.5513620000000  0.4904670000000 1.0
C      1  0.4876160000000  0.5574500000000  0.4750380000000 1.0
C      1  0.5099420000000  0.5413860000000  0.4694970000000 1.0
C      1  0.5158490000000  0.5358220000000  0.5192900000000 1.0
C      1  0.4386170000000  0.5190790000000  0.4617580000000 1.0
C      1  0.5038450000000  0.5078990000000  0.5196830000000 1.0
C      1  0.5219650000000  0.4490660000000  0.4385720000000 1.0
C      1  0.5202170000000  0.4239310000000  0.4313490000000 1.0
END
