TITL C-3289334-2237-523 -0.000969420278241249 125000 -814.988292277511 0 0 155 (C1) n - 1
REM
REM in /nfs/bkarasulu/CARBON/AIRSS/Generating-Clusters/AIREBO/with-SteepDescent/Higher-Symm/SD-CG/HFTN-CG
REM
REM
REM
REM
REM
REM ./C.cell (b20cbc046b6831c77cfcea5457e17084)
REM
REM compiler GCC version 9.2.1 20190827 (Red Hat 9.2.1-1)
REM options -cpp -mtune=generic -march=x86-64 -g -O0 -fpre-include=/usr/include/finclude/math-vector-fortran.h
REM seed 1551161801 -2030179564 16453017 -765112795 1815808462 1099642553 -347427924 1736442927 1707951925 1601173788 -868149261 -671347674 -1164528834 219231524 1348949420 932574598 195999159 -1163643240 841945264 1812851759 -106253889 1076709810 -25065957 666263958 -90832299 -1096701030 1319294200 -1588085052 565387480 1955035388 -398363234 -583814429 155870091
REM
CELL 1.54180   50.00000   50.00000   50.00000   90.00000   90.00000   90.00000
LATT -1
SFAC C  
C      1  0.4364440000000  0.4608780000000  0.5749820000000 1.0
C      1  0.5615090000000  0.4259710000000  0.4607310000000 1.0
C      1  0.4380810000000  0.5359360000000  0.4308640000000 1.0
C      1  0.5599070000000  0.5790360000000  0.5291600000000 1.0
C      1  0.5578290000000  0.4736410000000  0.5306360000000 1.0
C      1  0.4357120000000  0.4691790000000  0.4718260000000 1.0
C      1  0.5605790000000  0.5323810000000  0.4712300000000 1.0
C      1  0.4429130000000  0.5297600000000  0.5220170000000 1.0
C      1  0.5027010000000  0.4868670000000  0.4603190000000 1.0
C      1  0.4999090000000  0.5315860000000  0.4918030000000 1.0
C      1  0.5017340000000  0.5116440000000  0.5441560000000 1.0
C      1  0.5019420000000  0.4689380000000  0.5105090000000 1.0
C      1  0.5723820000000  0.4419940000000  0.5665570000000 1.0
C      1  0.4292930000000  0.4346550000000  0.4471230000000 1.0
C      1  0.5715080000000  0.5522850000000  0.4383000000000 1.0
C      1  0.4267360000000  0.5688270000000  0.5505980000000 1.0
C      1  0.5641210000000  0.4275020000000  0.5189750000000 1.0
C      1  0.4328150000000  0.4804640000000  0.4282120000000 1.0
C      1  0.5630810000000  0.5705840000000  0.4825470000000 1.0
C      1  0.4300590000000  0.5237890000000  0.5728440000000 1.0
C      1  0.4056450000000  0.5351240000000  0.4740600000000 1.0
C      1  0.5858980000000  0.5242190000000  0.5362300000000 1.0
C      1  0.4102470000000  0.4679640000000  0.5263010000000 1.0
C      1  0.5899950000000  0.4712270000000  0.4642280000000 1.0
C      1  0.5915160000000  0.5240430000000  0.4609470000000 1.0
C      1  0.4089150000000  0.5293060000000  0.5229400000000 1.0
C      1  0.5906310000000  0.4824770000000  0.5291090000000 1.0
C      1  0.4030560000000  0.4602000000000  0.4756810000000 1.0
C      1  0.5346650000000  0.4644210000000  0.5537960000000 1.0
C      1  0.4618370000000  0.4482340000000  0.4656930000000 1.0
C      1  0.5362250000000  0.5361720000000  0.4477650000000 1.0
C      1  0.4662250000000  0.5530820000000  0.5304420000000 1.0
C      1  0.4913570000000  0.4278910000000  0.5203400000000 1.0
C      1  0.5082410000000  0.4796550000000  0.4298740000000 1.0
C      1  0.4919720000000  0.5685590000000  0.4734180000000 1.0
C      1  0.5010350000000  0.5256650000000  0.5751270000000 1.0
C      1  0.4183760000000  0.4758070000000  0.5529300000000 1.0
C      1  0.5820720000000  0.4460640000000  0.4745930000000 1.0
C      1  0.4229990000000  0.5183860000000  0.4543190000000 1.0
C      1  0.5708160000000  0.5506540000000  0.5208520000000 1.0
C      1  0.4718650000000  0.4157950000000  0.4635830000000 1.0
C      1  0.5292990000000  0.5371950000000  0.4140480000000 1.0
C      1  0.4747960000000  0.5863170000000  0.5327890000000 1.0
C      1  0.5253650000000  0.4638330000000  0.5869800000000 1.0
C      1  0.4968290000000  0.5557350000000  0.5450720000000 1.0
C      1  0.5026600000000  0.4531760000000  0.5564500000000 1.0
C      1  0.4942320000000  0.4474090000000  0.4546310000000 1.0
C      1  0.5038800000000  0.5456890000000  0.4432190000000 1.0
C      1  0.5243800000000  0.5613040000000  0.5266230000000 1.0
C      1  0.4862910000000  0.4774830000000  0.5696810000000 1.0
C      1  0.5175720000000  0.4334860000000  0.4719440000000 1.0
C      1  0.4817530000000  0.5210320000000  0.4355560000000 1.0
C      1  0.4736370000000  0.6008110000000  0.4592150000000 1.0
C      1  0.5300230000000  0.5401340000000  0.5981820000000 1.0
C      1  0.4676770000000  0.4009900000000  0.5399000000000 1.0
C      1  0.5319720000000  0.4596690000000  0.4046240000000 1.0
C      1  0.5646280000000  0.4994470000000  0.4773910000000 1.0
C      1  0.4515210000000  0.5161620000000  0.4951120000000 1.0
C      1  0.5580930000000  0.5019650000000  0.5167560000000 1.0
C      1  0.4410810000000  0.4786550000000  0.5031740000000 1.0
C      1  0.5157280000000  0.5296030000000  0.5218350000000 1.0
C      1  0.4850340000000  0.4829980000000  0.5366320000000 1.0
C      1  0.5184400000000  0.4649170000000  0.4810410000000 1.0
C      1  0.4847880000000  0.5148810000000  0.4674820000000 1.0
C      1  0.5315560000000  0.4184620000000  0.4448320000000 1.0
C      1  0.4674170000000  0.5509080000000  0.4279230000000 1.0
C      1  0.5387640000000  0.5770730000000  0.5530930000000 1.0
C      1  0.4687090000000  0.4497300000000  0.5784460000000 1.0
C      1  0.4175110000000  0.4448550000000  0.5023600000000 1.0
C      1  0.5860620000000  0.4967130000000  0.4420200000000 1.0
C      1  0.4169830000000  0.5526100000000  0.5017130000000 1.0
C      1  0.5826210000000  0.4955490000000  0.5570250000000 1.0
C      1  0.4635630000000  0.4293530000000  0.5007110000000 1.0
C      1  0.5359700000000  0.4997430000000  0.4316460000000 1.0
C      1  0.4501040000000  0.5703520000000  0.4883360000000 1.0
C      1  0.5482460000000  0.5021150000000  0.5761720000000 1.0
C      1  0.5232200000000  0.5498730000000  0.5663040000000 1.0
C      1  0.4761030000000  0.4322880000000  0.5502110000000 1.0
C      1  0.5227290000000  0.4497660000000  0.4358250000000 1.0
C      1  0.4825940000000  0.5723360000000  0.4429300000000 1.0
C      1  0.4813910000000  0.4785270000000  0.4135260000000 1.0
C      1  0.5179820000000  0.5848750000000  0.4760870000000 1.0
C      1  0.4766380000000  0.5306530000000  0.5961120000000 1.0
C      1  0.5167670000000  0.4059040000000  0.5255750000000 1.0
C      1  0.5372280000000  0.5999470000000  0.5203970000000 1.0
C      1  0.4576040000000  0.4759460000000  0.5970520000000 1.0
C      1  0.5409280000000  0.4017350000000  0.4730100000000 1.0
C      1  0.4584610000000  0.5284060000000  0.4041640000000 1.0
C      1  0.4670430000000  0.3978610000000  0.5114900000000 1.0
C      1  0.5340100000000  0.4877910000000  0.4007440000000 1.0
C      1  0.4669990000000  0.5969510000000  0.4860790000000 1.0
C      1  0.5323910000000  0.5120040000000  0.6006020000000 1.0
C      1  0.5245400000000  0.4532200000000  0.5233300000000 1.0
C      1  0.4707050000000  0.4794380000000  0.4555050000000 1.0
C      1  0.5238400000000  0.5454550000000  0.4780490000000 1.0
C      1  0.4723150000000  0.5242990000000  0.5474970000000 1.0
C      1  0.4618970000000  0.5576490000000  0.5813500000000 1.0
C      1  0.5337300000000  0.4160160000000  0.5535290000000 1.0
C      1  0.4646500000000  0.4490710000000  0.4169040000000 1.0
C      1  0.5345680000000  0.5826560000000  0.4483920000000 1.0
C      1  0.4183250000000  0.5131570000000  0.4955420000000 1.0
C      1  0.5893590000000  0.5066790000000  0.5079380000000 1.0
C      1  0.4088000000000  0.4835200000000  0.4975740000000 1.0
C      1  0.5984550000000  0.4985320000000  0.4799170000000 1.0
C      1  0.5130530000000  0.5993320000000  0.5044200000000 1.0
C      1  0.4825320000000  0.4971550000000  0.5958260000000 1.0
C      1  0.5130340000000  0.4068280000000  0.4917710000000 1.0
C      1  0.4874970000000  0.5105170000000  0.4037340000000 1.0
C      1  0.5828610000000  0.5486380000000  0.4911770000000 1.0
C      1  0.4327110000000  0.5054270000000  0.5443520000000 1.0
C      1  0.5728620000000  0.4551210000000  0.5060470000000 1.0
C      1  0.4163620000000  0.4891420000000  0.4519780000000 1.0
C      1  0.4747850000000  0.4591720000000  0.4951700000000 1.0
C      1  0.5279430000000  0.5073540000000  0.4637980000000 1.0
C      1  0.4772640000000  0.5530460000000  0.4982790000000 1.0
C      1  0.5271460000000  0.4962870000000  0.5528930000000 1.0
C      1  0.4365740000000  0.4304000000000  0.4800790000000 1.0
C      1  0.5626510000000  0.5198970000000  0.4336170000000 1.0
C      1  0.4376720000000  0.5691090000000  0.5199620000000 1.0
C      1  0.5637860000000  0.4729000000000  0.5700000000000 1.0
C      1  0.5655240000000  0.4728480000000  0.4328800000000 1.0
C      1  0.4138990000000  0.5674500000000  0.4717290000000 1.0
C      1  0.5794040000000  0.5261160000000  0.5692880000000 1.0
C      1  0.4278150000000  0.4326910000000  0.5308100000000 1.0
C      1  0.4770560000000  0.4302030000000  0.4335080000000 1.0
C      1  0.5226820000000  0.5677060000000  0.4275220000000 1.0
C      1  0.4762980000000  0.5731420000000  0.5634230000000 1.0
C      1  0.5215930000000  0.4327180000000  0.5737690000000 1.0
C      1  0.5506380000000  0.4571560000000  0.4526380000000 1.0
C      1  0.4425080000000  0.5548430000000  0.4589060000000 1.0
C      1  0.5483230000000  0.5297830000000  0.5578950000000 1.0
C      1  0.4471640000000  0.4493190000000  0.5448570000000 1.0
C      1  0.3873370000000  0.4714240000000  0.4518610000000 1.0
C      1  0.6087610000000  0.5484440000000  0.4691490000000 1.0
C      1  0.3991270000000  0.5108210000000  0.5437200000000 1.0
C      1  0.6048590000000  0.4584260000000  0.5170770000000 1.0
C      1  0.4835410000000  0.3993660000000  0.4842430000000 1.0
C      1  0.5181240000000  0.5151340000000  0.3995510000000 1.0
C      1  0.4843560000000  0.5995860000000  0.5095760000000 1.0
C      1  0.5145180000000  0.4879490000000  0.5991440000000 1.0
C      1  0.4529220000000  0.4802950000000  0.5335000000000 1.0
C      1  0.5515840000000  0.4700470000000  0.4840860000000 1.0
C      1  0.4538310000000  0.5239740000000  0.4654800000000 1.0
C      1  0.5472120000000  0.5285090000000  0.5275170000000 1.0
C      1  0.4354810000000  0.5527690000000  0.5725620000000 1.0
C      1  0.5606580000000  0.4237270000000  0.5479630000000 1.0
C      1  0.4380670000000  0.4530560000000  0.4262130000000 1.0
C      1  0.5601720000000  0.5729470000000  0.4547820000000 1.0
C      1  0.4595570000000  0.5190070000000  0.5714470000000 1.0
C      1  0.5354540000000  0.4292360000000  0.5158530000000 1.0
C      1  0.4588570000000  0.4960950000000  0.4311930000000 1.0
C      1  0.5358510000000  0.5672550000000  0.4975910000000 1.0
C      1  0.5358300000000  0.5052160000000  0.4945220000000 1.0
C      1  0.4714870000000  0.4926160000000  0.5004760000000 1.0
C      1  0.5048020000000  0.4992550000000  0.4982060000000 1.0
END
