TITL C-3289329-2751-669 -6.75390073832412e-06 125000 -195.895070567051 0 0 37 (C1) n - 1
REM
REM in /nfs/bkarasulu/CARBON/AIRSS/Generating-Clusters/AIREBO/with-SteepDescent/Higher-Symm/SD-CG/HFTN-CG
REM
REM
REM
REM
REM
REM ./C.cell (b20cbc046b6831c77cfcea5457e17084)
REM
REM compiler GCC version 9.2.1 20190827 (Red Hat 9.2.1-1)
REM options -cpp -mtune=generic -march=x86-64 -g -O0 -fpre-include=/usr/include/finclude/math-vector-fortran.h
REM seed 1331201048 1125775923 1107952908 796309983 818875605 839398036 -493795093 1020187088 1459694981 -1700731995 714529514 1460318890 591921635 -521161198 -1199603042 -184048391 -1089679401 -1482316230 -2022371966 1365634266 -234640368 1737280510 -433172000 -1384789090 -971503275 877965160 -1513346758 1544415053 -1036927916 1897688518 1740524005 507088357 1866287919
REM
CELL 1.54180   50.00000   50.00000   50.00000   90.00000   90.00000   90.00000
LATT -1
SFAC C  
C      1  0.5297730000000  0.4472140000000  0.5053410000000 1.0
C      1  0.5292540000000  0.4788550000000  0.4495640000000 1.0
C      1  0.5409530000000  0.5390670000000  0.4619200000000 1.0
C      1  0.5175660000000  0.5481340000000  0.5223810000000 1.0
C      1  0.5347800000000  0.4896050000000  0.5480560000000 1.0
C      1  0.4721070000000  0.4528270000000  0.5010140000000 1.0
C      1  0.4680070000000  0.4852250000000  0.4534900000000 1.0
C      1  0.4852770000000  0.5479700000000  0.4642690000000 1.0
C      1  0.4589750000000  0.5367750000000  0.5396550000000 1.0
C      1  0.4798970000000  0.4760810000000  0.5561190000000 1.0
C      1  0.5007610000000  0.5676370000000  0.4529280000000 1.0
C      1  0.4704630000000  0.5614750000000  0.5408880000000 1.0
C      1  0.4982940000000  0.4672290000000  0.5744030000000 1.0
C      1  0.4827830000000  0.4279740000000  0.5059520000000 1.0
C      1  0.4803770000000  0.4717240000000  0.4332760000000 1.0
C      1  0.5319940000000  0.5636290000000  0.4529240000000 1.0
C      1  0.4999180000000  0.5672040000000  0.5297860000000 1.0
C      1  0.5288050000000  0.4733710000000  0.5693980000000 1.0
C      1  0.5142670000000  0.4244740000000  0.5047960000000 1.0
C      1  0.5123040000000  0.4704080000000  0.4299290000000 1.0
C      1  0.5294360000000  0.4899950000000  0.4737440000000 1.0
C      1  0.5233060000000  0.5197310000000  0.4791880000000 1.0
C      1  0.5291050000000  0.5226370000000  0.5097050000000 1.0
C      1  0.5171860000000  0.4966090000000  0.5230940000000 1.0
C      1  0.5196010000000  0.4753400000000  0.4982140000000 1.0
C      1  0.4757040000000  0.5001940000000  0.4792070000000 1.0
C      1  0.4933180000000  0.5239240000000  0.4735110000000 1.0
C      1  0.4619000000000  0.5134260000000  0.5252250000000 1.0
C      1  0.4845870000000  0.4944100000000  0.5316560000000 1.0
C      1  0.4874520000000  0.4801030000000  0.5022250000000 1.0
C      1  0.5189420000000  0.5891060000000  0.4368410000000 1.0
C      1  0.5196440000000  0.4595140000000  0.5975640000000 1.0
C      1  0.4954970000000  0.3981520000000  0.5085700000000 1.0
C      1  0.4932770000000  0.4574070000000  0.4072030000000 1.0
C      1  0.4816150000000  0.5917930000000  0.5405770000000 1.0
C      1  0.5598400000000  0.5221780000000  0.5135910000000 1.0
C      1  0.4527980000000  0.5083840000000  0.5000090000000 1.0
END
