TITL C-3289329-2751-351 0.000378055146647379 125000 -958.808161017785 0 0 179 (C1) n - 1
REM
REM in /nfs/bkarasulu/CARBON/AIRSS/Generating-Clusters/AIREBO/with-SteepDescent/Higher-Symm/SD-CG/HFTN-CG
REM
REM
REM
REM
REM
REM ./C.cell (b20cbc046b6831c77cfcea5457e17084)
REM
REM compiler GCC version 9.2.1 20190827 (Red Hat 9.2.1-1)
REM options -cpp -mtune=generic -march=x86-64 -g -O0 -fpre-include=/usr/include/finclude/math-vector-fortran.h
REM seed 735012256 500657192 -799038891 1178706123 634471429 -1873913750 -121995117 1117122103 1023744632 1087705588 1589808549 2107471326 1488392998 1268867510 -2124061704 -640594438 1380736661 1711534700 -1267761347 -1622119785 184311561 705938350 -240991094 -423172139 -373503832 -911081316 -168370785 -208630210 -536559205 -2084329607 -1112057940 1325155113 764397072
REM
CELL 1.54180   50.00000   50.00000   50.00000   90.00000   90.00000   90.00000
LATT -1
SFAC C  
C      1  0.4167940000000  0.4471730000000  0.5571440000000 1.0
C      1  0.5833030000000  0.5500420000000  0.4409320000000 1.0
C      1  0.5107960000000  0.4065150000000  0.5159990000000 1.0
C      1  0.5823540000000  0.5563950000000  0.5339330000000 1.0
C      1  0.4589980000000  0.4737590000000  0.5053690000000 1.0
C      1  0.4272370000000  0.5896370000000  0.4955970000000 1.0
C      1  0.4962200000000  0.4972870000000  0.5117400000000 1.0
C      1  0.5375020000000  0.5055680000000  0.5840080000000 1.0
C      1  0.4629290000000  0.5554660000000  0.5408920000000 1.0
C      1  0.4025360000000  0.4563950000000  0.4854400000000 1.0
C      1  0.5149040000000  0.5131850000000  0.6045680000000 1.0
C      1  0.5941620000000  0.5354950000000  0.4665010000000 1.0
C      1  0.4928740000000  0.4207720000000  0.5577110000000 1.0
C      1  0.4753200000000  0.5435130000000  0.5812410000000 1.0
C      1  0.4617950000000  0.5205220000000  0.5984460000000 1.0
C      1  0.5159020000000  0.5412210000000  0.4224590000000 1.0
C      1  0.5536330000000  0.5376480000000  0.4352500000000 1.0
C      1  0.4203600000000  0.5403260000000  0.4828850000000 1.0
C      1  0.4345150000000  0.4182900000000  0.5600630000000 1.0
C      1  0.4671010000000  0.4924620000000  0.4193830000000 1.0
C      1  0.5057380000000  0.5830300000000  0.5741910000000 1.0
C      1  0.5779780000000  0.4361310000000  0.4430530000000 1.0
C      1  0.5596340000000  0.4607670000000  0.4435410000000 1.0
C      1  0.5258740000000  0.6019880000000  0.4729610000000 1.0
C      1  0.4887170000000  0.3952820000000  0.4612920000000 1.0
C      1  0.5037900000000  0.4784540000000  0.4056120000000 1.0
C      1  0.4806150000000  0.5569370000000  0.4724350000000 1.0
C      1  0.4444710000000  0.5106680000000  0.4941990000000 1.0
C      1  0.4539610000000  0.4522150000000  0.5436090000000 1.0
C      1  0.4800730000000  0.3931980000000  0.5220480000000 1.0
C      1  0.5259140000000  0.4296730000000  0.4961990000000 1.0
C      1  0.5320680000000  0.4488970000000  0.5306490000000 1.0
C      1  0.5032370000000  0.6114510000000  0.4957820000000 1.0
C      1  0.5179000000000  0.5230400000000  0.4901750000000 1.0
C      1  0.4547090000000  0.4077500000000  0.5396840000000 1.0
C      1  0.4831470000000  0.3964380000000  0.4887950000000 1.0
C      1  0.5522230000000  0.5811300000000  0.4677910000000 1.0
C      1  0.5235140000000  0.4893900000000  0.4930660000000 1.0
C      1  0.4876900000000  0.4952090000000  0.5601240000000 1.0
C      1  0.4071410000000  0.4752570000000  0.5304890000000 1.0
C      1  0.5550280000000  0.5535130000000  0.4874410000000 1.0
C      1  0.5578810000000  0.5798100000000  0.5369690000000 1.0
C      1  0.5003590000000  0.4549380000000  0.5280420000000 1.0
C      1  0.4566290000000  0.5040010000000  0.5594640000000 1.0
C      1  0.5239560000000  0.5772800000000  0.4957660000000 1.0
C      1  0.4790150000000  0.4818870000000  0.3893190000000 1.0
C      1  0.5570670000000  0.4295370000000  0.4964010000000 1.0
C      1  0.6114050000000  0.5044560000000  0.4847170000000 1.0
C      1  0.4988000000000  0.4657760000000  0.4670610000000 1.0
C      1  0.5328980000000  0.5548290000000  0.5660210000000 1.0
C      1  0.5103000000000  0.5543050000000  0.4794640000000 1.0
C      1  0.5594040000000  0.4616140000000  0.4853640000000 1.0
C      1  0.5188190000000  0.4925280000000  0.6283900000000 1.0
C      1  0.5665310000000  0.5509030000000  0.5628360000000 1.0
C      1  0.5223850000000  0.5438260000000  0.5964410000000 1.0
C      1  0.5172220000000  0.3974040000000  0.4575410000000 1.0
C      1  0.4739070000000  0.4201580000000  0.4484550000000 1.0
C      1  0.5620780000000  0.4545890000000  0.5437570000000 1.0
C      1  0.5566320000000  0.4108420000000  0.5242790000000 1.0
C      1  0.4439490000000  0.4338130000000  0.5832950000000 1.0
C      1  0.5029520000000  0.5935430000000  0.4231030000000 1.0
C      1  0.5610650000000  0.4968530000000  0.3943440000000 1.0
C      1  0.5363920000000  0.5221690000000  0.5595340000000 1.0
C      1  0.5434970000000  0.5198350000000  0.3832060000000 1.0
C      1  0.5154830000000  0.5174440000000  0.4469720000000 1.0
C      1  0.5208190000000  0.4536700000000  0.5993690000000 1.0
C      1  0.5114830000000  0.4578880000000  0.4976160000000 1.0
C      1  0.4696030000000  0.5344090000000  0.5238970000000 1.0
C      1  0.4785620000000  0.5966240000000  0.5138870000000 1.0
C      1  0.4747790000000  0.6068290000000  0.4815440000000 1.0
C      1  0.4195130000000  0.5099290000000  0.5457820000000 1.0
C      1  0.5382410000000  0.5883260000000  0.5635850000000 1.0
C      1  0.4714920000000  0.5497080000000  0.4417090000000 1.0
C      1  0.5294220000000  0.4171030000000  0.5424310000000 1.0
C      1  0.4668640000000  0.4583480000000  0.4579130000000 1.0
C      1  0.5684520000000  0.5343200000000  0.5121240000000 1.0
C      1  0.4933530000000  0.5287420000000  0.5590390000000 1.0
C      1  0.4679700000000  0.4584710000000  0.4182240000000 1.0
C      1  0.5498540000000  0.4750320000000  0.4179070000000 1.0
C      1  0.4444650000000  0.4848000000000  0.4765940000000 1.0
C      1  0.5392060000000  0.5679480000000  0.4407560000000 1.0
C      1  0.4161660000000  0.4798260000000  0.4686640000000 1.0
C      1  0.5399120000000  0.5335800000000  0.5273450000000 1.0
C      1  0.4783890000000  0.5118940000000  0.4920520000000 1.0
C      1  0.5561100000000  0.4784440000000  0.5613430000000 1.0
C      1  0.4481970000000  0.5691040000000  0.4526800000000 1.0
C      1  0.5171280000000  0.4376920000000  0.5665740000000 1.0
C      1  0.5741660000000  0.5189000000000  0.4834640000000 1.0
C      1  0.4584310000000  0.5223770000000  0.4330600000000 1.0
C      1  0.3978880000000  0.5158930000000  0.5254630000000 1.0
C      1  0.5997620000000  0.4920310000000  0.5069570000000 1.0
C      1  0.4450960000000  0.5264870000000  0.4640990000000 1.0
C      1  0.5937650000000  0.4283880000000  0.4609960000000 1.0
C      1  0.5134000000000  0.5140430000000  0.5358290000000 1.0
C      1  0.4919690000000  0.4330300000000  0.4732270000000 1.0
C      1  0.5890680000000  0.5105690000000  0.5251180000000 1.0
C      1  0.5115660000000  0.5252610000000  0.3929040000000 1.0
C      1  0.6141220000000  0.5344290000000  0.4909640000000 1.0
C      1  0.5099610000000  0.5030840000000  0.4166320000000 1.0
C      1  0.5329430000000  0.5653230000000  0.5228020000000 1.0
C      1  0.4475920000000  0.5846590000000  0.5183050000000 1.0
C      1  0.4265770000000  0.5253030000000  0.4288290000000 1.0
C      1  0.5993960000000  0.4966650000000  0.4597880000000 1.0
C      1  0.4041710000000  0.5017950000000  0.4521220000000 1.0
C      1  0.5662170000000  0.5779600000000  0.5048950000000 1.0
C      1  0.5734430000000  0.4825310000000  0.4625250000000 1.0
C      1  0.5289260000000  0.3925200000000  0.5604210000000 1.0
C      1  0.3736260000000  0.5241470000000  0.5299730000000 1.0
C      1  0.5120910000000  0.4343370000000  0.4201390000000 1.0
C      1  0.4671240000000  0.4563290000000  0.5734460000000 1.0
C      1  0.5980240000000  0.5197070000000  0.4365070000000 1.0
C      1  0.5324410000000  0.4617080000000  0.4639310000000 1.0
C      1  0.5499470000000  0.5001950000000  0.4746030000000 1.0
C      1  0.4762730000000  0.4269130000000  0.5011530000000 1.0
C      1  0.4571080000000  0.4480560000000  0.4858140000000 1.0
C      1  0.6073270000000  0.5481620000000  0.5134420000000 1.0
C      1  0.4764420000000  0.5869880000000  0.4593030000000 1.0
C      1  0.5400580000000  0.5315200000000  0.4658190000000 1.0
C      1  0.4236460000000  0.5722730000000  0.4734370000000 1.0
C      1  0.5895950000000  0.4333550000000  0.4907890000000 1.0
C      1  0.4881110000000  0.5056580000000  0.5924840000000 1.0
C      1  0.5458430000000  0.4746960000000  0.5133060000000 1.0
C      1  0.5255670000000  0.3978170000000  0.4860970000000 1.0
C      1  0.4164550000000  0.4807700000000  0.5623730000000 1.0
C      1  0.4242100000000  0.5477780000000  0.5345180000000 1.0
C      1  0.4243580000000  0.4830610000000  0.5922540000000 1.0
C      1  0.4911620000000  0.5836760000000  0.5434730000000 1.0
C      1  0.5674800000000  0.5074060000000  0.5973630000000 1.0
C      1  0.4362910000000  0.5103240000000  0.5824100000000 1.0
C      1  0.5924200000000  0.5079430000000  0.5526110000000 1.0
C      1  0.5005430000000  0.5368150000000  0.5140880000000 1.0
C      1  0.5774480000000  0.5779620000000  0.4465540000000 1.0
C      1  0.5903810000000  0.5081110000000  0.4078620000000 1.0
C      1  0.4397830000000  0.4775260000000  0.5303360000000 1.0
C      1  0.5277610000000  0.6050170000000  0.5151700000000 1.0
C      1  0.4836080000000  0.5295120000000  0.3810050000000 1.0
C      1  0.3999540000000  0.5289520000000  0.4581760000000 1.0
C      1  0.4496620000000  0.3978410000000  0.5075530000000 1.0
C      1  0.4992220000000  0.5610470000000  0.5903100000000 1.0
C      1  0.5439760000000  0.5447070000000  0.4035880000000 1.0
C      1  0.4664050000000  0.5437380000000  0.4931470000000 1.0
C      1  0.4687220000000  0.4895460000000  0.4532250000000 1.0
C      1  0.4272610000000  0.5375410000000  0.5640570000000 1.0
C      1  0.4103780000000  0.5109300000000  0.4967670000000 1.0
C      1  0.4264600000000  0.4404540000000  0.4439500000000 1.0
C      1  0.4266180000000  0.4922020000000  0.4321970000000 1.0
C      1  0.4019980000000  0.4445690000000  0.4555510000000 1.0
C      1  0.5240330000000  0.4107490000000  0.4326300000000 1.0
C      1  0.4775880000000  0.4317570000000  0.5321860000000 1.0
C      1  0.5188640000000  0.6031610000000  0.5422770000000 1.0
C      1  0.4418790000000  0.4657850000000  0.4359690000000 1.0
C      1  0.4261180000000  0.4402220000000  0.5281520000000 1.0
C      1  0.4580090000000  0.5860940000000  0.5506500000000 1.0
C      1  0.4440100000000  0.4216200000000  0.4559870000000 1.0
C      1  0.4835270000000  0.4357040000000  0.4240550000000 1.0
C      1  0.4187600000000  0.5539270000000  0.4448110000000 1.0
C      1  0.4968840000000  0.4645800000000  0.5716970000000 1.0
C      1  0.4954890000000  0.4999740000000  0.4655500000000 1.0
C      1  0.5179460000000  0.4651320000000  0.6237380000000 1.0
C      1  0.4808220000000  0.4790230000000  0.5309990000000 1.0
C      1  0.5288870000000  0.4748760000000  0.5767850000000 1.0
C      1  0.4961400000000  0.5618520000000  0.4283880000000 1.0
C      1  0.5618620000000  0.5060440000000  0.4262650000000 1.0
C      1  0.5097630000000  0.5779750000000  0.4550530000000 1.0
C      1  0.4433400000000  0.4625530000000  0.5969880000000 1.0
C      1  0.4502170000000  0.5594180000000  0.5706980000000 1.0
C      1  0.4194560000000  0.4370440000000  0.5018820000000 1.0
C      1  0.5760790000000  0.4968440000000  0.5720330000000 1.0
C      1  0.4378720000000  0.5534550000000  0.5089180000000 1.0
C      1  0.4484860000000  0.5103100000000  0.5279650000000 1.0
C      1  0.5231390000000  0.4591490000000  0.4115530000000 1.0
C      1  0.5859420000000  0.4186330000000  0.5215530000000 1.0
C      1  0.5083650000000  0.5543440000000  0.5424460000000 1.0
C      1  0.4659010000000  0.5102800000000  0.3884520000000 1.0
C      1  0.5889590000000  0.4653630000000  0.5021950000000 1.0
C      1  0.4397590000000  0.4188480000000  0.4874560000000 1.0
C      1  0.3975750000000  0.4822360000000  0.5038880000000 1.0
C      1  0.5347300000000  0.4877970000000  0.5393870000000 1.0
C      1  0.5840940000000  0.4475990000000  0.5277450000000 1.0
END
