TITL C-3289320-4661-744 -0.000884270113199692 125000 -646.797800021017 0 0 117 (C1) n - 1
REM
REM in /nfs/bkarasulu/CARBON/AIRSS/Generating-Clusters/AIREBO/with-SteepDescent/Higher-Symm/SD-CG/HFTN-CG
REM
REM
REM
REM
REM
REM ./C.cell (b20cbc046b6831c77cfcea5457e17084)
REM
REM compiler GCC version 9.2.1 20190827 (Red Hat 9.2.1-1)
REM options -cpp -mtune=generic -march=x86-64 -g -O0 -fpre-include=/usr/include/finclude/math-vector-fortran.h
REM seed 1743527597 740157240 -1738012351 -1177637693 1348927002 -490055120 -75993757 364657355 -255281264 531461771 -2066553442 -46334007 -357882924 1603327217 99639288 -749494763 -2128577855 539233694 -1038662145 -1891353401 -1620232708 -1472077243 -1884585387 675724757 -508036526 2130066718 -758655013 -361248348 -1542739676 1711769679 -503965632 288246028 -1690097264
REM
CELL 1.54180   50.00000   50.00000   50.00000   90.00000   90.00000   90.00000
LATT -1
SFAC C  
C      1  0.4213340000000  0.5159980000000  0.4670880000000 1.0
C      1  0.4178390000000  0.4881560000000  0.4591070000000 1.0
C      1  0.4083350000000  0.4688640000000  0.4769420000000 1.0
C      1  0.4210850000000  0.4662760000000  0.5016390000000 1.0
C      1  0.4149660000000  0.4766200000000  0.5287120000000 1.0
C      1  0.4007490000000  0.4978010000000  0.5390760000000 1.0
C      1  0.4045140000000  0.5244250000000  0.5336540000000 1.0
C      1  0.4183000000000  0.5358020000000  0.5122180000000 1.0
C      1  0.4081870000000  0.5317670000000  0.4861240000000 1.0
C      1  0.5655250000000  0.5056900000000  0.5776890000000 1.0
C      1  0.5665400000000  0.5581910000000  0.5552930000000 1.0
C      1  0.5610670000000  0.5756040000000  0.5090620000000 1.0
C      1  0.5640270000000  0.5619570000000  0.4546340000000 1.0
C      1  0.5678270000000  0.5192660000000  0.4253380000000 1.0
C      1  0.5638720000000  0.4669340000000  0.4286650000000 1.0
C      1  0.5647630000000  0.4253210000000  0.4692880000000 1.0
C      1  0.5627570000000  0.4274690000000  0.5226500000000 1.0
C      1  0.5687900000000  0.4542060000000  0.5650930000000 1.0
C      1  0.4600860000000  0.5520460000000  0.5635830000000 1.0
C      1  0.4548240000000  0.5829000000000  0.5115080000000 1.0
C      1  0.4610270000000  0.5715790000000  0.4567230000000 1.0
C      1  0.4641030000000  0.5279850000000  0.4151910000000 1.0
C      1  0.4580070000000  0.4689610000000  0.4204130000000 1.0
C      1  0.4598200000000  0.4226790000000  0.4579930000000 1.0
C      1  0.4650650000000  0.4168240000000  0.5161640000000 1.0
C      1  0.4630480000000  0.4439140000000  0.5702560000000 1.0
C      1  0.4604200000000  0.4987540000000  0.5867780000000 1.0
C      1  0.4469540000000  0.4739760000000  0.5308880000000 1.0
C      1  0.4625010000000  0.4990010000000  0.5406730000000 1.0
C      1  0.4634640000000  0.5244100000000  0.5348670000000 1.0
C      1  0.4479860000000  0.5417160000000  0.5136820000000 1.0
C      1  0.4593750000000  0.5432590000000  0.4846610000000 1.0
C      1  0.4507350000000  0.5241190000000  0.4638970000000 1.0
C      1  0.4507470000000  0.4920240000000  0.4544570000000 1.0
C      1  0.4643670000000  0.4699960000000  0.4720060000000 1.0
C      1  0.4527000000000  0.4639240000000  0.4997770000000 1.0
C      1  0.4998440000000  0.5150730000000  0.4599950000000 1.0
C      1  0.5087040000000  0.4863320000000  0.4566730000000 1.0
C      1  0.5090670000000  0.4595030000000  0.4739190000000 1.0
C      1  0.5052730000000  0.4606780000000  0.5060810000000 1.0
C      1  0.4971820000000  0.4722600000000  0.5314370000000 1.0
C      1  0.5103440000000  0.4962100000000  0.5445330000000 1.0
C      1  0.5136890000000  0.5258470000000  0.5359660000000 1.0
C      1  0.5029050000000  0.5425370000000  0.5100140000000 1.0
C      1  0.5104450000000  0.5356630000000  0.4785380000000 1.0
C      1  0.5733620000000  0.4791070000000  0.4573250000000 1.0
C      1  0.5770410000000  0.4540170000000  0.4800000000000 1.0
C      1  0.5748250000000  0.4545420000000  0.5117110000000 1.0
C      1  0.5810970000000  0.4708360000000  0.5410940000000 1.0
C      1  0.5745820000000  0.5037660000000  0.5465850000000 1.0
C      1  0.5798900000000  0.5341900000000  0.5357150000000 1.0
C      1  0.5699740000000  0.5445210000000  0.5053960000000 1.0
C      1  0.5767870000000  0.5383670000000  0.4739880000000 1.0
C      1  0.5829950000000  0.5115500000000  0.4540260000000 1.0
C      1  0.4469130000000  0.5716210000000  0.5423830000000 1.0
C      1  0.4444320000000  0.5833010000000  0.4819540000000 1.0
C      1  0.4510790000000  0.5541150000000  0.4324720000000 1.0
C      1  0.4498890000000  0.4998450000000  0.4100230000000 1.0
C      1  0.4475930000000  0.4432080000000  0.4349000000000 1.0
C      1  0.4502790000000  0.4147520000000  0.4866080000000 1.0
C      1  0.4529800000000  0.4241660000000  0.5445210000000 1.0
C      1  0.4489870000000  0.4680740000000  0.5859390000000 1.0
C      1  0.4478270000000  0.5273150000000  0.5804240000000 1.0
C      1  0.4812350000000  0.4473640000000  0.4602980000000 1.0
C      1  0.4765490000000  0.4443820000000  0.5001940000000 1.0
C      1  0.4726520000000  0.4587240000000  0.5423390000000 1.0
C      1  0.4825340000000  0.4913840000000  0.5632110000000 1.0
C      1  0.4875330000000  0.5383980000000  0.5496310000000 1.0
C      1  0.4774010000000  0.5585140000000  0.5167420000000 1.0
C      1  0.4856480000000  0.5574930000000  0.4755780000000 1.0
C      1  0.4750220000000  0.5250440000000  0.4455890000000 1.0
C      1  0.4805500000000  0.4860090000000  0.4392170000000 1.0
C      1  0.5465700000000  0.5195130000000  0.4129340000000 1.0
C      1  0.5452450000000  0.4563490000000  0.4162750000000 1.0
C      1  0.5430290000000  0.4133820000000  0.4701340000000 1.0
C      1  0.5418040000000  0.4177310000000  0.5312380000000 1.0
C      1  0.5467410000000  0.4484870000000  0.5747340000000 1.0
C      1  0.5468500000000  0.5124360000000  0.5924300000000 1.0
C      1  0.5449720000000  0.5695820000000  0.5598150000000 1.0
C      1  0.5437200000000  0.5929710000000  0.5063010000000 1.0
C      1  0.5430980000000  0.5678490000000  0.4428230000000 1.0
C      1  0.5117210000000  0.5659090000000  0.4449970000000 1.0
C      1  0.5159200000000  0.5168760000000  0.4121890000000 1.0
C      1  0.5144170000000  0.4558570000000  0.4200060000000 1.0
C      1  0.5119710000000  0.4182270000000  0.4702510000000 1.0
C      1  0.5112110000000  0.4203240000000  0.5307430000000 1.0
C      1  0.5162380000000  0.4528830000000  0.5766970000000 1.0
C      1  0.5159690000000  0.5139130000000  0.5892170000000 1.0
C      1  0.5134280000000  0.5675590000000  0.5582950000000 1.0
C      1  0.5130750000000  0.5913530000000  0.5029460000000 1.0
C      1  0.5074080000000  0.4362730000000  0.4416320000000 1.0
C      1  0.5004660000000  0.4217490000000  0.4983400000000 1.0
C      1  0.4979720000000  0.4380250000000  0.5518500000000 1.0
C      1  0.5090290000000  0.4812580000000  0.5814170000000 1.0
C      1  0.5077780000000  0.5394780000000  0.5769430000000 1.0
C      1  0.5024850000000  0.5759970000000  0.5316830000000 1.0
C      1  0.5075730000000  0.5825860000000  0.4747720000000 1.0
C      1  0.5003650000000  0.5415740000000  0.4300820000000 1.0
C      1  0.5061310000000  0.4890470000000  0.4170100000000 1.0
C      1  0.4901630000000  0.4328560000000  0.5844720000000 1.0
C      1  0.4887670000000  0.4991730000000  0.6017780000000 1.0
C      1  0.4862570000000  0.5655550000000  0.5784560000000 1.0
C      1  0.4827320000000  0.5980950000000  0.5158420000000 1.0
C      1  0.4870970000000  0.5874250000000  0.4492080000000 1.0
C      1  0.4908550000000  0.5344740000000  0.3982160000000 1.0
C      1  0.4859130000000  0.4648820000000  0.4056780000000 1.0
C      1  0.4876710000000  0.4096640000000  0.4492770000000 1.0
C      1  0.4905620000000  0.3966310000000  0.5190150000000 1.0
C      1  0.5348900000000  0.4658650000000  0.5036100000000 1.0
C      1  0.5549630000000  0.4790550000000  0.5220760000000 1.0
C      1  0.5412470000000  0.4977990000000  0.5421350000000 1.0
C      1  0.5470620000000  0.5300480000000  0.5347550000000 1.0
C      1  0.5360760000000  0.5431450000000  0.5079620000000 1.0
C      1  0.5428950000000  0.5366190000000  0.4771320000000 1.0
C      1  0.5508380000000  0.5116200000000  0.4607010000000 1.0
C      1  0.5394550000000  0.4836820000000  0.4571670000000 1.0
C      1  0.5445550000000  0.4590980000000  0.4759520000000 1.0
END
