TITL C-3289327-5623-190 0.000753929188379076 125000 -783.241081671782 0 0 147 (C1) n - 1
REM
REM in /nfs/bkarasulu/CARBON/AIRSS/Generating-Clusters/AIREBO/with-SteepDescent/Higher-Symm/SD-CG/HFTN-CG
REM
REM
REM
REM
REM
REM ./C.cell (b20cbc046b6831c77cfcea5457e17084)
REM
REM compiler GCC version 9.2.1 20190827 (Red Hat 9.2.1-1)
REM options -cpp -mtune=generic -march=x86-64 -g -O0 -fpre-include=/usr/include/finclude/math-vector-fortran.h
REM seed -1867371829 -1255966670 -652255172 -1878672564 1702046803 -755595283 -797538299 2122023015 -1580429663 867374625 1092624005 371765995 1358394694 -423706899 737594445 822565957 1358805953 -1605922063 1729690430 1371885002 1246432656 -239525983 -1820191453 -1653199411 -942771134 -1823364777 1893808484 -220015458 -397990703 519278551 1082618504 117070863 -1456486422
REM
CELL 1.54180   50.00000   50.00000   50.00000   90.00000   90.00000   90.00000
LATT -1
SFAC C  
C      1  0.5578260000000  0.5452010000000  0.5658210000000 1.0
C      1  0.4417240000000  0.4567930000000  0.4445810000000 1.0
C      1  0.5662850000000  0.4946650000000  0.4174970000000 1.0
C      1  0.4373210000000  0.5018250000000  0.5847340000000 1.0
C      1  0.4919440000000  0.5255830000000  0.5428790000000 1.0
C      1  0.5109370000000  0.4761030000000  0.4651520000000 1.0
C      1  0.5183150000000  0.4493250000000  0.4135370000000 1.0
C      1  0.4802710000000  0.5506640000000  0.5910120000000 1.0
C      1  0.5668260000000  0.4457640000000  0.4874190000000 1.0
C      1  0.4324070000000  0.5545540000000  0.5164950000000 1.0
C      1  0.4408410000000  0.4811620000000  0.5040120000000 1.0
C      1  0.5646230000000  0.5204640000000  0.4948970000000 1.0
C      1  0.4917070000000  0.5445170000000  0.3976680000000 1.0
C      1  0.5003430000000  0.4444410000000  0.5912810000000 1.0
C      1  0.4716190000000  0.4965740000000  0.5887360000000 1.0
C      1  0.5324000000000  0.5027810000000  0.4137310000000 1.0
C      1  0.4896360000000  0.4713630000000  0.5783580000000 1.0
C      1  0.5043260000000  0.5204890000000  0.4181510000000 1.0
C      1  0.4637950000000  0.4611840000000  0.4957930000000 1.0
C      1  0.5423020000000  0.5401950000000  0.5005150000000 1.0
C      1  0.4896620000000  0.5931540000000  0.4563410000000 1.0
C      1  0.5103960000000  0.4046350000000  0.5241780000000 1.0
C      1  0.5127850000000  0.5511450000000  0.5944590000000 1.0
C      1  0.4852540000000  0.4502120000000  0.4114120000000 1.0
C      1  0.5225720000000  0.5197310000000  0.6034380000000 1.0
C      1  0.4773710000000  0.4825440000000  0.4043810000000 1.0
C      1  0.5088060000000  0.4808990000000  0.5361790000000 1.0
C      1  0.4930730000000  0.5103800000000  0.4551560000000 1.0
C      1  0.5551200000000  0.5255780000000  0.4247200000000 1.0
C      1  0.4499890000000  0.4716140000000  0.5806520000000 1.0
C      1  0.5936160000000  0.4657570000000  0.4937290000000 1.0
C      1  0.4066660000000  0.5329800000000  0.5110150000000 1.0
C      1  0.4350710000000  0.4995920000000  0.4212680000000 1.0
C      1  0.5646160000000  0.4985900000000  0.5803710000000 1.0
C      1  0.5246180000000  0.5215910000000  0.5204940000000 1.0
C      1  0.4782170000000  0.4863570000000  0.4856840000000 1.0
C      1  0.5748860000000  0.5643890000000  0.5550550000000 1.0
C      1  0.4218450000000  0.4412160000000  0.4545720000000 1.0
C      1  0.5408390000000  0.4056150000000  0.4773980000000 1.0
C      1  0.4591380000000  0.5939740000000  0.5282470000000 1.0
C      1  0.5110560000000  0.3982130000000  0.4660010000000 1.0
C      1  0.4912520000000  0.5966630000000  0.5280340000000 1.0
C      1  0.5439290000000  0.4534530000000  0.5192180000000 1.0
C      1  0.4543950000000  0.5502190000000  0.4834620000000 1.0
C      1  0.5264850000000  0.5771790000000  0.4338820000000 1.0
C      1  0.4676750000000  0.4221150000000  0.5522900000000 1.0
C      1  0.5629150000000  0.5183630000000  0.5532350000000 1.0
C      1  0.4393960000000  0.4856310000000  0.4495340000000 1.0
C      1  0.4667040000000  0.5313640000000  0.4076970000000 1.0
C      1  0.5271360000000  0.4654370000000  0.5882140000000 1.0
C      1  0.4550100000000  0.5088080000000  0.5091340000000 1.0
C      1  0.5473160000000  0.4949050000000  0.4930680000000 1.0
C      1  0.4108380000000  0.4693340000000  0.4940890000000 1.0
C      1  0.5945660000000  0.5305100000000  0.5075060000000 1.0
C      1  0.4836430000000  0.3863400000000  0.5234700000000 1.0
C      1  0.5084060000000  0.6052860000000  0.4722260000000 1.0
C      1  0.5994480000000  0.4838950000000  0.4721710000000 1.0
C      1  0.4033410000000  0.5122420000000  0.5313960000000 1.0
C      1  0.4529200000000  0.5263400000000  0.5679400000000 1.0
C      1  0.5482190000000  0.4741350000000  0.4364430000000 1.0
C      1  0.5514050000000  0.5823530000000  0.5322120000000 1.0
C      1  0.4494070000000  0.4112660000000  0.4768010000000 1.0
C      1  0.4802630000000  0.5526710000000  0.5399780000000 1.0
C      1  0.5200010000000  0.4467040000000  0.4630030000000 1.0
C      1  0.4893440000000  0.5349460000000  0.4953600000000 1.0
C      1  0.5111780000000  0.4711900000000  0.5048590000000 1.0
C      1  0.5627760000000  0.3990690000000  0.4988960000000 1.0
C      1  0.4525590000000  0.5941460000000  0.4987000000000 1.0
C      1  0.5550530000000  0.4821080000000  0.5236960000000 1.0
C      1  0.4441750000000  0.5212270000000  0.4793780000000 1.0
C      1  0.5271050000000  0.5406230000000  0.4708510000000 1.0
C      1  0.4690440000000  0.4524200000000  0.5264390000000 1.0
C      1  0.5094630000000  0.5217410000000  0.5661870000000 1.0
C      1  0.4894350000000  0.4790900000000  0.4423550000000 1.0
C      1  0.5222190000000  0.5070540000000  0.4735750000000 1.0
C      1  0.4819740000000  0.5000920000000  0.5279390000000 1.0
C      1  0.5547570000000  0.4308050000000  0.5385640000000 1.0
C      1  0.4460610000000  0.5694150000000  0.4566770000000 1.0
C      1  0.5384990000000  0.4457580000000  0.4381660000000 1.0
C      1  0.4615760000000  0.5555910000000  0.5650820000000 1.0
C      1  0.5095040000000  0.4811270000000  0.4154300000000 1.0
C      1  0.4899570000000  0.5187340000000  0.5938730000000 1.0
C      1  0.4228950000000  0.5150730000000  0.5566440000000 1.0
C      1  0.5795130000000  0.4817510000000  0.4464400000000 1.0
C      1  0.5139310000000  0.5583800000000  0.4128080000000 1.0
C      1  0.4836160000000  0.4235510000000  0.5823340000000 1.0
C      1  0.5286080000000  0.5861110000000  0.4899200000000 1.0
C      1  0.4755110000000  0.4132500000000  0.5069870000000 1.0
C      1  0.5722900000000  0.5547870000000  0.4634780000000 1.0
C      1  0.4136290000000  0.4574700000000  0.5346620000000 1.0
C      1  0.4582510000000  0.4973590000000  0.5512130000000 1.0
C      1  0.5473090000000  0.5050820000000  0.4507060000000 1.0
C      1  0.5634780000000  0.4689200000000  0.5538810000000 1.0
C      1  0.4351030000000  0.5289000000000  0.4484150000000 1.0
C      1  0.4740320000000  0.4487690000000  0.4432410000000 1.0
C      1  0.5250220000000  0.5517910000000  0.5628450000000 1.0
C      1  0.4873520000000  0.5391260000000  0.4409670000000 1.0
C      1  0.5085960000000  0.4566250000000  0.5542630000000 1.0
C      1  0.5614420000000  0.5831410000000  0.4816010000000 1.0
C      1  0.4479150000000  0.4189680000000  0.5217240000000 1.0
C      1  0.5729840000000  0.5239910000000  0.4625290000000 1.0
C      1  0.4369030000000  0.4809890000000  0.5359330000000 1.0
C      1  0.4661590000000  0.5517010000000  0.5133480000000 1.0
C      1  0.5331710000000  0.4499170000000  0.4901430000000 1.0
C      1  0.5001330000000  0.5645400000000  0.4497630000000 1.0
C      1  0.4995080000000  0.4277240000000  0.5461330000000 1.0
C      1  0.5400510000000  0.4494390000000  0.5627020000000 1.0
C      1  0.4567070000000  0.5458010000000  0.4347220000000 1.0
C      1  0.4631090000000  0.4411200000000  0.4745250000000 1.0
C      1  0.5369140000000  0.5516120000000  0.5309780000000 1.0
C      1  0.5871280000000  0.4876850000000  0.5590510000000 1.0
C      1  0.4110710000000  0.5116360000000  0.4405870000000 1.0
C      1  0.5996730000000  0.5119560000000  0.4791430000000 1.0
C      1  0.3998840000000  0.4858330000000  0.5218950000000 1.0
C      1  0.4588190000000  0.5039630000000  0.4067380000000 1.0
C      1  0.5306660000000  0.4979850000000  0.5785660000000 1.0
C      1  0.5304200000000  0.4134410000000  0.5478750000000 1.0
C      1  0.4631540000000  0.5950580000000  0.4498800000000 1.0
C      1  0.4966790000000  0.4279300000000  0.4577180000000 1.0
C      1  0.5047410000000  0.5713790000000  0.5438310000000 1.0
C      1  0.5889310000000  0.5098450000000  0.5329340000000 1.0
C      1  0.4119950000000  0.4913140000000  0.4684460000000 1.0
C      1  0.5430830000000  0.5675580000000  0.4575900000000 1.0
C      1  0.4421160000000  0.4421270000000  0.5444850000000 1.0
C      1  0.5698180000000  0.4235690000000  0.5114060000000 1.0
C      1  0.4309100000000  0.5737530000000  0.4871400000000 1.0
C      1  0.5046460000000  0.5628690000000  0.4834230000000 1.0
C      1  0.4957600000000  0.4410870000000  0.5087050000000 1.0
C      1  0.5752730000000  0.5607870000000  0.5249030000000 1.0
C      1  0.4256700000000  0.4282300000000  0.4794310000000 1.0
C      1  0.5230140000000  0.5875810000000  0.5205420000000 1.0
C      1  0.4803300000000  0.4052940000000  0.4759920000000 1.0
C      1  0.4285600000000  0.4435430000000  0.5074670000000 1.0
C      1  0.5784880000000  0.5576850000000  0.4947830000000 1.0
C      1  0.4704410000000  0.4681960000000  0.5533630000000 1.0
C      1  0.5270830000000  0.5373110000000  0.4369990000000 1.0
C      1  0.4824460000000  0.5844990000000  0.4974230000000 1.0
C      1  0.5136910000000  0.4154590000000  0.4953440000000 1.0
C      1  0.5882590000000  0.4797470000000  0.5180150000000 1.0
C      1  0.4121140000000  0.5198960000000  0.4863120000000 1.0
C      1  0.5554150000000  0.4283070000000  0.4605510000000 1.0
C      1  0.4449060000000  0.5731250000000  0.5420980000000 1.0
C      1  0.5354140000000  0.5002890000000  0.5446750000000 1.0
C      1  0.4629160000000  0.4998460000000  0.4638190000000 1.0
C      1  0.4407950000000  0.5257850000000  0.5300490000000 1.0
C      1  0.5605070000000  0.4755880000000  0.4739530000000 1.0
C      1  0.5026360000000  0.5041830000000  0.5012440000000 1.0
END
