TITL C-3289329-2751-127 -0.00592272004253977 125000 -578.837976909419 0 0 106 (C1) n - 1
REM
REM in /nfs/bkarasulu/CARBON/AIRSS/Generating-Clusters/AIREBO/with-SteepDescent/Higher-Symm/SD-CG/HFTN-CG
REM
REM
REM
REM
REM
REM ./C.cell (b20cbc046b6831c77cfcea5457e17084)
REM
REM compiler GCC version 9.2.1 20190827 (Red Hat 9.2.1-1)
REM options -cpp -mtune=generic -march=x86-64 -g -O0 -fpre-include=/usr/include/finclude/math-vector-fortran.h
REM seed -828736221 -893953117 146652343 1727505408 -849615670 -1264022138 -438508822 -288004343 2110742535 1875828222 -248979320 225801334 1694660419 -924458294 -374133451 -1555677958 946143275 846597780 -1863076135 278557088 -1614154491 87984064 -1036825299 1618480926 1899626510 -701513800 1511866004 -1352157022 1009714221 904358327 -1822918072 -1439024263 400655391
REM
CELL 1.54180   50.00000   50.00000   50.00000   90.00000   90.00000   90.00000
LATT -1
SFAC C  
C      1  0.4802750000000  0.4792010000000  0.4319080000000 1.0
C      1  0.5185310000000  0.5354400000000  0.4289860000000 1.0
C      1  0.5390650000000  0.4988610000000  0.5800010000000 1.0
C      1  0.4535090000000  0.5033990000000  0.5762050000000 1.0
C      1  0.5186940000000  0.4756650000000  0.4427940000000 1.0
C      1  0.4798720000000  0.5093170000000  0.4455080000000 1.0
C      1  0.5288810000000  0.4445990000000  0.4815030000000 1.0
C      1  0.4727970000000  0.5533140000000  0.4852020000000 1.0
C      1  0.4556950000000  0.5275500000000  0.5880880000000 1.0
C      1  0.5191270000000  0.4812650000000  0.5869990000000 1.0
C      1  0.4932530000000  0.4518520000000  0.4181740000000 1.0
C      1  0.5055100000000  0.5609730000000  0.4378160000000 1.0
C      1  0.5690150000000  0.5166650000000  0.4623590000000 1.0
C      1  0.4268110000000  0.4854090000000  0.4530670000000 1.0
C      1  0.5737710000000  0.4681530000000  0.4833400000000 1.0
C      1  0.4300620000000  0.5326060000000  0.4795760000000 1.0
C      1  0.5660050000000  0.4789660000000  0.4259320000000 1.0
C      1  0.4420190000000  0.5277700000000  0.4213220000000 1.0
C      1  0.4137980000000  0.4738450000000  0.4748390000000 1.0
C      1  0.5759880000000  0.5342850000000  0.4829560000000 1.0
C      1  0.5627290000000  0.4662770000000  0.5366720000000 1.0
C      1  0.4350970000000  0.5248890000000  0.5356430000000 1.0
C      1  0.5394180000000  0.4521240000000  0.5571370000000 1.0
C      1  0.4634070000000  0.5495080000000  0.5665780000000 1.0
C      1  0.4615600000000  0.4855670000000  0.4728470000000 1.0
C      1  0.5365010000000  0.5065030000000  0.4829600000000 1.0
C      1  0.4557620000000  0.5722350000000  0.5184170000000 1.0
C      1  0.5397680000000  0.4228760000000  0.5132620000000 1.0
C      1  0.4957150000000  0.5782240000000  0.5468780000000 1.0
C      1  0.5097460000000  0.4124590000000  0.5506690000000 1.0
C      1  0.5563450000000  0.4259360000000  0.4855190000000 1.0
C      1  0.4453270000000  0.5768310000000  0.4890380000000 1.0
C      1  0.5551600000000  0.4761340000000  0.5064460000000 1.0
C      1  0.4471960000000  0.5218490000000  0.5069680000000 1.0
C      1  0.4902630000000  0.5346760000000  0.4644140000000 1.0
C      1  0.5020270000000  0.4572510000000  0.4649250000000 1.0
C      1  0.4706200000000  0.5827910000000  0.4682400000000 1.0
C      1  0.5164660000000  0.4203350000000  0.4611770000000 1.0
C      1  0.4458260000000  0.4576330000000  0.5739000000000 1.0
C      1  0.5589330000000  0.5418820000000  0.5734250000000 1.0
C      1  0.5416420000000  0.5140260000000  0.5159960000000 1.0
C      1  0.4685400000000  0.4927470000000  0.5241770000000 1.0
C      1  0.4443970000000  0.4596390000000  0.5269110000000 1.0
C      1  0.5648110000000  0.5485080000000  0.5346600000000 1.0
C      1  0.5072430000000  0.4888330000000  0.4135670000000 1.0
C      1  0.4996580000000  0.5186510000000  0.4123010000000 1.0
C      1  0.4919840000000  0.4780190000000  0.5090450000000 1.0
C      1  0.5126290000000  0.5284410000000  0.5056370000000 1.0
C      1  0.4469780000000  0.4898500000000  0.5009480000000 1.0
C      1  0.5694970000000  0.4984410000000  0.5277410000000 1.0
C      1  0.4318640000000  0.4595970000000  0.4975210000000 1.0
C      1  0.5527710000000  0.5437220000000  0.5036480000000 1.0
C      1  0.5351910000000  0.5600140000000  0.5353430000000 1.0
C      1  0.4699500000000  0.4468590000000  0.5257970000000 1.0
C      1  0.5330410000000  0.5135830000000  0.5499380000000 1.0
C      1  0.4770880000000  0.4908640000000  0.5570770000000 1.0
C      1  0.4828280000000  0.5243530000000  0.5589600000000 1.0
C      1  0.5269410000000  0.4802440000000  0.5471560000000 1.0
C      1  0.5000580000000  0.4557440000000  0.5308380000000 1.0
C      1  0.5032820000000  0.5517120000000  0.5269540000000 1.0
C      1  0.4437470000000  0.5523190000000  0.5432810000000 1.0
C      1  0.5585500000000  0.4334390000000  0.5371980000000 1.0
C      1  0.4793450000000  0.4324110000000  0.4698740000000 1.0
C      1  0.5219680000000  0.5811800000000  0.4560810000000 1.0
C      1  0.5461770000000  0.5712610000000  0.4779580000000 1.0
C      1  0.4487290000000  0.4349880000000  0.4850860000000 1.0
C      1  0.4278360000000  0.5170630000000  0.4491320000000 1.0
C      1  0.5713200000000  0.4860010000000  0.4572500000000 1.0
C      1  0.4348530000000  0.5007980000000  0.5525970000000 1.0
C      1  0.5672120000000  0.5034190000000  0.5774870000000 1.0
C      1  0.5115080000000  0.5355250000000  0.5557110000000 1.0
C      1  0.4999630000000  0.4664250000000  0.5631340000000 1.0
C      1  0.4934420000000  0.5128980000000  0.5284430000000 1.0
C      1  0.5171860000000  0.4917510000000  0.5207260000000 1.0
C      1  0.4959180000000  0.4045890000000  0.4756030000000 1.0
C      1  0.4994850000000  0.5925080000000  0.4748770000000 1.0
C      1  0.4340320000000  0.4705730000000  0.5510320000000 1.0
C      1  0.5731350000000  0.5219810000000  0.5497470000000 1.0
C      1  0.5784480000000  0.4412780000000  0.4817060000000 1.0
C      1  0.4233790000000  0.5602470000000  0.4811470000000 1.0
C      1  0.4525090000000  0.4398730000000  0.4523870000000 1.0
C      1  0.5450490000000  0.5571680000000  0.4492480000000 1.0
C      1  0.4415580000000  0.4216450000000  0.4312420000000 1.0
C      1  0.5503690000000  0.5425360000000  0.4193880000000 1.0
C      1  0.4903170000000  0.4822490000000  0.4799860000000 1.0
C      1  0.5039940000000  0.5100650000000  0.4783640000000 1.0
C      1  0.4535420000000  0.4694380000000  0.4464200000000 1.0
C      1  0.5390570000000  0.5248320000000  0.4542010000000 1.0
C      1  0.4718860000000  0.5435920000000  0.5164720000000 1.0
C      1  0.5296090000000  0.4545780000000  0.5140100000000 1.0
C      1  0.4726790000000  0.4531430000000  0.5784880000000 1.0
C      1  0.5344820000000  0.5474890000000  0.5739530000000 1.0
C      1  0.5311430000000  0.5700370000000  0.5050160000000 1.0
C      1  0.4692210000000  0.4256970000000  0.5079450000000 1.0
C      1  0.5137360000000  0.4353660000000  0.5646530000000 1.0
C      1  0.4814520000000  0.5738540000000  0.5692480000000 1.0
C      1  0.4688430000000  0.5225370000000  0.4180500000000 1.0
C      1  0.5397460000000  0.4828380000000  0.4197500000000 1.0
C      1  0.4851930000000  0.5867700000000  0.5209100000000 1.0
C      1  0.5135020000000  0.4089900000000  0.5225110000000 1.0
C      1  0.4915180000000  0.4091860000000  0.5043720000000 1.0
C      1  0.5056780000000  0.5875890000000  0.5018470000000 1.0
C      1  0.5063850000000  0.4372320000000  0.4375330000000 1.0
C      1  0.4763210000000  0.5599050000000  0.4463830000000 1.0
C      1  0.4554070000000  0.5155790000000  0.4668260000000 1.0
C      1  0.5396380000000  0.4781940000000  0.4668250000000 1.0
END
