TITL C-3289326-3776-551 0.0024709359305146 125000 -1001.7869388455 0 0 184 (C1) n - 1
REM
REM in /nfs/bkarasulu/CARBON/AIRSS/Generating-Clusters/AIREBO/with-SteepDescent/Higher-Symm/SD-CG/HFTN-CG
REM
REM
REM
REM
REM
REM ./C.cell (b20cbc046b6831c77cfcea5457e17084)
REM
REM compiler GCC version 9.2.1 20190827 (Red Hat 9.2.1-1)
REM options -cpp -mtune=generic -march=x86-64 -g -O0 -fpre-include=/usr/include/finclude/math-vector-fortran.h
REM seed -1648335206 -168489622 148031412 1216304361 -1925838335 1717930926 -2028642911 13829871 1659070228 1749912462 56734842 1071341639 873088591 -1516663602 1941280724 -1786853474 475779443 819535418 -663594552 165844317 520287803 1633567509 -1587929633 -1630116224 1865501287 -455602234 -1675996018 310200402 166206260 1850041322 -1973064159 78022936 419974930
REM
CELL 1.54180   50.00000   50.00000   50.00000   90.00000   90.00000   90.00000
LATT -1
SFAC C  
C      1  0.4431360000000  0.4974660000000  0.5835560000000 1.0
C      1  0.5401380000000  0.5296080000000  0.4100160000000 1.0
C      1  0.4674960000000  0.4722400000000  0.4165720000000 1.0
C      1  0.5490730000000  0.4859050000000  0.5928280000000 1.0
C      1  0.5716530000000  0.5758740000000  0.5284110000000 1.0
C      1  0.4326130000000  0.5639870000000  0.4705630000000 1.0
C      1  0.5632720000000  0.4397480000000  0.4595620000000 1.0
C      1  0.4310340000000  0.4277980000000  0.5280880000000 1.0
C      1  0.4208900000000  0.5644170000000  0.5424800000000 1.0
C      1  0.5632990000000  0.5680680000000  0.4568640000000 1.0
C      1  0.4392280000000  0.4352720000000  0.4581550000000 1.0
C      1  0.5699980000000  0.4390950000000  0.5471770000000 1.0
C      1  0.4720030000000  0.4160660000000  0.5656450000000 1.0
C      1  0.5343790000000  0.3970600000000  0.4282970000000 1.0
C      1  0.4565260000000  0.5948640000000  0.4339510000000 1.0
C      1  0.5258560000000  0.5879540000000  0.5660040000000 1.0
C      1  0.4990760000000  0.5848850000000  0.5121160000000 1.0
C      1  0.5035040000000  0.5888390000000  0.4783050000000 1.0
C      1  0.4960000000000  0.4091600000000  0.4865680000000 1.0
C      1  0.5017980000000  0.4023840000000  0.5170280000000 1.0
C      1  0.4203470000000  0.5812210000000  0.4945600000000 1.0
C      1  0.5844120000000  0.5863810000000  0.4999750000000 1.0
C      1  0.4201240000000  0.4146210000000  0.5009420000000 1.0
C      1  0.5771430000000  0.4236930000000  0.4861600000000 1.0
C      1  0.4754710000000  0.5571700000000  0.4961660000000 1.0
C      1  0.5323580000000  0.5459490000000  0.4963900000000 1.0
C      1  0.4701850000000  0.4408060000000  0.5001340000000 1.0
C      1  0.5254070000000  0.4309310000000  0.5021460000000 1.0
C      1  0.4707730000000  0.5714390000000  0.5576750000000 1.0
C      1  0.5119330000000  0.5746530000000  0.4520810000000 1.0
C      1  0.4847910000000  0.4210900000000  0.4567590000000 1.0
C      1  0.5236010000000  0.4293490000000  0.5564180000000 1.0
C      1  0.6132110000000  0.5029390000000  0.4663570000000 1.0
C      1  0.3935310000000  0.5196790000000  0.5337570000000 1.0
C      1  0.6021230000000  0.4820160000000  0.5321340000000 1.0
C      1  0.3960520000000  0.5035390000000  0.4816360000000 1.0
C      1  0.5351700000000  0.4072450000000  0.4812170000000 1.0
C      1  0.4600630000000  0.4031050000000  0.5081610000000 1.0
C      1  0.5459370000000  0.5957530000000  0.5052770000000 1.0
C      1  0.4716210000000  0.5884760000000  0.4834290000000 1.0
C      1  0.4506120000000  0.5422270000000  0.4865760000000 1.0
C      1  0.5610970000000  0.5499810000000  0.5141580000000 1.0
C      1  0.4472350000000  0.4522820000000  0.5150760000000 1.0
C      1  0.5403940000000  0.4569030000000  0.4962080000000 1.0
C      1  0.4790800000000  0.5293750000000  0.4268220000000 1.0
C      1  0.5164380000000  0.5466230000000  0.5758150000000 1.0
C      1  0.4701980000000  0.4539930000000  0.5777220000000 1.0
C      1  0.5254010000000  0.4717100000000  0.4185500000000 1.0
C      1  0.4579180000000  0.4190600000000  0.4356190000000 1.0
C      1  0.5501340000000  0.4306200000000  0.5704260000000 1.0
C      1  0.4405400000000  0.5805740000000  0.5622560000000 1.0
C      1  0.5410070000000  0.5786470000000  0.4373970000000 1.0
C      1  0.5881590000000  0.5710210000000  0.4772900000000 1.0
C      1  0.4071900000000  0.5760840000000  0.5179720000000 1.0
C      1  0.5776050000000  0.4233270000000  0.5175790000000 1.0
C      1  0.4153970000000  0.4318290000000  0.4797140000000 1.0
C      1  0.4925160000000  0.5563130000000  0.4138520000000 1.0
C      1  0.4913180000000  0.5622900000000  0.5905360000000 1.0
C      1  0.4981880000000  0.4475360000000  0.5926700000000 1.0
C      1  0.5100420000000  0.4418780000000  0.4130180000000 1.0
C      1  0.4810660000000  0.6204450000000  0.4867470000000 1.0
C      1  0.5288480000000  0.6202630000000  0.5215030000000 1.0
C      1  0.4721840000000  0.3718090000000  0.5136070000000 1.0
C      1  0.5233600000000  0.3807310000000  0.4812870000000 1.0
C      1  0.4496060000000  0.5419270000000  0.4154130000000 1.0
C      1  0.5396710000000  0.5700920000000  0.5839750000000 1.0
C      1  0.4513570000000  0.4264840000000  0.5844020000000 1.0
C      1  0.5533800000000  0.4618560000000  0.4046290000000 1.0
C      1  0.4589470000000  0.4203710000000  0.4788580000000 1.0
C      1  0.5272740000000  0.4154380000000  0.5313330000000 1.0
C      1  0.4712930000000  0.5707810000000  0.5257390000000 1.0
C      1  0.5490450000000  0.5732540000000  0.4848710000000 1.0
C      1  0.4151720000000  0.5538450000000  0.4470480000000 1.0
C      1  0.5886920000000  0.5654830000000  0.5524720000000 1.0
C      1  0.4117100000000  0.4364750000000  0.5501830000000 1.0
C      1  0.5834630000000  0.4447750000000  0.4365490000000 1.0
C      1  0.5220900000000  0.5554250000000  0.5433710000000 1.0
C      1  0.4791820000000  0.5414120000000  0.4586300000000 1.0
C      1  0.5192430000000  0.4609710000000  0.4502270000000 1.0
C      1  0.4800380000000  0.4498200000000  0.5451390000000 1.0
C      1  0.4073200000000  0.4608150000000  0.5610840000000 1.0
C      1  0.5770940000000  0.4659630000000  0.4190140000000 1.0
C      1  0.4257670000000  0.5348680000000  0.4287840000000 1.0
C      1  0.5858750000000  0.5424580000000  0.5668600000000 1.0
C      1  0.5440350000000  0.5117960000000  0.6069790000000 1.0
C      1  0.4693400000000  0.5044340000000  0.4057610000000 1.0
C      1  0.5284230000000  0.5019280000000  0.4032490000000 1.0
C      1  0.4616650000000  0.4781370000000  0.5951800000000 1.0
C      1  0.4041820000000  0.4565990000000  0.4894010000000 1.0
C      1  0.5840600000000  0.4523420000000  0.5125840000000 1.0
C      1  0.3809820000000  0.5656480000000  0.5157380000000 1.0
C      1  0.5981190000000  0.5454280000000  0.4828910000000 1.0
C      1  0.4946410000000  0.3816780000000  0.4679740000000 1.0
C      1  0.5000690000000  0.3719820000000  0.5216770000000 1.0
C      1  0.5021650000000  0.6123720000000  0.5255980000000 1.0
C      1  0.5105940000000  0.6203890000000  0.4758840000000 1.0
C      1  0.5481300000000  0.4463460000000  0.5930970000000 1.0
C      1  0.4514470000000  0.4240140000000  0.4099890000000 1.0
C      1  0.5420860000000  0.5693970000000  0.4111110000000 1.0
C      1  0.4481680000000  0.5287020000000  0.5883270000000 1.0
C      1  0.5322140000000  0.5027130000000  0.5458100000000 1.0
C      1  0.4775490000000  0.4979510000000  0.4511840000000 1.0
C      1  0.5279000000000  0.4927160000000  0.4523070000000 1.0
C      1  0.4803670000000  0.5023460000000  0.5443160000000 1.0
C      1  0.4192920000000  0.4831010000000  0.5668190000000 1.0
C      1  0.5823520000000  0.4913260000000  0.4275330000000 1.0
C      1  0.4239810000000  0.5086110000000  0.4365340000000 1.0
C      1  0.5769400000000  0.5171030000000  0.5647680000000 1.0
C      1  0.4621790000000  0.4760310000000  0.5327880000000 1.0
C      1  0.5492480000000  0.4701370000000  0.4661650000000 1.0
C      1  0.4578140000000  0.5183170000000  0.4674010000000 1.0
C      1  0.5417790000000  0.5327640000000  0.5368760000000 1.0
C      1  0.5340840000000  0.6243450000000  0.4908940000000 1.0
C      1  0.4813150000000  0.6290170000000  0.5144270000000 1.0
C      1  0.5218510000000  0.3634200000000  0.5044550000000 1.0
C      1  0.4686000000000  0.3803970000000  0.4835690000000 1.0
C      1  0.5675720000000  0.4960940000000  0.5117930000000 1.0
C      1  0.4427800000000  0.4967230000000  0.4889530000000 1.0
C      1  0.5619340000000  0.4992630000000  0.4784080000000 1.0
C      1  0.4383550000000  0.4981240000000  0.5226790000000 1.0
C      1  0.4848930000000  0.4920390000000  0.4802980000000 1.0
C      1  0.5117130000000  0.4940490000000  0.5210790000000 1.0
C      1  0.4937260000000  0.5216420000000  0.5203990000000 1.0
C      1  0.5103630000000  0.5063760000000  0.4740640000000 1.0
C      1  0.4965560000000  0.5208220000000  0.5659410000000 1.0
C      1  0.5092150000000  0.5160640000000  0.4352930000000 1.0
C      1  0.4961800000000  0.4856100000000  0.4290120000000 1.0
C      1  0.5116620000000  0.4904230000000  0.5690860000000 1.0
C      1  0.4979470000000  0.5850730000000  0.5698720000000 1.0
C      1  0.4865320000000  0.5781760000000  0.4343150000000 1.0
C      1  0.5114380000000  0.4211870000000  0.4354980000000 1.0
C      1  0.4978050000000  0.4240150000000  0.5734470000000 1.0
C      1  0.5585180000000  0.4889800000000  0.5624210000000 1.0
C      1  0.4380170000000  0.4853720000000  0.4572390000000 1.0
C      1  0.5675450000000  0.5138910000000  0.4482140000000 1.0
C      1  0.4336490000000  0.5109650000000  0.5538160000000 1.0
C      1  0.4954900000000  0.4353690000000  0.5184730000000 1.0
C      1  0.4885990000000  0.4620780000000  0.4867970000000 1.0
C      1  0.5101560000000  0.5366590000000  0.4721640000000 1.0
C      1  0.5042280000000  0.5513720000000  0.5147220000000 1.0
C      1  0.6010120000000  0.5112820000000  0.4423660000000 1.0
C      1  0.4134700000000  0.5332940000000  0.5491870000000 1.0
C      1  0.5838970000000  0.4701280000000  0.5498910000000 1.0
C      1  0.4059430000000  0.4960650000000  0.4574630000000 1.0
C      1  0.4488780000000  0.4498830000000  0.4005580000000 1.0
C      1  0.5674920000000  0.4620530000000  0.6090060000000 1.0
C      1  0.4235770000000  0.5403400000000  0.6033860000000 1.0
C      1  0.5653560000000  0.5512140000000  0.4023090000000 1.0
C      1  0.5313650000000  0.4937780000000  0.4927620000000 1.0
C      1  0.4904520000000  0.4745500000000  0.5155970000000 1.0
C      1  0.5421550000000  0.5162440000000  0.5097540000000 1.0
C      1  0.4718110000000  0.5074650000000  0.5030450000000 1.0
C      1  0.5114460000000  0.4608380000000  0.5522030000000 1.0
C      1  0.4878590000000  0.4546320000000  0.4567530000000 1.0
C      1  0.5231000000000  0.5436400000000  0.4436670000000 1.0
C      1  0.4672380000000  0.5378020000000  0.5623420000000 1.0
C      1  0.3813470000000  0.5376660000000  0.5129500000000 1.0
C      1  0.6121910000000  0.5199670000000  0.4912560000000 1.0
C      1  0.3928660000000  0.4820990000000  0.5000950000000 1.0
C      1  0.6033920000000  0.4700880000000  0.5011970000000 1.0
C      1  0.4626750000000  0.5711250000000  0.4575100000000 1.0
C      1  0.5395740000000  0.5837820000000  0.5364720000000 1.0
C      1  0.4624270000000  0.4220880000000  0.5362800000000 1.0
C      1  0.5401440000000  0.4190180000000  0.4536080000000 1.0
C      1  0.4840090000000  0.5039150000000  0.3820820000000 1.0
C      1  0.5294330000000  0.5306960000000  0.6016020000000 1.0
C      1  0.4671050000000  0.4781110000000  0.6208440000000 1.0
C      1  0.5070150000000  0.4865610000000  0.3862890000000 1.0
C      1  0.5449870000000  0.4621360000000  0.5465130000000 1.0
C      1  0.4561440000000  0.4627610000000  0.4472450000000 1.0
C      1  0.5540400000000  0.5401390000000  0.4392380000000 1.0
C      1  0.4482730000000  0.5473370000000  0.5354620000000 1.0
C      1  0.4715690000000  0.5480240000000  0.6007040000000 1.0
C      1  0.5175110000000  0.5539140000000  0.4027120000000 1.0
C      1  0.4933430000000  0.4616800000000  0.3971510000000 1.0
C      1  0.5216870000000  0.4658840000000  0.5904500000000 1.0
C      1  0.4036020000000  0.5269820000000  0.4958100000000 1.0
C      1  0.5995010000000  0.5076390000000  0.5138490000000 1.0
C      1  0.4046010000000  0.4941190000000  0.5239590000000 1.0
C      1  0.5933010000000  0.4862660000000  0.4806210000000 1.0
C      1  0.5587780000000  0.4673920000000  0.5181610000000 1.0
C      1  0.4301000000000  0.4679870000000  0.4970770000000 1.0
C      1  0.5734610000000  0.5290990000000  0.4900350000000 1.0
C      1  0.4340590000000  0.5296820000000  0.5107290000000 1.0
END
