TITL C-3289328-6581-644 -29.8258642386078 125000 -868.093243314971 0 0 163 (C1) n - 1
REM
REM in /nfs/bkarasulu/CARBON/AIRSS/Generating-Clusters/AIREBO/with-SteepDescent/Higher-Symm/SD-CG/HFTN-CG
REM
REM
REM
REM
REM
REM ./C.cell (b20cbc046b6831c77cfcea5457e17084)
REM
REM compiler GCC version 9.2.1 20190827 (Red Hat 9.2.1-1)
REM options -cpp -mtune=generic -march=x86-64 -g -O0 -fpre-include=/usr/include/finclude/math-vector-fortran.h
REM seed 1773073930 -1220446970 -1107221943 1899813238 -1123203451 -377260552 1279408216 685073773 357390425 -1132674407 1949152344 314192694 897699728 -1397725988 -2127181368 -1734219160 636404564 -1812258837 1858961771 -482894233 -1339784928 -852784742 546701204 931177388 1846942639 -927487204 -726514883 1396760804 1115773574 -1698132277 -1591894159 1377954380 2082840434
REM
CELL 1.54180   50.00000   50.00000   50.00000   90.00000   90.00000   90.00000
LATT -1
SFAC C  
C      1  0.4189800000000  0.5453810000000  0.4361680000000 1.0
C      1  0.4100200000000  0.4836990000000  0.4248230000000 1.0
C      1  0.4265230000000  0.4096770000000  0.4558620000000 1.0
C      1  0.4288830000000  0.4320400000000  0.5338650000000 1.0
C      1  0.4211600000000  0.4755780000000  0.5811830000000 1.0
C      1  0.4211120000000  0.5575720000000  0.5694350000000 1.0
C      1  0.4260330000000  0.5907060000000  0.5196270000000 1.0
C      1  0.5153720000000  0.5554470000000  0.5329960000000 1.0
C      1  0.5181980000000  0.5549560000000  0.4636910000000 1.0
C      1  0.5101430000000  0.5213440000000  0.4368410000000 1.0
C      1  0.5162070000000  0.4565910000000  0.4466260000000 1.0
C      1  0.5202480000000  0.4329070000000  0.4883450000000 1.0
C      1  0.5141360000000  0.4612510000000  0.5523470000000 1.0
C      1  0.5136470000000  0.5165570000000  0.5622150000000 1.0
C      1  0.5662680000000  0.5119980000000  0.5588790000000 1.0
C      1  0.5808470000000  0.5615220000000  0.5280720000000 1.0
C      1  0.5867610000000  0.5500060000000  0.4682300000000 1.0
C      1  0.5879360000000  0.5062250000000  0.4434500000000 1.0
C      1  0.5920700000000  0.4553420000000  0.4558750000000 1.0
C      1  0.5713850000000  0.4416960000000  0.4998280000000 1.0
C      1  0.5775670000000  0.4618470000000  0.5493090000000 1.0
C      1  0.4403230000000  0.5018350000000  0.5799610000000 1.0
C      1  0.4506300000000  0.5729100000000  0.5614740000000 1.0
C      1  0.4498200000000  0.5903440000000  0.4715590000000 1.0
C      1  0.4448200000000  0.5385180000000  0.4143940000000 1.0
C      1  0.4340530000000  0.4613760000000  0.4243170000000 1.0
C      1  0.4536850000000  0.4069160000000  0.4677460000000 1.0
C      1  0.4499960000000  0.4303630000000  0.5626050000000 1.0
C      1  0.4608570000000  0.5563100000000  0.5354080000000 1.0
C      1  0.4644210000000  0.5606830000000  0.4795480000000 1.0
C      1  0.4570520000000  0.5248340000000  0.4430160000000 1.0
C      1  0.4587620000000  0.4570780000000  0.4472850000000 1.0
C      1  0.4577330000000  0.4317390000000  0.4882450000000 1.0
C      1  0.4652410000000  0.4481970000000  0.5379940000000 1.0
C      1  0.4660820000000  0.5034240000000  0.5578150000000 1.0
C      1  0.4846430000000  0.4155080000000  0.4330250000000 1.0
C      1  0.4836370000000  0.4137810000000  0.5292270000000 1.0
C      1  0.4596240000000  0.4670100000000  0.5835980000000 1.0
C      1  0.4647260000000  0.5450460000000  0.5861030000000 1.0
C      1  0.4793890000000  0.5877390000000  0.5093180000000 1.0
C      1  0.4700360000000  0.5697150000000  0.4329690000000 1.0
C      1  0.4601400000000  0.4979070000000  0.4161020000000 1.0
C      1  0.4727800000000  0.4953530000000  0.5945390000000 1.0
C      1  0.4744430000000  0.5771040000000  0.5802600000000 1.0
C      1  0.4755710000000  0.5990600000000  0.4812310000000 1.0
C      1  0.4631130000000  0.5603030000000  0.4027150000000 1.0
C      1  0.4673400000000  0.4666240000000  0.4160660000000 1.0
C      1  0.4762440000000  0.3968780000000  0.4544230000000 1.0
C      1  0.4799030000000  0.4179310000000  0.5594360000000 1.0
C      1  0.5135960000000  0.4261440000000  0.5189450000000 1.0
C      1  0.4884130000000  0.4707340000000  0.5677180000000 1.0
C      1  0.4898220000000  0.5384740000000  0.5641180000000 1.0
C      1  0.5114880000000  0.5765510000000  0.5103060000000 1.0
C      1  0.4899400000000  0.5472800000000  0.4464040000000 1.0
C      1  0.5154370000000  0.4897920000000  0.4244400000000 1.0
C      1  0.4860720000000  0.4412850000000  0.4443370000000 1.0
C      1  0.5437040000000  0.4797350000000  0.4816210000000 1.0
C      1  0.5482710000000  0.4631770000000  0.5072200000000 1.0
C      1  0.5536080000000  0.4801360000000  0.5335580000000 1.0
C      1  0.5481470000000  0.5135300000000  0.5301200000000 1.0
C      1  0.5594500000000  0.5571880000000  0.5059850000000 1.0
C      1  0.5614470000000  0.5274040000000  0.4705870000000 1.0
C      1  0.5596020000000  0.4969270000000  0.4598020000000 1.0
C      1  0.5094680000000  0.4755850000000  0.5224850000000 1.0
C      1  0.5087740000000  0.5063080000000  0.5303890000000 1.0
C      1  0.5213810000000  0.5285960000000  0.5150030000000 1.0
C      1  0.5095630000000  0.5320220000000  0.4872650000000 1.0
C      1  0.5032680000000  0.5063930000000  0.4665950000000 1.0
C      1  0.5148250000000  0.4789270000000  0.4721430000000 1.0
C      1  0.5053470000000  0.4601320000000  0.4955700000000 1.0
C      1  0.5093690000000  0.3927830000000  0.5214530000000 1.0
C      1  0.4893820000000  0.4588290000000  0.5981470000000 1.0
C      1  0.4905970000000  0.5433090000000  0.6061980000000 1.0
C      1  0.5037780000000  0.6054900000000  0.5255150000000 1.0
C      1  0.4859130000000  0.5983120000000  0.4334800000000 1.0
C      1  0.4905440000000  0.5043400000000  0.4064180000000 1.0
C      1  0.5082630000000  0.4100540000000  0.4133480000000 1.0
C      1  0.5537910000000  0.4888450000000  0.5809070000000 1.0
C      1  0.5611670000000  0.5549190000000  0.5529160000000 1.0
C      1  0.5647090000000  0.5716030000000  0.4775300000000 1.0
C      1  0.5634320000000  0.5243350000000  0.4309470000000 1.0
C      1  0.5680100000000  0.4652450000000  0.4370490000000 1.0
C      1  0.5658260000000  0.4413790000000  0.4690650000000 1.0
C      1  0.5594480000000  0.4370930000000  0.5425020000000 1.0
C      1  0.5369110000000  0.5383930000000  0.5504190000000 1.0
C      1  0.5329480000000  0.5709100000000  0.4898450000000 1.0
C      1  0.5397310000000  0.5350170000000  0.4465190000000 1.0
C      1  0.5411310000000  0.4781640000000  0.4382460000000 1.0
C      1  0.5375570000000  0.4352990000000  0.4623550000000 1.0
C      1  0.5333970000000  0.4445200000000  0.5315160000000 1.0
C      1  0.5325570000000  0.4887500000000  0.5571640000000 1.0
C      1  0.5966230000000  0.5270480000000  0.4894480000000 1.0
C      1  0.5961780000000  0.5022980000000  0.4748590000000 1.0
C      1  0.5994010000000  0.4750530000000  0.4798040000000 1.0
C      1  0.5945060000000  0.4619100000000  0.5038380000000 1.0
C      1  0.5998300000000  0.4682430000000  0.5297920000000 1.0
C      1  0.5918460000000  0.5141980000000  0.5365770000000 1.0
C      1  0.5941730000000  0.5341360000000  0.5172560000000 1.0
C      1  0.3975500000000  0.5051180000000  0.4753820000000 1.0
C      1  0.3920260000000  0.4752410000000  0.4769290000000 1.0
C      1  0.3948380000000  0.4688380000000  0.5060480000000 1.0
C      1  0.3988300000000  0.4892150000000  0.5268560000000 1.0
C      1  0.3993010000000  0.5181540000000  0.5379360000000 1.0
C      1  0.4006930000000  0.5358370000000  0.5155070000000 1.0
C      1  0.3970250000000  0.5309130000000  0.4852080000000 1.0
C      1  0.6130500000000  0.4415310000000  0.4441320000000 1.0
C      1  0.5744500000000  0.4166320000000  0.5115950000000 1.0
C      1  0.5834400000000  0.4638100000000  0.5767450000000 1.0
C      1  0.5753330000000  0.5300670000000  0.5803660000000 1.0
C      1  0.5967890000000  0.5840960000000  0.5301360000000 1.0
C      1  0.6056460000000  0.5598040000000  0.4505540000000 1.0
C      1  0.6088490000000  0.5019960000000  0.4258240000000 1.0
C      1  0.4470840000000  0.5555640000000  0.4523890000000 1.0
C      1  0.4420040000000  0.4957970000000  0.4448030000000 1.0
C      1  0.4340850000000  0.4415930000000  0.4648230000000 1.0
C      1  0.4566530000000  0.4232960000000  0.5169500000000 1.0
C      1  0.4492480000000  0.4746650000000  0.5521310000000 1.0
C      1  0.4507970000000  0.5331480000000  0.5574550000000 1.0
C      1  0.4501580000000  0.5703660000000  0.5083720000000 1.0
C      1  0.4706290000000  0.5091460000000  0.4693030000000 1.0
C      1  0.4674330000000  0.4773060000000  0.4689480000000 1.0
C      1  0.4757300000000  0.4571420000000  0.4893200000000 1.0
C      1  0.4748210000000  0.4729100000000  0.5185610000000 1.0
C      1  0.4783810000000  0.5046570000000  0.5293700000000 1.0
C      1  0.4672840000000  0.5294670000000  0.5157090000000 1.0
C      1  0.4779460000000  0.5352370000000  0.4887940000000 1.0
C      1  0.4297640000000  0.4665690000000  0.4867590000000 1.0
C      1  0.4439120000000  0.4751350000000  0.5122180000000 1.0
C      1  0.4296790000000  0.4932130000000  0.5313990000000 1.0
C      1  0.4378060000000  0.5219170000000  0.5279580000000 1.0
C      1  0.4311060000000  0.5429020000000  0.5020280000000 1.0
C      1  0.4429430000000  0.5143330000000  0.4878940000000 1.0
C      1  0.4271390000000  0.4931680000000  0.4715520000000 1.0
C      1  0.4108880000000  0.4626150000000  0.4515020000000 1.0
C      1  0.4152160000000  0.4473480000000  0.5107570000000 1.0
C      1  0.4247820000000  0.4537840000000  0.5592180000000 1.0
C      1  0.4187980000000  0.5246270000000  0.5651960000000 1.0
C      1  0.4234160000000  0.5757210000000  0.5431120000000 1.0
C      1  0.4187670000000  0.5495420000000  0.4702620000000 1.0
C      1  0.4226660000000  0.5143220000000  0.4244800000000 1.0
C      1  0.5166360000000  0.5258610000000  0.5947820000000 1.0
C      1  0.5116910000000  0.5835020000000  0.5495600000000 1.0
C      1  0.5128040000000  0.5855900000000  0.4499480000000 1.0
C      1  0.5031760000000  0.5333750000000  0.4058110000000 1.0
C      1  0.5187160000000  0.4402840000000  0.4168890000000 1.0
C      1  0.5126040000000  0.4004290000000  0.4889380000000 1.0
C      1  0.5166900000000  0.4455610000000  0.5828380000000 1.0
C      1  0.4974120000000  0.4651070000000  0.4091020000000 1.0
C      1  0.5056580000000  0.3965880000000  0.4617710000000 1.0
C      1  0.5075240000000  0.4180420000000  0.5683760000000 1.0
C      1  0.5037790000000  0.4960840000000  0.5965240000000 1.0
C      1  0.5024610000000  0.5792650000000  0.5759420000000 1.0
C      1  0.5016560000000  0.6051470000000  0.4729230000000 1.0
C      1  0.4934920000000  0.5587360000000  0.4025600000000 1.0
C      1  0.5062910000000  0.5793750000000  0.4169030000000 1.0
C      1  0.5033270000000  0.4831180000000  0.3831290000000 1.0
C      1  0.5232370000000  0.4144210000000  0.4428600000000 1.0
C      1  0.5219440000000  0.4008140000000  0.5520600000000 1.0
C      1  0.5249720000000  0.4765460000000  0.5941440000000 1.0
C      1  0.5148660000000  0.5599450000000  0.5932950000000 1.0
C      1  0.5158960000000  0.6142310000000  0.4949400000000 1.0
C      1  0.6103390000000  0.4932670000000  0.5359310000000 1.0
C      1  0.5584700000000  0.5268360000000  0.5012160000000 1.0
END
