TITL C-3289331-6719-398 0.000614736520462558 125000 -572.042218722687 0 0 106 (C1) n - 1
REM
REM in /nfs/bkarasulu/CARBON/AIRSS/Generating-Clusters/AIREBO/with-SteepDescent/Higher-Symm/SD-CG/HFTN-CG
REM
REM
REM
REM
REM
REM ./C.cell (b20cbc046b6831c77cfcea5457e17084)
REM
REM compiler GCC version 9.2.1 20190827 (Red Hat 9.2.1-1)
REM options -cpp -mtune=generic -march=x86-64 -g -O0 -fpre-include=/usr/include/finclude/math-vector-fortran.h
REM seed 1171346045 1937921949 -358915932 1303991621 665104006 -1892593838 -2113463731 394000154 1090945032 -33546971 984512131 1443680866 -1593454583 -387539420 197316305 1855389990 -177190420 -821595109 58605554 -2100914129 -254951793 2036674882 144261179 507756327 379145199 1433247239 1724909648 -345674369 -972347250 3006479 388867996 -311557144 939128448
REM
CELL 1.54180   50.00000   50.00000   50.00000   90.00000   90.00000   90.00000
LATT -1
SFAC C  
C      1  0.4980520000000  0.5972500000000  0.5188670000000 1.0
C      1  0.4960140000000  0.4100270000000  0.5150150000000 1.0
C      1  0.5904340000000  0.5214350000000  0.4978690000000 1.0
C      1  0.5948180000000  0.4676180000000  0.4978790000000 1.0
C      1  0.5133810000000  0.4192520000000  0.4948880000000 1.0
C      1  0.5143070000000  0.5908030000000  0.4936370000000 1.0
C      1  0.5346550000000  0.5668770000000  0.4989630000000 1.0
C      1  0.5299260000000  0.4467980000000  0.5030530000000 1.0
C      1  0.5170700000000  0.4717870000000  0.5409620000000 1.0
C      1  0.5169430000000  0.5296800000000  0.5161650000000 1.0
C      1  0.5053570000000  0.4690700000000  0.5711880000000 1.0
C      1  0.5008520000000  0.5387580000000  0.5689230000000 1.0
C      1  0.5540210000000  0.5562440000000  0.4770620000000 1.0
C      1  0.5468410000000  0.4594310000000  0.4763530000000 1.0
C      1  0.4881200000000  0.5750820000000  0.5420880000000 1.0
C      1  0.4962320000000  0.4196450000000  0.5458860000000 1.0
C      1  0.4221860000000  0.5255140000000  0.5427300000000 1.0
C      1  0.4266230000000  0.4741250000000  0.5477420000000 1.0
C      1  0.4636670000000  0.4199200000000  0.5358120000000 1.0
C      1  0.4591050000000  0.5852200000000  0.5275050000000 1.0
C      1  0.4450050000000  0.5594460000000  0.5103860000000 1.0
C      1  0.4412060000000  0.4336180000000  0.5141470000000 1.0
C      1  0.5649910000000  0.4323370000000  0.4666790000000 1.0
C      1  0.5827230000000  0.5662470000000  0.4818750000000 1.0
C      1  0.4748110000000  0.5392990000000  0.4831250000000 1.0
C      1  0.4757620000000  0.4574010000000  0.4937770000000 1.0
C      1  0.5741640000000  0.5100370000000  0.5223520000000 1.0
C      1  0.5833230000000  0.4812230000000  0.5237580000000 1.0
C      1  0.4403170000000  0.5378840000000  0.5631360000000 1.0
C      1  0.4481900000000  0.4546020000000  0.5591940000000 1.0
C      1  0.5172330000000  0.5516360000000  0.4623080000000 1.0
C      1  0.5130900000000  0.4510700000000  0.4566140000000 1.0
C      1  0.4072110000000  0.4830090000000  0.5255170000000 1.0
C      1  0.4064980000000  0.5117240000000  0.5211510000000 1.0
C      1  0.4548140000000  0.5131620000000  0.5748340000000 1.0
C      1  0.4543870000000  0.4848120000000  0.5744690000000 1.0
C      1  0.5038750000000  0.4223290000000  0.4687720000000 1.0
C      1  0.4997020000000  0.5884070000000  0.4704660000000 1.0
C      1  0.4630990000000  0.5235300000000  0.5046490000000 1.0
C      1  0.4543310000000  0.4727760000000  0.5070920000000 1.0
C      1  0.4725770000000  0.4884910000000  0.4553460000000 1.0
C      1  0.4752870000000  0.5190160000000  0.4587180000000 1.0
C      1  0.5395300000000  0.4906470000000  0.4649800000000 1.0
C      1  0.5509170000000  0.5227650000000  0.4717300000000 1.0
C      1  0.4801780000000  0.4764880000000  0.5545440000000 1.0
C      1  0.4770110000000  0.5274220000000  0.5514710000000 1.0
C      1  0.4796160000000  0.5734500000000  0.5030650000000 1.0
C      1  0.4665260000000  0.4059300000000  0.5052570000000 1.0
C      1  0.5514800000000  0.4715910000000  0.4294760000000 1.0
C      1  0.5507440000000  0.5298090000000  0.4312440000000 1.0
C      1  0.5310530000000  0.4887960000000  0.4978860000000 1.0
C      1  0.5253820000000  0.5183630000000  0.4893640000000 1.0
C      1  0.4571230000000  0.5212840000000  0.4212560000000 1.0
C      1  0.4648510000000  0.4755350000000  0.4244850000000 1.0
C      1  0.4521440000000  0.4254160000000  0.4831080000000 1.0
C      1  0.4536110000000  0.5726650000000  0.4802660000000 1.0
C      1  0.5044480000000  0.5521050000000  0.4938310000000 1.0
C      1  0.5008010000000  0.4576520000000  0.5169300000000 1.0
C      1  0.4935860000000  0.4741930000000  0.4722190000000 1.0
C      1  0.5057870000000  0.5216870000000  0.4667250000000 1.0
C      1  0.4280340000000  0.5582970000000  0.4714870000000 1.0
C      1  0.4293560000000  0.4375670000000  0.4638870000000 1.0
C      1  0.5724510000000  0.5144800000000  0.4391300000000 1.0
C      1  0.5738710000000  0.4845170000000  0.4414550000000 1.0
C      1  0.4899800000000  0.5146250000000  0.5222110000000 1.0
C      1  0.4992170000000  0.4884420000000  0.5025790000000 1.0
C      1  0.5490190000000  0.5616160000000  0.5260860000000 1.0
C      1  0.5416370000000  0.4255470000000  0.5268890000000 1.0
C      1  0.4359170000000  0.5060400000000  0.4948850000000 1.0
C      1  0.4265010000000  0.4767950000000  0.4911280000000 1.0
C      1  0.5125130000000  0.4376290000000  0.5610650000000 1.0
C      1  0.5092610000000  0.5640770000000  0.5594520000000 1.0
C      1  0.4202570000000  0.4536580000000  0.5143260000000 1.0
C      1  0.4235290000000  0.5359360000000  0.5042970000000 1.0
C      1  0.5713610000000  0.5439040000000  0.5246000000000 1.0
C      1  0.5599080000000  0.4584390000000  0.5141390000000 1.0
C      1  0.4798110000000  0.5646370000000  0.4610000000000 1.0
C      1  0.4761050000000  0.4390650000000  0.4651450000000 1.0
C      1  0.4970610000000  0.4864200000000  0.4240470000000 1.0
C      1  0.4859620000000  0.5184000000000  0.4202240000000 1.0
C      1  0.4269530000000  0.5279170000000  0.4704860000000 1.0
C      1  0.4261400000000  0.4651910000000  0.4639510000000 1.0
C      1  0.5129390000000  0.4925060000000  0.5896660000000 1.0
C      1  0.5108260000000  0.5195540000000  0.5867370000000 1.0
C      1  0.5798890000000  0.5093600000000  0.4719280000000 1.0
C      1  0.5764600000000  0.4758360000000  0.4730180000000 1.0
C      1  0.4956220000000  0.5460990000000  0.4371800000000 1.0
C      1  0.4869820000000  0.4558850000000  0.4374080000000 1.0
C      1  0.5448040000000  0.5535660000000  0.4469790000000 1.0
C      1  0.5424880000000  0.4468320000000  0.4450670000000 1.0
C      1  0.5397390000000  0.4380800000000  0.5524530000000 1.0
C      1  0.5353140000000  0.5693850000000  0.5497320000000 1.0
C      1  0.4515870000000  0.5142850000000  0.5331080000000 1.0
C      1  0.4540090000000  0.4853820000000  0.5347180000000 1.0
C      1  0.5439510000000  0.4846390000000  0.5288140000000 1.0
C      1  0.5431510000000  0.5173300000000  0.5342550000000 1.0
C      1  0.5275300000000  0.4908410000000  0.4330640000000 1.0
C      1  0.5189040000000  0.5231980000000  0.4271470000000 1.0
C      1  0.5541350000000  0.4635810000000  0.5535090000000 1.0
C      1  0.5509990000000  0.5225730000000  0.5642150000000 1.0
C      1  0.4434710000000  0.5146540000000  0.4477090000000 1.0
C      1  0.4406510000000  0.4822490000000  0.4454550000000 1.0
C      1  0.5784990000000  0.4407920000000  0.4920670000000 1.0
C      1  0.5934340000000  0.5506850000000  0.5029610000000 1.0
C      1  0.4601380000000  0.5562890000000  0.5452750000000 1.0
C      1  0.4736510000000  0.4508090000000  0.5362750000000 1.0
END
