TITL C-3289330-4660-551 0.000796591393110565 125000 -646.538683820427 0 0 123 (C1) n - 1
REM
REM in /nfs/bkarasulu/CARBON/AIRSS/Generating-Clusters/AIREBO/with-SteepDescent/Higher-Symm/SD-CG/HFTN-CG
REM
REM
REM
REM
REM
REM ./C.cell (b20cbc046b6831c77cfcea5457e17084)
REM
REM compiler GCC version 9.2.1 20190827 (Red Hat 9.2.1-1)
REM options -cpp -mtune=generic -march=x86-64 -g -O0 -fpre-include=/usr/include/finclude/math-vector-fortran.h
REM seed 1540036781 -895535166 -1370798657 585353533 1047008304 -1885033534 -622409478 1551716393 375240966 555692575 1836627770 -34460505 945382450 -1781359175 -1618653056 1554773705 -1690424621 1489257331 2107143301 1280902265 1251090593 -1165895792 753736569 2077021819 -586417598 1849435354 -115886623 -1146255571 -749217254 1403393490 416278720 965424239 -199649599
REM
CELL 1.54180   50.00000   50.00000   50.00000   90.00000   90.00000   90.00000
LATT -1
SFAC C  
C      1  0.5097310000000  0.4929000000000  0.5923600000000 1.0
C      1  0.5046240000000  0.4930430000000  0.4207350000000 1.0
C      1  0.5006860000000  0.4837170000000  0.4496860000000 1.0
C      1  0.4994720000000  0.4902290000000  0.5628340000000 1.0
C      1  0.4914590000000  0.5700510000000  0.4597200000000 1.0
C      1  0.4932600000000  0.5771900000000  0.5454600000000 1.0
C      1  0.5770940000000  0.4298310000000  0.4907030000000 1.0
C      1  0.5764590000000  0.4443880000000  0.5216000000000 1.0
C      1  0.5477180000000  0.4218740000000  0.4754780000000 1.0
C      1  0.5518200000000  0.4273350000000  0.5376800000000 1.0
C      1  0.4529010000000  0.4402350000000  0.5758220000000 1.0
C      1  0.4514100000000  0.4415250000000  0.4320680000000 1.0
C      1  0.5638910000000  0.5259480000000  0.4183960000000 1.0
C      1  0.5762420000000  0.5183690000000  0.5751620000000 1.0
C      1  0.5239650000000  0.4285830000000  0.5525580000000 1.0
C      1  0.5242020000000  0.4263910000000  0.4513390000000 1.0
C      1  0.4650990000000  0.5227780000000  0.5346960000000 1.0
C      1  0.4572100000000  0.5216160000000  0.4644360000000 1.0
C      1  0.5978380000000  0.4997510000000  0.4714660000000 1.0
C      1  0.6016460000000  0.5003900000000  0.5265580000000 1.0
C      1  0.5515680000000  0.4573670000000  0.5500370000000 1.0
C      1  0.5462400000000  0.4586150000000  0.4572970000000 1.0
C      1  0.5702960000000  0.5527070000000  0.4663080000000 1.0
C      1  0.5701430000000  0.5508570000000  0.5341110000000 1.0
C      1  0.4833230000000  0.5313800000000  0.5781350000000 1.0
C      1  0.4814000000000  0.5288470000000  0.4292420000000 1.0
C      1  0.5093100000000  0.5223940000000  0.5844270000000 1.0
C      1  0.5073930000000  0.5220380000000  0.4192710000000 1.0
C      1  0.5752600000000  0.4490110000000  0.4669730000000 1.0
C      1  0.5847620000000  0.4619230000000  0.5509450000000 1.0
C      1  0.4392190000000  0.5133280000000  0.5183750000000 1.0
C      1  0.4312840000000  0.5096270000000  0.4747010000000 1.0
C      1  0.5472370000000  0.4732980000000  0.4294800000000 1.0
C      1  0.5470460000000  0.4637740000000  0.5812090000000 1.0
C      1  0.5741640000000  0.4787610000000  0.4794190000000 1.0
C      1  0.5769470000000  0.4784120000000  0.5222450000000 1.0
C      1  0.4875940000000  0.4388820000000  0.4786730000000 1.0
C      1  0.4786000000000  0.4375160000000  0.5173430000000 1.0
C      1  0.4749970000000  0.5545390000000  0.4409680000000 1.0
C      1  0.4736130000000  0.5601660000000  0.5674370000000 1.0
C      1  0.5418820000000  0.5208340000000  0.5219800000000 1.0
C      1  0.5471610000000  0.5246450000000  0.4826880000000 1.0
C      1  0.4397980000000  0.4288310000000  0.5547700000000 1.0
C      1  0.4391280000000  0.4415930000000  0.4566880000000 1.0
C      1  0.4209910000000  0.5125460000000  0.4362960000000 1.0
C      1  0.4194470000000  0.5038800000000  0.5571330000000 1.0
C      1  0.5176530000000  0.5657160000000  0.5269860000000 1.0
C      1  0.5175970000000  0.5641650000000  0.4773500000000 1.0
C      1  0.4407920000000  0.5926390000000  0.5084930000000 1.0
C      1  0.4269690000000  0.5952860000000  0.4845470000000 1.0
C      1  0.4233800000000  0.5323010000000  0.5572500000000 1.0
C      1  0.4249780000000  0.5379550000000  0.4473490000000 1.0
C      1  0.5211330000000  0.5046330000000  0.5410610000000 1.0
C      1  0.5246370000000  0.5176720000000  0.4621490000000 1.0
C      1  0.5333750000000  0.4755750000000  0.5346940000000 1.0
C      1  0.5288050000000  0.4855840000000  0.4626190000000 1.0
C      1  0.4622690000000  0.4816430000000  0.5516910000000 1.0
C      1  0.4606600000000  0.4750730000000  0.4531250000000 1.0
C      1  0.5196550000000  0.4654960000000  0.5866800000000 1.0
C      1  0.5211890000000  0.4682070000000  0.4190600000000 1.0
C      1  0.5540350000000  0.5477550000000  0.4368500000000 1.0
C      1  0.5565370000000  0.5363220000000  0.5617140000000 1.0
C      1  0.4942150000000  0.5162710000000  0.5238390000000 1.0
C      1  0.5025550000000  0.5105690000000  0.4851840000000 1.0
C      1  0.4333910000000  0.4835370000000  0.5337050000000 1.0
C      1  0.4278600000000  0.4844200000000  0.4543050000000 1.0
C      1  0.5622290000000  0.5021190000000  0.5417980000000 1.0
C      1  0.5639230000000  0.5144700000000  0.4565850000000 1.0
C      1  0.4495290000000  0.5714020000000  0.4757920000000 1.0
C      1  0.4624010000000  0.5683380000000  0.5133990000000 1.0
C      1  0.5915770000000  0.5266970000000  0.4610310000000 1.0
C      1  0.5878450000000  0.5241730000000  0.5406570000000 1.0
C      1  0.4718390000000  0.4582410000000  0.5692970000000 1.0
C      1  0.4785320000000  0.4534220000000  0.4337220000000 1.0
C      1  0.4453230000000  0.5576630000000  0.4453160000000 1.0
C      1  0.4419660000000  0.5482440000000  0.5715290000000 1.0
C      1  0.5590320000000  0.4985520000000  0.4304310000000 1.0
C      1  0.5699510000000  0.4859630000000  0.5707010000000 1.0
C      1  0.4762070000000  0.5895400000000  0.4753640000000 1.0
C      1  0.4838720000000  0.5999610000000  0.5317900000000 1.0
C      1  0.4062720000000  0.4746640000000  0.5151970000000 1.0
C      1  0.4094000000000  0.4768980000000  0.4813960000000 1.0
C      1  0.5492950000000  0.5729900000000  0.5188830000000 1.0
C      1  0.5477960000000  0.5720620000000  0.4829250000000 1.0
C      1  0.4211570000000  0.5423220000000  0.5289750000000 1.0
C      1  0.4139750000000  0.5387720000000  0.4774050000000 1.0
C      1  0.5047370000000  0.4454010000000  0.5326640000000 1.0
C      1  0.5190710000000  0.4494310000000  0.4758120000000 1.0
C      1  0.4597890000000  0.4533180000000  0.4792640000000 1.0
C      1  0.4488120000000  0.4373550000000  0.5267760000000 1.0
C      1  0.5016720000000  0.4504720000000  0.5661570000000 1.0
C      1  0.5062720000000  0.4463600000000  0.4317900000000 1.0
C      1  0.5301420000000  0.5271770000000  0.5645710000000 1.0
C      1  0.5284880000000  0.5316040000000  0.4361230000000 1.0
C      1  0.4632860000000  0.5523310000000  0.5383100000000 1.0
C      1  0.4678840000000  0.5429110000000  0.4785580000000 1.0
C      1  0.4686990000000  0.5066190000000  0.4432580000000 1.0
C      1  0.4670970000000  0.5117660000000  0.5644280000000 1.0
C      1  0.4870910000000  0.4860650000000  0.5314110000000 1.0
C      1  0.4812850000000  0.4869530000000  0.4774340000000 1.0
C      1  0.4870550000000  0.4134360000000  0.4972880000000 1.0
C      1  0.5276880000000  0.4916600000000  0.4936110000000 1.0
C      1  0.4440630000000  0.4647440000000  0.5071790000000 1.0
C      1  0.4355840000000  0.5521620000000  0.5001340000000 1.0
C      1  0.5832930000000  0.5238740000000  0.5000120000000 1.0
C      1  0.6061600000000  0.5483430000000  0.5018530000000 1.0
C      1  0.4944240000000  0.5661480000000  0.5021550000000 1.0
C      1  0.5596830000000  0.4995840000000  0.5019710000000 1.0
C      1  0.4865220000000  0.4683810000000  0.5054860000000 1.0
C      1  0.4220720000000  0.4403620000000  0.4975570000000 1.0
C      1  0.3935480000000  0.4983900000000  0.4996400000000 1.0
C      1  0.4381760000000  0.4153750000000  0.5040770000000 1.0
C      1  0.5516220000000  0.4598110000000  0.4964490000000 1.0
C      1  0.4585890000000  0.3993950000000  0.4954830000000 1.0
C      1  0.5277120000000  0.5439810000000  0.5027870000000 1.0
C      1  0.5194720000000  0.4626410000000  0.5071550000000 1.0
C      1  0.5722090000000  0.5560210000000  0.5003380000000 1.0
C      1  0.4863870000000  0.5991920000000  0.5021620000000 1.0
C      1  0.4092720000000  0.5225520000000  0.5051400000000 1.0
C      1  0.4891870000000  0.5340580000000  0.4987070000000 1.0
C      1  0.5178390000000  0.4074020000000  0.5006090000000 1.0
C      1  0.5415190000000  0.4294430000000  0.5080000000000 1.0
C      1  0.4524900000000  0.4948110000000  0.4937170000000 1.0
END
