TITL C-3289326-3776-260 0.00141646160851599 125000 -878.166080987481 0 0 161 (C1) n - 1
REM
REM in /nfs/bkarasulu/CARBON/AIRSS/Generating-Clusters/AIREBO/with-SteepDescent/Higher-Symm/SD-CG/HFTN-CG
REM
REM
REM
REM
REM
REM ./C.cell (b20cbc046b6831c77cfcea5457e17084)
REM
REM compiler GCC version 9.2.1 20190827 (Red Hat 9.2.1-1)
REM options -cpp -mtune=generic -march=x86-64 -g -O0 -fpre-include=/usr/include/finclude/math-vector-fortran.h
REM seed -1492608619 -1011007272 28992949 1487829353 -176502806 50686953 -1584123556 163885189 1974090144 -351773603 420475897 -1501846827 2087015585 -1321673277 2103328475 -545117306 839161445 -1561569053 2113777471 -1093100286 -1652239980 -2081348227 1102749445 1713404038 -557151707 -234319027 1117200747 -1568858543 1882673012 1994591918 1808982541 353518803 1071216229
REM
CELL 1.54180   50.00000   50.00000   50.00000   90.00000   90.00000   90.00000
LATT -1
SFAC C  
C      1  0.5053830000000  0.4987750000000  0.5285370000000 1.0
C      1  0.4917520000000  0.5457550000000  0.5201430000000 1.0
C      1  0.5396380000000  0.5123130000000  0.4936880000000 1.0
C      1  0.4868330000000  0.4835190000000  0.4523630000000 1.0
C      1  0.4809800000000  0.5062280000000  0.5510200000000 1.0
C      1  0.5039120000000  0.4919050000000  0.4760890000000 1.0
C      1  0.5022340000000  0.5479820000000  0.4878120000000 1.0
C      1  0.5157840000000  0.4470280000000  0.5096950000000 1.0
C      1  0.4913120000000  0.4459350000000  0.4887720000000 1.0
C      1  0.4666690000000  0.5049730000000  0.4987490000000 1.0
C      1  0.4462340000000  0.4804410000000  0.4906280000000 1.0
C      1  0.5352150000000  0.4943470000000  0.5162470000000 1.0
C      1  0.4386540000000  0.5439220000000  0.4310610000000 1.0
C      1  0.5461160000000  0.4275370000000  0.4407960000000 1.0
C      1  0.4320930000000  0.4389280000000  0.5466680000000 1.0
C      1  0.5664990000000  0.5503940000000  0.5697100000000 1.0
C      1  0.5571730000000  0.4584390000000  0.4337810000000 1.0
C      1  0.4348280000000  0.4566930000000  0.5760290000000 1.0
C      1  0.4541880000000  0.4293390000000  0.5702910000000 1.0
C      1  0.4639720000000  0.5628850000000  0.4399920000000 1.0
C      1  0.5534110000000  0.5764250000000  0.5522320000000 1.0
C      1  0.5713320000000  0.4402720000000  0.4573900000000 1.0
C      1  0.5855250000000  0.5658730000000  0.5481340000000 1.0
C      1  0.4375640000000  0.5587020000000  0.4604410000000 1.0
C      1  0.4296920000000  0.4224820000000  0.4722770000000 1.0
C      1  0.4193400000000  0.4754410000000  0.4279570000000 1.0
C      1  0.4798260000000  0.4389230000000  0.4200940000000 1.0
C      1  0.5633750000000  0.4326270000000  0.5152690000000 1.0
C      1  0.5748440000000  0.5698370000000  0.4787760000000 1.0
C      1  0.4298360000000  0.5640400000000  0.5202780000000 1.0
C      1  0.5744460000000  0.4792290000000  0.5679570000000 1.0
C      1  0.5735680000000  0.5205140000000  0.4327020000000 1.0
C      1  0.4221970000000  0.5290830000000  0.5758820000000 1.0
C      1  0.5148470000000  0.4342900000000  0.5736120000000 1.0
C      1  0.5224000000000  0.5736940000000  0.4250070000000 1.0
C      1  0.4784580000000  0.5769700000000  0.5760550000000 1.0
C      1  0.5599800000000  0.5348740000000  0.5945720000000 1.0
C      1  0.5425940000000  0.6018770000000  0.5386100000000 1.0
C      1  0.6067190000000  0.5492640000000  0.5319820000000 1.0
C      1  0.4403470000000  0.5301380000000  0.4038510000000 1.0
C      1  0.4460600000000  0.4785240000000  0.5941180000000 1.0
C      1  0.5536730000000  0.4679460000000  0.4044590000000 1.0
C      1  0.4818890000000  0.5864950000000  0.4420610000000 1.0
C      1  0.4699480000000  0.4020000000000  0.5661020000000 1.0
C      1  0.5374510000000  0.3987520000000  0.4448580000000 1.0
C      1  0.4102900000000  0.5558450000000  0.4725770000000 1.0
C      1  0.4169600000000  0.4574130000000  0.5312230000000 1.0
C      1  0.5961630000000  0.4507430000000  0.4705040000000 1.0
C      1  0.4471000000000  0.4178650000000  0.4488690000000 1.0
C      1  0.4138890000000  0.4492120000000  0.4370500000000 1.0
C      1  0.4546660000000  0.4478710000000  0.4140860000000 1.0
C      1  0.5466540000000  0.4255270000000  0.5373810000000 1.0
C      1  0.5514450000000  0.5795720000000  0.4629670000000 1.0
C      1  0.4392810000000  0.5910130000000  0.5393320000000 1.0
C      1  0.5778130000000  0.4562290000000  0.5527110000000 1.0
C      1  0.5788950000000  0.5424120000000  0.4486490000000 1.0
C      1  0.4096800000000  0.5530010000000  0.5683840000000 1.0
C      1  0.5394420000000  0.4475550000000  0.5772500000000 1.0
C      1  0.5435820000000  0.5565300000000  0.4219570000000 1.0
C      1  0.4632020000000  0.5602770000000  0.5856630000000 1.0
C      1  0.5192050000000  0.5811210000000  0.5322420000000 1.0
C      1  0.5909490000000  0.5281120000000  0.5139820000000 1.0
C      1  0.5395930000000  0.5142310000000  0.5853820000000 1.0
C      1  0.4906680000000  0.5710190000000  0.4686040000000 1.0
C      1  0.4793830000000  0.4170680000000  0.5417930000000 1.0
C      1  0.5113960000000  0.4163050000000  0.4568500000000 1.0
C      1  0.4219270000000  0.5275690000000  0.4800740000000 1.0
C      1  0.4346380000000  0.4796780000000  0.5218760000000 1.0
C      1  0.5878020000000  0.4737240000000  0.4888560000000 1.0
C      1  0.4564930000000  0.5089780000000  0.4241120000000 1.0
C      1  0.4601290000000  0.5016360000000  0.5774890000000 1.0
C      1  0.5380520000000  0.4901140000000  0.4190880000000 1.0
C      1  0.5354760000000  0.5219810000000  0.3832060000000 1.0
C      1  0.5140060000000  0.3930270000000  0.5274120000000 1.0
C      1  0.3698810000000  0.5068840000000  0.5288910000000 1.0
C      1  0.4710930000000  0.5219530000000  0.6100400000000 1.0
C      1  0.4668930000000  0.4914670000000  0.3897460000000 1.0
C      1  0.5234740000000  0.4765160000000  0.6044430000000 1.0
C      1  0.4839930000000  0.3874720000000  0.4602750000000 1.0
C      1  0.4624650000000  0.6047230000000  0.5400490000000 1.0
C      1  0.5048820000000  0.6089950000000  0.4703050000000 1.0
C      1  0.6152130000000  0.5318500000000  0.4789570000000 1.0
C      1  0.6111520000000  0.4637620000000  0.5197510000000 1.0
C      1  0.3912310000000  0.4575480000000  0.4818730000000 1.0
C      1  0.5131410000000  0.5071310000000  0.3771490000000 1.0
C      1  0.5116530000000  0.3940890000000  0.5004630000000 1.0
C      1  0.3929920000000  0.4986180000000  0.5168480000000 1.0
C      1  0.4935170000000  0.5116050000000  0.5999130000000 1.0
C      1  0.4932280000000  0.4956770000000  0.3931970000000 1.0
C      1  0.4988410000000  0.4847680000000  0.5947210000000 1.0
C      1  0.4869570000000  0.3935390000000  0.4866110000000 1.0
C      1  0.4832850000000  0.6091340000000  0.5163740000000 1.0
C      1  0.4963500000000  0.6181020000000  0.4941090000000 1.0
C      1  0.6196560000000  0.5034340000000  0.4867450000000 1.0
C      1  0.6188480000000  0.4912400000000  0.5115070000000 1.0
C      1  0.3955140000000  0.4837580000000  0.4928400000000 1.0
C      1  0.5120620000000  0.5263060000000  0.5822820000000 1.0
C      1  0.5260750000000  0.5602300000000  0.5062520000000 1.0
C      1  0.5880230000000  0.4959390000000  0.5245890000000 1.0
C      1  0.5138930000000  0.5202390000000  0.4292180000000 1.0
C      1  0.4979450000000  0.4789590000000  0.5621970000000 1.0
C      1  0.5043130000000  0.4879970000000  0.4227690000000 1.0
C      1  0.4813880000000  0.5753960000000  0.5208750000000 1.0
C      1  0.4732610000000  0.4184770000000  0.4933430000000 1.0
C      1  0.5222280000000  0.4208500000000  0.4887630000000 1.0
C      1  0.4182960000000  0.4950680000000  0.4779030000000 1.0
C      1  0.4229100000000  0.5087470000000  0.5295290000000 1.0
C      1  0.5889080000000  0.5024020000000  0.4738320000000 1.0
C      1  0.4913650000000  0.4498470000000  0.5771720000000 1.0
C      1  0.4548540000000  0.5755870000000  0.5059580000000 1.0
C      1  0.5748690000000  0.4979230000000  0.4483900000000 1.0
C      1  0.5026770000000  0.4550160000000  0.4203680000000 1.0
C      1  0.5137530000000  0.5586010000000  0.5795650000000 1.0
C      1  0.4960470000000  0.5404310000000  0.4128600000000 1.0
C      1  0.5530070000000  0.5755820000000  0.5116680000000 1.0
C      1  0.5522230000000  0.4259470000000  0.4890840000000 1.0
C      1  0.4414110000000  0.4172120000000  0.4969420000000 1.0
C      1  0.4195310000000  0.5051530000000  0.5614560000000 1.0
C      1  0.4138790000000  0.4960530000000  0.4452860000000 1.0
C      1  0.5807440000000  0.5023470000000  0.5534540000000 1.0
C      1  0.5445920000000  0.5232250000000  0.4149100000000 1.0
C      1  0.5127860000000  0.4235080000000  0.5417890000000 1.0
C      1  0.4283010000000  0.5351980000000  0.5092310000000 1.0
C      1  0.4494680000000  0.5316980000000  0.5883960000000 1.0
C      1  0.4476330000000  0.4784750000000  0.4119550000000 1.0
C      1  0.5431520000000  0.4813680000000  0.5773810000000 1.0
C      1  0.4804930000000  0.4146350000000  0.4425820000000 1.0
C      1  0.4909740000000  0.5888390000000  0.5495950000000 1.0
C      1  0.5192340000000  0.5843750000000  0.4558090000000 1.0
C      1  0.5816920000000  0.5366740000000  0.4820630000000 1.0
C      1  0.5771450000000  0.4634570000000  0.5194870000000 1.0
C      1  0.4083830000000  0.4415900000000  0.4650930000000 1.0
C      1  0.5680820000000  0.5511860000000  0.5236520000000 1.0
C      1  0.5575510000000  0.5210010000000  0.5573140000000 1.0
C      1  0.5273340000000  0.5546570000000  0.5505700000000 1.0
C      1  0.4621140000000  0.5591050000000  0.4805520000000 1.0
C      1  0.4540800000000  0.4301070000000  0.5257940000000 1.0
C      1  0.5593380000000  0.4574370000000  0.4842040000000 1.0
C      1  0.4392000000000  0.5173460000000  0.4522650000000 1.0
C      1  0.4444710000000  0.4811020000000  0.5543990000000 1.0
C      1  0.5468430000000  0.4863430000000  0.4503730000000 1.0
C      1  0.4773180000000  0.5324010000000  0.4380130000000 1.0
C      1  0.4677230000000  0.4555640000000  0.5534040000000 1.0
C      1  0.5202210000000  0.4450330000000  0.4428930000000 1.0
C      1  0.5286000000000  0.5058400000000  0.4662590000000 1.0
C      1  0.4986920000000  0.4542660000000  0.5382720000000 1.0
C      1  0.4621610000000  0.5363080000000  0.5062980000000 1.0
C      1  0.4552250000000  0.5186230000000  0.5345000000000 1.0
C      1  0.4582640000000  0.4903820000000  0.4604130000000 1.0
C      1  0.5327240000000  0.4993650000000  0.5488450000000 1.0
C      1  0.4971160000000  0.4554380000000  0.4616700000000 1.0
C      1  0.4999980000000  0.5344180000000  0.5511770000000 1.0
C      1  0.5038790000000  0.5284280000000  0.4600100000000 1.0
C      1  0.5511660000000  0.5387320000000  0.4969160000000 1.0
C      1  0.5433960000000  0.4668330000000  0.5108520000000 1.0
C      1  0.4613110000000  0.4512610000000  0.4996430000000 1.0
C      1  0.5588570000000  0.4368070000000  0.5600660000000 1.0
C      1  0.4157280000000  0.5719910000000  0.5492960000000 1.0
C      1  0.5630980000000  0.5635900000000  0.4410640000000 1.0
C      1  0.4352260000000  0.4326580000000  0.4273000000000 1.0
C      1  0.4931180000000  0.4974480000000  0.5004820000000 1.0
END
