TITL C-3289333-7213-535 90.4197694642344 125000 -1006.62803376411 0 0 196 (C1) n - 1
REM
REM in /nfs/bkarasulu/CARBON/AIRSS/Generating-Clusters/AIREBO/with-SteepDescent/Higher-Symm/SD-CG/HFTN-CG
REM
REM
REM
REM
REM
REM ./C.cell (b20cbc046b6831c77cfcea5457e17084)
REM
REM compiler GCC version 9.2.1 20190827 (Red Hat 9.2.1-1)
REM options -cpp -mtune=generic -march=x86-64 -g -O0 -fpre-include=/usr/include/finclude/math-vector-fortran.h
REM seed -1513983843 1402066041 -51545201 -701248079 -1452883066 -1200531758 -1683803529 2035971639 783280932 824273610 90685786 1313508891 479712583 -1551440255 2053285501 -1842125002 -868393356 -1232496643 289417382 -186714511 -672488394 1433544233 -724242224 -1596131700 821532890 188879695 1585947575 -393367627 -1439528055 -1361245103 390430722 -825310242 -544392864
REM
CELL 1.54180   50.00000   50.00000   50.00000   90.00000   90.00000   90.00000
LATT -1
SFAC C  
C      1  0.5631050000000  0.5926620000000  0.4654470000000 1.0
C      1  0.5032680000000  0.5952980000000  0.5788250000000 1.0
C      1  0.4271260000000  0.5818280000000  0.4785020000000 1.0
C      1  0.4340180000000  0.5643550000000  0.5600940000000 1.0
C      1  0.4866540000000  0.5650600000000  0.3997870000000 1.0
C      1  0.5760870000000  0.5674150000000  0.5338740000000 1.0
C      1  0.5180400000000  0.4841240000000  0.4412240000000 1.0
C      1  0.5384930000000  0.4789230000000  0.5527250000000 1.0
C      1  0.4385960000000  0.4821140000000  0.5133510000000 1.0
C      1  0.5089300000000  0.5070380000000  0.4643760000000 1.0
C      1  0.5247840000000  0.4959610000000  0.5266850000000 1.0
C      1  0.4644470000000  0.5010510000000  0.5019000000000 1.0
C      1  0.6101400000000  0.5118150000000  0.5293500000000 1.0
C      1  0.4249600000000  0.5200330000000  0.5832170000000 1.0
C      1  0.4676290000000  0.5167720000000  0.3878830000000 1.0
C      1  0.4445610000000  0.4805860000000  0.4743960000000 1.0
C      1  0.5548730000000  0.4682660000000  0.4672820000000 1.0
C      1  0.5067020000000  0.4849980000000  0.5755410000000 1.0
C      1  0.5322580000000  0.5941550000000  0.4698960000000 1.0
C      1  0.5021950000000  0.5920790000000  0.5467120000000 1.0
C      1  0.4572600000000  0.5799370000000  0.4877590000000 1.0
C      1  0.4577220000000  0.4438830000000  0.5037100000000 1.0
C      1  0.5084230000000  0.4469050000000  0.4512290000000 1.0
C      1  0.5299270000000  0.4280990000000  0.5391170000000 1.0
C      1  0.4607790000000  0.3866010000000  0.5025240000000 1.0
C      1  0.5220260000000  0.3862630000000  0.4543800000000 1.0
C      1  0.5357900000000  0.3786910000000  0.5399760000000 1.0
C      1  0.4808540000000  0.4627900000000  0.4386190000000 1.0
C      1  0.5457970000000  0.4505650000000  0.5250360000000 1.0
C      1  0.4738750000000  0.4497610000000  0.5257930000000 1.0
C      1  0.4968800000000  0.6078080000000  0.5170390000000 1.0
C      1  0.4712760000000  0.6089410000000  0.4953530000000 1.0
C      1  0.5039060000000  0.6072100000000  0.4837300000000 1.0
C      1  0.5231230000000  0.6011400000000  0.4168780000000 1.0
C      1  0.5477140000000  0.6043250000000  0.5379120000000 1.0
C      1  0.4243660000000  0.5844000000000  0.5098170000000 1.0
C      1  0.5356150000000  0.4384030000000  0.4127790000000 1.0
C      1  0.5557490000000  0.4411020000000  0.5779610000000 1.0
C      1  0.4033650000000  0.4459700000000  0.5149840000000 1.0
C      1  0.4798310000000  0.4200320000000  0.5659010000000 1.0
C      1  0.4487540000000  0.4220660000000  0.4604750000000 1.0
C      1  0.5661890000000  0.4208320000000  0.4727930000000 1.0
C      1  0.4384230000000  0.4594960000000  0.5891610000000 1.0
C      1  0.4505770000000  0.4600840000000  0.4033100000000 1.0
C      1  0.6127290000000  0.4573100000000  0.5107900000000 1.0
C      1  0.4886930000000  0.5149170000000  0.5185890000000 1.0
C      1  0.4786050000000  0.5143540000000  0.4739920000000 1.0
C      1  0.5178630000000  0.5198180000000  0.5056590000000 1.0
C      1  0.4534170000000  0.5656990000000  0.5796490000000 1.0
C      1  0.4613550000000  0.5745170000000  0.4058010000000 1.0
C      1  0.6005840000000  0.5572720000000  0.5134590000000 1.0
C      1  0.4923770000000  0.4232450000000  0.4344060000000 1.0
C      1  0.5572710000000  0.4108270000000  0.5470390000000 1.0
C      1  0.4497090000000  0.4019100000000  0.5374240000000 1.0
C      1  0.5264800000000  0.5084650000000  0.5645370000000 1.0
C      1  0.4254230000000  0.5024710000000  0.4649050000000 1.0
C      1  0.5656780000000  0.5190290000000  0.4522220000000 1.0
C      1  0.3930840000000  0.5124470000000  0.5741380000000 1.0
C      1  0.4958720000000  0.5035330000000  0.3755390000000 1.0
C      1  0.6061050000000  0.5044920000000  0.5596460000000 1.0
C      1  0.5924000000000  0.4412870000000  0.5302410000000 1.0
C      1  0.4297190000000  0.4370650000000  0.5683110000000 1.0
C      1  0.4746620000000  0.4407040000000  0.4032930000000 1.0
C      1  0.6047220000000  0.5476990000000  0.4812110000000 1.0
C      1  0.4722240000000  0.5530330000000  0.6039360000000 1.0
C      1  0.4386910000000  0.5570860000000  0.4159700000000 1.0
C      1  0.5396910000000  0.4337610000000  0.4542680000000 1.0
C      1  0.5132230000000  0.4259590000000  0.5686540000000 1.0
C      1  0.4360190000000  0.4290410000000  0.4886070000000 1.0
C      1  0.4871300000000  0.4738260000000  0.5201260000000 1.0
C      1  0.5049460000000  0.4598860000000  0.4811070000000 1.0
C      1  0.5323650000000  0.4731480000000  0.5095960000000 1.0
C      1  0.3898690000000  0.5423060000000  0.4878690000000 1.0
C      1  0.5648000000000  0.5475580000000  0.4056850000000 1.0
C      1  0.5403180000000  0.5286840000000  0.6151050000000 1.0
C      1  0.5588630000000  0.5378240000000  0.5841920000000 1.0
C      1  0.4013820000000  0.5355580000000  0.5410220000000 1.0
C      1  0.5179250000000  0.5335590000000  0.3898690000000 1.0
C      1  0.5351060000000  0.5815040000000  0.4394210000000 1.0
C      1  0.5222820000000  0.5679200000000  0.5415080000000 1.0
C      1  0.4566980000000  0.5508670000000  0.5040520000000 1.0
C      1  0.4977730000000  0.5630710000000  0.5061330000000 1.0
C      1  0.4888910000000  0.5781360000000  0.4782500000000 1.0
C      1  0.5255190000000  0.5752930000000  0.4934540000000 1.0
C      1  0.5745160000000  0.5670230000000  0.4939280000000 1.0
C      1  0.4846400000000  0.5634430000000  0.5681870000000 1.0
C      1  0.4629990000000  0.5791290000000  0.4382860000000 1.0
C      1  0.5255520000000  0.4566970000000  0.5764420000000 1.0
C      1  0.4235020000000  0.4605160000000  0.4917630000000 1.0
C      1  0.5434040000000  0.4621180000000  0.4358680000000 1.0
C      1  0.5227280000000  0.5429690000000  0.4832580000000 1.0
C      1  0.4999890000000  0.5442150000000  0.5316320000000 1.0
C      1  0.4766270000000  0.5466680000000  0.4766960000000 1.0
C      1  0.4555730000000  0.5263200000000  0.5910660000000 1.0
C      1  0.4500080000000  0.5257770000000  0.4155470000000 1.0
C      1  0.5973810000000  0.5200270000000  0.4995580000000 1.0
C      1  0.4195830000000  0.5260780000000  0.4829270000000 1.0
C      1  0.5505180000000  0.5316930000000  0.4309030000000 1.0
C      1  0.5199700000000  0.5297500000000  0.5882780000000 1.0
C      1  0.4501730000000  0.4878750000000  0.3836530000000 1.0
C      1  0.6206720000000  0.4881310000000  0.5112150000000 1.0
C      1  0.4218180000000  0.4884810000000  0.5955210000000 1.0
C      1  0.4961970000000  0.5338390000000  0.5700570000000 1.0
C      1  0.4355550000000  0.5273690000000  0.4463630000000 1.0
C      1  0.5591400000000  0.5307390000000  0.4755080000000 1.0
C      1  0.4092570000000  0.4960010000000  0.5509700000000 1.0
C      1  0.5144480000000  0.4956630000000  0.4019160000000 1.0
C      1  0.5749500000000  0.4932920000000  0.5604080000000 1.0
C      1  0.5284310000000  0.4837300000000  0.4796630000000 1.0
C      1  0.5004250000000  0.4864910000000  0.5437270000000 1.0
C      1  0.4737640000000  0.4709810000000  0.4889710000000 1.0
C      1  0.4895480000000  0.4930520000000  0.4249450000000 1.0
C      1  0.5652820000000  0.4776150000000  0.5317880000000 1.0
C      1  0.4414610000000  0.4928020000000  0.5457940000000 1.0
C      1  0.5077400000000  0.4377790000000  0.4106100000000 1.0
C      1  0.5778990000000  0.4291820000000  0.5585140000000 1.0
C      1  0.4142520000000  0.4420630000000  0.5387970000000 1.0
C      1  0.5696590000000  0.5055710000000  0.5129320000000 1.0
C      1  0.4562210000000  0.5207300000000  0.5584750000000 1.0
C      1  0.4807680000000  0.5259550000000  0.4298820000000 1.0
C      1  0.5048400000000  0.4151960000000  0.5224080000000 1.0
C      1  0.4868090000000  0.4192580000000  0.4736390000000 1.0
C      1  0.5373030000000  0.4200130000000  0.4999640000000 1.0
C      1  0.4356270000000  0.4036740000000  0.5065280000000 1.0
C      1  0.5436750000000  0.4014260000000  0.4578360000000 1.0
C      1  0.5312020000000  0.3974340000000  0.5642830000000 1.0
C      1  0.4166150000000  0.5138100000000  0.5229340000000 1.0
C      1  0.5216900000000  0.5223230000000  0.4217800000000 1.0
C      1  0.5614890000000  0.5246570000000  0.5550060000000 1.0
C      1  0.4508440000000  0.4926810000000  0.6293820000000 1.0
C      1  0.4203030000000  0.4941650000000  0.3832020000000 1.0
C      1  0.6262370000000  0.4973530000000  0.4836770000000 1.0
C      1  0.4336160000000  0.4598210000000  0.4331590000000 1.0
C      1  0.5985390000000  0.4507680000000  0.4798670000000 1.0
C      1  0.4721910000000  0.4610420000000  0.5932630000000 1.0
C      1  0.4617410000000  0.5080980000000  0.4494420000000 1.0
C      1  0.5459760000000  0.5087000000000  0.4946620000000 1.0
C      1  0.4855050000000  0.5127620000000  0.5515260000000 1.0
C      1  0.5815530000000  0.4686480000000  0.5032910000000 1.0
C      1  0.4555900000000  0.4842570000000  0.5747670000000 1.0
C      1  0.4568570000000  0.4838350000000  0.4268180000000 1.0
C      1  0.5506800000000  0.5469600000000  0.5041350000000 1.0
C      1  0.4688850000000  0.5483680000000  0.5447280000000 1.0
C      1  0.4867690000000  0.5555700000000  0.4454720000000 1.0
C      1  0.5620000000000  0.4794180000000  0.4148150000000 1.0
C      1  0.5445700000000  0.4740560000000  0.5986640000000 1.0
C      1  0.3950650000000  0.4780700000000  0.4854510000000 1.0
C      1  0.5481950000000  0.4958150000000  0.3977170000000 1.0
C      1  0.5661410000000  0.4895150000000  0.5926560000000 1.0
C      1  0.3815480000000  0.4938390000000  0.5026010000000 1.0
C      1  0.4483930000000  0.5711820000000  0.5300330000000 1.0
C      1  0.5067120000000  0.5719630000000  0.4233340000000 1.0
C      1  0.5461990000000  0.5764830000000  0.5204200000000 1.0
C      1  0.4861500000000  0.4307250000000  0.5398390000000 1.0
C      1  0.4709040000000  0.4472650000000  0.4647400000000 1.0
C      1  0.5574710000000  0.4465860000000  0.4933460000000 1.0
C      1  0.4657130000000  0.4990580000000  0.6036570000000 1.0
C      1  0.4288140000000  0.4991930000000  0.4151780000000 1.0
C      1  0.5925230000000  0.4931230000000  0.4823530000000 1.0
C      1  0.4338750000000  0.5681990000000  0.4477500000000 1.0
C      1  0.5816400000000  0.5644050000000  0.4616300000000 1.0
C      1  0.5030020000000  0.5662590000000  0.5965330000000 1.0
C      1  0.4971770000000  0.3989770000000  0.4535270000000 1.0
C      1  0.5461810000000  0.3991460000000  0.5170610000000 1.0
C      1  0.4803400000000  0.3942150000000  0.5246180000000 1.0
C      1  0.4144400000000  0.5444870000000  0.5634740000000 1.0
C      1  0.4912270000000  0.5412730000000  0.3870580000000 1.0
C      1  0.5857340000000  0.5348710000000  0.5347980000000 1.0
C      1  0.3863890000000  0.5240840000000  0.5126480000000 1.0
C      1  0.5475800000000  0.5252930000000  0.3916190000000 1.0
C      1  0.5673110000000  0.5146430000000  0.6052560000000 1.0
C      1  0.4084160000000  0.4994970000000  0.4373460000000 1.0
C      1  0.5818890000000  0.4982570000000  0.4547750000000 1.0
C      1  0.4946400000000  0.4923560000000  0.6039020000000 1.0
C      1  0.4131380000000  0.5544680000000  0.4683930000000 1.0
C      1  0.5595760000000  0.5631890000000  0.4357050000000 1.0
C      1  0.5347540000000  0.5578610000000  0.5983500000000 1.0
C      1  0.4146310000000  0.4660080000000  0.5580950000000 1.0
C      1  0.4974920000000  0.4661770000000  0.4016530000000 1.0
C      1  0.5860140000000  0.4612840000000  0.5571780000000 1.0
C      1  0.5806540000000  0.4765410000000  0.4378720000000 1.0
C      1  0.5180770000000  0.4731260000000  0.6120560000000 1.0
C      1  0.3946070000000  0.4791090000000  0.4548290000000 1.0
C      1  0.5806780000000  0.4238720000000  0.5034340000000 1.0
C      1  0.4516350000000  0.4153530000000  0.5628840000000 1.0
C      1  0.4613140000000  0.4258210000000  0.4309480000000 1.0
C      1  0.5302570000000  0.5351890000000  0.5462250000000 1.0
C      1  0.4406460000000  0.5250790000000  0.5054370000000 1.0
C      1  0.5147750000000  0.5372580000000  0.4515610000000 1.0
C      1  0.4651830000000  0.6099810000000  0.4409990000000 1.0
C      1  0.5753290000000  0.5949030000000  0.5079870000000 1.0
C      1  0.4705230000000  0.5956150000000  0.5348440000000 1.0
C      1  0.4165180000000  0.4580670000000  0.4583240000000 1.0
C      1  0.5828660000000  0.4528190000000  0.4556980000000 1.0
C      1  0.4986740000000  0.4531030000000  0.5978670000000 1.0
C      1  0.5078600000000  0.4286010000000  0.4939530000000 1.0
END
