TITL C-3289320-4661-15 -0.000573994049021012 125000 -840.918945693955 0 0 159 (C1) n - 1
REM
REM in /nfs/bkarasulu/CARBON/AIRSS/Generating-Clusters/AIREBO/with-SteepDescent/Higher-Symm/SD-CG/HFTN-CG
REM
REM
REM
REM
REM
REM ./C.cell (b20cbc046b6831c77cfcea5457e17084)
REM
REM compiler GCC version 9.2.1 20190827 (Red Hat 9.2.1-1)
REM options -cpp -mtune=generic -march=x86-64 -g -O0 -fpre-include=/usr/include/finclude/math-vector-fortran.h
REM seed -156663362 1263559083 899438460 597018362 645374441 1305212617 204242025 -1715312064 -735584618 1937149499 164445738 771543914 850424703 -1316695103 -2088913279 1068435508 -876641323 -765035620 -59067619 -1221588443 356428067 -278926569 1939174178 -329208405 -527525631 -360691926 1434265768 1208509645 1857983020 -1645131446 307534692 580445769 1193108792
REM
CELL 1.54180   50.00000   50.00000   50.00000   90.00000   90.00000   90.00000
LATT -1
SFAC C  
C      1  0.4855160000000  0.4297600000000  0.5349020000000 1.0
C      1  0.4731260000000  0.4751960000000  0.4211060000000 1.0
C      1  0.4882900000000  0.5737170000000  0.4635920000000 1.0
C      1  0.4757660000000  0.5236090000000  0.5832850000000 1.0
C      1  0.5182270000000  0.4229910000000  0.5284920000000 1.0
C      1  0.5263360000000  0.4761620000000  0.4204720000000 1.0
C      1  0.5185680000000  0.5864500000000  0.4729020000000 1.0
C      1  0.5238170000000  0.5304780000000  0.5754700000000 1.0
C      1  0.5390290000000  0.4704450000000  0.5958960000000 1.0
C      1  0.5243350000000  0.3976190000000  0.4750990000000 1.0
C      1  0.5290030000000  0.5316640000000  0.4035790000000 1.0
C      1  0.5295790000000  0.5992340000000  0.5271680000000 1.0
C      1  0.4762240000000  0.4712910000000  0.6003660000000 1.0
C      1  0.4698460000000  0.4078690000000  0.4709300000000 1.0
C      1  0.4706690000000  0.5297640000000  0.4005100000000 1.0
C      1  0.4688760000000  0.6036640000000  0.5335060000000 1.0
C      1  0.5574310000000  0.4958140000000  0.4496000000000 1.0
C      1  0.5548070000000  0.5523910000000  0.4957820000000 1.0
C      1  0.5604200000000  0.5011930000000  0.5571210000000 1.0
C      1  0.5622450000000  0.4473440000000  0.5069360000000 1.0
C      1  0.4404260000000  0.4869010000000  0.4464120000000 1.0
C      1  0.4463560000000  0.5566570000000  0.4899550000000 1.0
C      1  0.4390140000000  0.5091150000000  0.5563910000000 1.0
C      1  0.4393120000000  0.4403160000000  0.5093670000000 1.0
C      1  0.4874270000000  0.6017850000000  0.4353650000000 1.0
C      1  0.4830820000000  0.5520770000000  0.5836510000000 1.0
C      1  0.4891980000000  0.4014530000000  0.5533740000000 1.0
C      1  0.4949140000000  0.4423420000000  0.4045230000000 1.0
C      1  0.5136010000000  0.5955680000000  0.4416530000000 1.0
C      1  0.5063670000000  0.5609190000000  0.5941770000000 1.0
C      1  0.5128210000000  0.3999610000000  0.5629450000000 1.0
C      1  0.5200730000000  0.4468060000000  0.4134320000000 1.0
C      1  0.5077350000000  0.4014490000000  0.5043440000000 1.0
C      1  0.5147710000000  0.5008000000000  0.4047470000000 1.0
C      1  0.5093650000000  0.5954900000000  0.5016390000000 1.0
C      1  0.5268660000000  0.5022100000000  0.5950210000000 1.0
C      1  0.4795740000000  0.4001020000000  0.5010970000000 1.0
C      1  0.4871910000000  0.5002450000000  0.4040090000000 1.0
C      1  0.4774410000000  0.6008810000000  0.5062050000000 1.0
C      1  0.4946920000000  0.4983580000000  0.5912650000000 1.0
C      1  0.4788630000000  0.5071120000000  0.5537030000000 1.0
C      1  0.4790230000000  0.4567390000000  0.5152210000000 1.0
C      1  0.4818320000000  0.4940610000000  0.4480370000000 1.0
C      1  0.4937040000000  0.5492320000000  0.4825430000000 1.0
C      1  0.5103750000000  0.5155400000000  0.5507150000000 1.0
C      1  0.5224740000000  0.4495210000000  0.5074670000000 1.0
C      1  0.5134550000000  0.4815920000000  0.4489950000000 1.0
C      1  0.5174490000000  0.5386520000000  0.4973720000000 1.0
C      1  0.5117810000000  0.5592610000000  0.4083550000000 1.0
C      1  0.5153640000000  0.5883940000000  0.5533160000000 1.0
C      1  0.5213360000000  0.4423090000000  0.5887310000000 1.0
C      1  0.5135480000000  0.4115570000000  0.4469140000000 1.0
C      1  0.4838280000000  0.5576860000000  0.4103480000000 1.0
C      1  0.4871830000000  0.5911000000000  0.5526190000000 1.0
C      1  0.4923330000000  0.4444000000000  0.5925760000000 1.0
C      1  0.4856540000000  0.4161480000000  0.4455520000000 1.0
C      1  0.5978710000000  0.4783700000000  0.4852410000000 1.0
C      1  0.6010130000000  0.5101520000000  0.4814090000000 1.0
C      1  0.6008950000000  0.5232760000000  0.5083800000000 1.0
C      1  0.5931280000000  0.4919240000000  0.5160570000000 1.0
C      1  0.4097260000000  0.4804510000000  0.4868010000000 1.0
C      1  0.4063350000000  0.5114970000000  0.4729500000000 1.0
C      1  0.4080920000000  0.5206460000000  0.5050510000000 1.0
C      1  0.4068860000000  0.4902940000000  0.5191410000000 1.0
C      1  0.5409220000000  0.5296530000000  0.4748650000000 1.0
C      1  0.5474580000000  0.5282540000000  0.5434120000000 1.0
C      1  0.5433270000000  0.4736550000000  0.5172280000000 1.0
C      1  0.5478610000000  0.4645000000000  0.4600520000000 1.0
C      1  0.4567780000000  0.5291830000000  0.4728220000000 1.0
C      1  0.4585530000000  0.5250910000000  0.5336000000000 1.0
C      1  0.4500550000000  0.4634360000000  0.5317200000000 1.0
C      1  0.4631390000000  0.4740440000000  0.4682170000000 1.0
C      1  0.5533560000000  0.5715770000000  0.4264460000000 1.0
C      1  0.5566200000000  0.5531840000000  0.5598010000000 1.0
C      1  0.5580920000000  0.4378580000000  0.5542500000000 1.0
C      1  0.5558120000000  0.4367440000000  0.4443650000000 1.0
C      1  0.4428030000000  0.5639760000000  0.4383520000000 1.0
C      1  0.4330580000000  0.5649420000000  0.5540130000000 1.0
C      1  0.4461820000000  0.4486850000000  0.5604050000000 1.0
C      1  0.4517100000000  0.4487960000000  0.4485100000000 1.0
C      1  0.5305100000000  0.4274050000000  0.4313830000000 1.0
C      1  0.5265320000000  0.5794100000000  0.4219370000000 1.0
C      1  0.5280140000000  0.5639560000000  0.5705680000000 1.0
C      1  0.5293440000000  0.4276050000000  0.5603360000000 1.0
C      1  0.4741240000000  0.4417580000000  0.4281840000000 1.0
C      1  0.4710020000000  0.5739010000000  0.4343010000000 1.0
C      1  0.4735890000000  0.5670870000000  0.5632390000000 1.0
C      1  0.4785580000000  0.4457130000000  0.5630720000000 1.0
C      1  0.5201130000000  0.4660930000000  0.4778350000000 1.0
C      1  0.5176010000000  0.5106050000000  0.4614600000000 1.0
C      1  0.5175180000000  0.5360050000000  0.5292670000000 1.0
C      1  0.5222050000000  0.4864040000000  0.5377830000000 1.0
C      1  0.4905040000000  0.4725900000000  0.4874100000000 1.0
C      1  0.4867260000000  0.5190850000000  0.4710040000000 1.0
C      1  0.4805150000000  0.5403530000000  0.5125990000000 1.0
C      1  0.4907080000000  0.4858590000000  0.5293910000000 1.0
C      1  0.5509710000000  0.5229540000000  0.5123840000000 1.0
C      1  0.5630650000000  0.4963110000000  0.5253800000000 1.0
C      1  0.5672900000000  0.4712630000000  0.4854530000000 1.0
C      1  0.5490550000000  0.4974310000000  0.4820760000000 1.0
C      1  0.4390920000000  0.5289950000000  0.5083670000000 1.0
C      1  0.4380790000000  0.4904960000000  0.5279560000000 1.0
C      1  0.4406910000000  0.4703730000000  0.4934950000000 1.0
C      1  0.4377210000000  0.5046480000000  0.4716400000000 1.0
C      1  0.5627650000000  0.5784280000000  0.4523030000000 1.0
C      1  0.5728370000000  0.5427200000000  0.5839220000000 1.0
C      1  0.5647030000000  0.4278730000000  0.5287470000000 1.0
C      1  0.5711990000000  0.4555160000000  0.4245350000000 1.0
C      1  0.4303860000000  0.5677920000000  0.4630160000000 1.0
C      1  0.4271540000000  0.5411680000000  0.5656590000000 1.0
C      1  0.4337980000000  0.4269380000000  0.5401650000000 1.0
C      1  0.4240970000000  0.4593790000000  0.4333650000000 1.0
C      1  0.4373810000000  0.4015200000000  0.4680850000000 1.0
C      1  0.4386710000000  0.5324320000000  0.3920940000000 1.0
C      1  0.4413330000000  0.5944590000000  0.5386820000000 1.0
C      1  0.4423380000000  0.4740490000000  0.6012310000000 1.0
C      1  0.5582190000000  0.3990790000000  0.4779580000000 1.0
C      1  0.5584110000000  0.5456660000000  0.4156780000000 1.0
C      1  0.5626810000000  0.5951360000000  0.5264390000000 1.0
C      1  0.5715340000000  0.4672830000000  0.5969690000000 1.0
C      1  0.4388870000000  0.5361420000000  0.4258910000000 1.0
C      1  0.4343030000000  0.5668560000000  0.5200830000000 1.0
C      1  0.4316280000000  0.4782770000000  0.5687400000000 1.0
C      1  0.4405020000000  0.4344680000000  0.4758820000000 1.0
C      1  0.5653560000000  0.5240190000000  0.4398320000000 1.0
C      1  0.5636400000000  0.5610920000000  0.5274600000000 1.0
C      1  0.5630730000000  0.4681900000000  0.5640480000000 1.0
C      1  0.5649870000000  0.4323780000000  0.4765220000000 1.0
C      1  0.4728030000000  0.4370020000000  0.4882190000000 1.0
C      1  0.4688880000000  0.5213840000000  0.4324720000000 1.0
C      1  0.4661520000000  0.5639170000000  0.5316630000000 1.0
C      1  0.4651500000000  0.4824030000000  0.5702000000000 1.0
C      1  0.5320140000000  0.4285850000000  0.4839400000000 1.0
C      1  0.5315370000000  0.5262180000000  0.4366170000000 1.0
C      1  0.5300700000000  0.5653720000000  0.5241460000000 1.0
C      1  0.5291010000000  0.4725980000000  0.5643230000000 1.0
C      1  0.4589880000000  0.4147450000000  0.5201330000000 1.0
C      1  0.4419920000000  0.4780740000000  0.4136140000000 1.0
C      1  0.4687060000000  0.5797360000000  0.4882810000000 1.0
C      1  0.4449420000000  0.5224980000000  0.5870880000000 1.0
C      1  0.5473270000000  0.4060670000000  0.5236550000000 1.0
C      1  0.5563300000000  0.4788090000000  0.4237000000000 1.0
C      1  0.5472450000000  0.5743070000000  0.4743850000000 1.0
C      1  0.5533490000000  0.5189960000000  0.5818630000000 1.0
C      1  0.5923950000000  0.5215550000000  0.4581430000000 1.0
C      1  0.5929810000000  0.5460870000000  0.5196960000000 1.0
C      1  0.5905300000000  0.4750610000000  0.5451860000000 1.0
C      1  0.5963980000000  0.4454450000000  0.4768700000000 1.0
C      1  0.4146850000000  0.5226610000000  0.4445360000000 1.0
C      1  0.4055480000000  0.5491630000000  0.5162820000000 1.0
C      1  0.4053940000000  0.4777180000000  0.5471130000000 1.0
C      1  0.4106030000000  0.4506780000000  0.4764180000000 1.0
C      1  0.5009310000000  0.4315640000000  0.4791030000000 1.0
C      1  0.4997460000000  0.5272890000000  0.4305120000000 1.0
C      1  0.4975340000000  0.4742380000000  0.5667550000000 1.0
C      1  0.4974660000000  0.5690670000000  0.5194540000000 1.0
C      1  0.5231690000000  0.5063880000000  0.5018390000000 1.0
C      1  0.4554060000000  0.5002550000000  0.5003640000000 1.0
C      1  0.4893470000000  0.5027030000000  0.5006830000000 1.0
END
