TITL C-3289335-9438-400 0.00313422132726589 125000 -735.651410364171 0 0 143 (C1) n - 1
REM
REM in /nfs/bkarasulu/CARBON/AIRSS/Generating-Clusters/AIREBO/with-SteepDescent/Higher-Symm/SD-CG/HFTN-CG
REM
REM
REM
REM
REM
REM ./C.cell (b20cbc046b6831c77cfcea5457e17084)
REM
REM compiler GCC version 9.2.1 20190827 (Red Hat 9.2.1-1)
REM options -cpp -mtune=generic -march=x86-64 -g -O0 -fpre-include=/usr/include/finclude/math-vector-fortran.h
REM seed 546800486 -1548214641 49779111 -170578508 -1015947954 -126565573 -1127587833 -460314652 -247572296 448247823 1718672885 -1829640700 -1933286916 -1289602128 -85818250 83997756 -497443916 1474846427 -1637733119 -279593707 -1403878939 569741225 -2088267547 -1419123106 -1764639721 -888106924 1631390128 639272881 -1443152509 1448219786 1463216920 -692117277 -81833592
REM
CELL 1.54180   50.00000   50.00000   50.00000   90.00000   90.00000   90.00000
LATT -1
SFAC C  
C      1  0.4593600000000  0.5286350000000  0.5291820000000 1.0
C      1  0.5453390000000  0.5264170000000  0.5297710000000 1.0
C      1  0.4989040000000  0.4467740000000  0.5315270000000 1.0
C      1  0.5236580000000  0.5499800000000  0.4037300000000 1.0
C      1  0.5272530000000  0.4429230000000  0.4101960000000 1.0
C      1  0.4419630000000  0.4897130000000  0.4131680000000 1.0
C      1  0.4946630000000  0.4216340000000  0.5761120000000 1.0
C      1  0.4423410000000  0.5350710000000  0.5752270000000 1.0
C      1  0.5683130000000  0.5295760000000  0.5734260000000 1.0
C      1  0.4110920000000  0.4975120000000  0.4774710000000 1.0
C      1  0.5415590000000  0.5827720000000  0.4762760000000 1.0
C      1  0.5552000000000  0.4370650000000  0.4738970000000 1.0
C      1  0.4915210000000  0.4811030000000  0.4457730000000 1.0
C      1  0.4894730000000  0.5229210000000  0.4464750000000 1.0
C      1  0.5246190000000  0.5026060000000  0.4491260000000 1.0
C      1  0.4859400000000  0.4077930000000  0.4918880000000 1.0
C      1  0.4277820000000  0.5563670000000  0.4851080000000 1.0
C      1  0.5866820000000  0.5392690000000  0.4828250000000 1.0
C      1  0.4291610000000  0.4718390000000  0.4640440000000 1.0
C      1  0.5114060000000  0.5807140000000  0.4620730000000 1.0
C      1  0.5666920000000  0.4639410000000  0.4601830000000 1.0
C      1  0.5915780000000  0.4534410000000  0.5044760000000 1.0
C      1  0.4116550000000  0.4482900000000  0.5045330000000 1.0
C      1  0.4966010000000  0.6015210000000  0.5054350000000 1.0
C      1  0.4434720000000  0.4228210000000  0.5421640000000 1.0
C      1  0.4529030000000  0.5882490000000  0.5386680000000 1.0
C      1  0.6022890000000  0.4942480000000  0.5392350000000 1.0
C      1  0.4515620000000  0.4945620000000  0.5913970000000 1.0
C      1  0.5206110000000  0.5363730000000  0.5856750000000 1.0
C      1  0.5242890000000  0.4605020000000  0.5882550000000 1.0
C      1  0.5968740000000  0.4649950000000  0.5297060000000 1.0
C      1  0.4172340000000  0.4304150000000  0.5285160000000 1.0
C      1  0.4808020000000  0.5990370000000  0.5290440000000 1.0
C      1  0.5150610000000  0.5224770000000  0.5203510000000 1.0
C      1  0.5081380000000  0.4782370000000  0.5266700000000 1.0
C      1  0.4892830000000  0.5054840000000  0.5343800000000 1.0
C      1  0.4487950000000  0.4349430000000  0.4496170000000 1.0
C      1  0.4646890000000  0.5790350000000  0.4505790000000 1.0
C      1  0.5952590000000  0.4902410000000  0.4506750000000 1.0
C      1  0.4021270000000  0.4746890000000  0.5135550000000 1.0
C      1  0.5243670000000  0.5967540000000  0.5115030000000 1.0
C      1  0.5733820000000  0.4307300000000  0.5103860000000 1.0
C      1  0.4487380000000  0.4805550000000  0.5210500000000 1.0
C      1  0.5073500000000  0.5614840000000  0.5193580000000 1.0
C      1  0.5510980000000  0.4638560000000  0.5189710000000 1.0
C      1  0.4965260000000  0.4568070000000  0.4144480000000 1.0
C      1  0.4755490000000  0.5318170000000  0.4103750000000 1.0
C      1  0.5442090000000  0.5236890000000  0.4048690000000 1.0
C      1  0.4527300000000  0.4448690000000  0.5618430000000 1.0
C      1  0.4709760000000  0.5721620000000  0.5565990000000 1.0
C      1  0.5790800000000  0.4871020000000  0.5572120000000 1.0
C      1  0.4909320000000  0.4064570000000  0.5356260000000 1.0
C      1  0.4177720000000  0.5527740000000  0.5256210000000 1.0
C      1  0.5831310000000  0.5392050000000  0.5314210000000 1.0
C      1  0.5493400000000  0.5525270000000  0.5781120000000 1.0
C      1  0.5242330000000  0.4281800000000  0.5779490000000 1.0
C      1  0.4281200000000  0.5078420000000  0.5684770000000 1.0
C      1  0.5714440000000  0.5705980000000  0.4813070000000 1.0
C      1  0.4942710000000  0.3814930000000  0.4984470000000 1.0
C      1  0.4055970000000  0.5307100000000  0.4826550000000 1.0
C      1  0.5480680000000  0.5841260000000  0.5329140000000 1.0
C      1  0.5494390000000  0.4166250000000  0.5308690000000 1.0
C      1  0.4049390000000  0.5000160000000  0.5368500000000 1.0
C      1  0.5355010000000  0.4790450000000  0.5426850000000 1.0
C      1  0.4691200000000  0.4856430000000  0.5478640000000 1.0
C      1  0.5029580000000  0.5410010000000  0.5461450000000 1.0
C      1  0.5482420000000  0.4482130000000  0.4363270000000 1.0
C      1  0.4228100000000  0.4891600000000  0.4354750000000 1.0
C      1  0.5170560000000  0.5638120000000  0.4330950000000 1.0
C      1  0.4640140000000  0.4146180000000  0.5245870000000 1.0
C      1  0.4373560000000  0.5742970000000  0.5193880000000 1.0
C      1  0.5974210000000  0.5162340000000  0.5222070000000 1.0
C      1  0.5371280000000  0.4744270000000  0.4642890000000 1.0
C      1  0.4593840000000  0.4794000000000  0.4571980000000 1.0
C      1  0.4996600000000  0.5491090000000  0.4656410000000 1.0
C      1  0.5009880000000  0.5805450000000  0.5471160000000 1.0
C      1  0.5691850000000  0.4582640000000  0.5474140000000 1.0
C      1  0.4287510000000  0.4595310000000  0.5387910000000 1.0
C      1  0.4270900000000  0.5257260000000  0.5395680000000 1.0
C      1  0.5561450000000  0.5548190000000  0.5450330000000 1.0
C      1  0.5192580000000  0.4229260000000  0.5447260000000 1.0
C      1  0.4818970000000  0.5161650000000  0.4789250000000 1.0
C      1  0.5290320000000  0.5012840000000  0.4815700000000 1.0
C      1  0.4854000000000  0.4763080000000  0.4788750000000 1.0
C      1  0.5643580000000  0.5042800000000  0.4485980000000 1.0
C      1  0.4761290000000  0.4330450000000  0.4560930000000 1.0
C      1  0.4569350000000  0.5527250000000  0.4552430000000 1.0
C      1  0.4646050000000  0.5416330000000  0.4824320000000 1.0
C      1  0.5590370000000  0.5105890000000  0.4816190000000 1.0
C      1  0.4804000000000  0.4459930000000  0.4829880000000 1.0
C      1  0.4415570000000  0.4769120000000  0.5641110000000 1.0
C      1  0.5211100000000  0.5626010000000  0.5640410000000 1.0
C      1  0.5411670000000  0.4520140000000  0.5611100000000 1.0
C      1  0.4642490000000  0.4961370000000  0.4951140000000 1.0
C      1  0.5125280000000  0.5272930000000  0.4886200000000 1.0
C      1  0.5111880000000  0.4796500000000  0.4967020000000 1.0
C      1  0.4567070000000  0.4572420000000  0.4995140000000 1.0
C      1  0.4883590000000  0.5579570000000  0.4967570000000 1.0
C      1  0.5601020000000  0.4841270000000  0.4999540000000 1.0
C      1  0.5553200000000  0.5292170000000  0.4321730000000 1.0
C      1  0.4977310000000  0.4349990000000  0.4379020000000 1.0
C      1  0.4520740000000  0.5341130000000  0.4348800000000 1.0
C      1  0.5419080000000  0.5490850000000  0.4463250000000 1.0
C      1  0.5226520000000  0.4370940000000  0.4506600000000 1.0
C      1  0.4366180000000  0.5137180000000  0.4446610000000 1.0
C      1  0.4461570000000  0.4449480000000  0.4236150000000 1.0
C      1  0.4720310000000  0.5820460000000  0.4237180000000 1.0
C      1  0.5835950000000  0.4783500000000  0.4255040000000 1.0
C      1  0.5576800000000  0.5387930000000  0.5006030000000 1.0
C      1  0.5063910000000  0.4334200000000  0.5009570000000 1.0
C      1  0.4404420000000  0.5297850000000  0.5021330000000 1.0
C      1  0.4945490000000  0.5239930000000  0.5945980000000 1.0
C      1  0.5338650000000  0.4860870000000  0.5981850000000 1.0
C      1  0.4750550000000  0.4769600000000  0.5998090000000 1.0
C      1  0.4342050000000  0.4419750000000  0.4795380000000 1.0
C      1  0.4822040000000  0.5860850000000  0.4786750000000 1.0
C      1  0.5881020000000  0.4789440000000  0.4819450000000 1.0
C      1  0.4830170000000  0.4448280000000  0.5615760000000 1.0
C      1  0.4708350000000  0.5394680000000  0.5572010000000 1.0
C      1  0.5528600000000  0.5056230000000  0.5548920000000 1.0
C      1  0.5970470000000  0.5102100000000  0.4930710000000 1.0
C      1  0.4539660000000  0.4180620000000  0.4935530000000 1.0
C      1  0.4513370000000  0.5784170000000  0.4907960000000 1.0
C      1  0.5402000000000  0.4351520000000  0.5043560000000 1.0
C      1  0.4239340000000  0.5003570000000  0.5088270000000 1.0
C      1  0.5381700000000  0.5661910000000  0.5057730000000 1.0
C      1  0.4414320000000  0.5102100000000  0.4743480000000 1.0
C      1  0.5382030000000  0.5433110000000  0.4731000000000 1.0
C      1  0.5187000000000  0.4531250000000  0.4761160000000 1.0
C      1  0.5162700000000  0.4832890000000  0.4225360000000 1.0
C      1  0.4732310000000  0.5015000000000  0.4256270000000 1.0
C      1  0.5161750000000  0.5247410000000  0.4252770000000 1.0
C      1  0.5498970000000  0.4809160000000  0.4271600000000 1.0
C      1  0.4683960000000  0.4694030000000  0.4154010000000 1.0
C      1  0.4885040000000  0.5612550000000  0.4159460000000 1.0
C      1  0.5287850000000  0.5068090000000  0.5778300000000 1.0
C      1  0.4938140000000  0.4684220000000  0.5791900000000 1.0
C      1  0.4754930000000  0.5090560000000  0.5716970000000 1.0
C      1  0.3964420000000  0.5463200000000  0.5073550000000 1.0
C      1  0.5776080000000  0.5636480000000  0.5125600000000 1.0
C      1  0.4973530000000  0.3797940000000  0.5262150000000 1.0
C      1  0.5049110000000  0.4948320000000  0.5627940000000 1.0
C      1  0.4982760000000  0.5061880000000  0.4031080000000 1.0
END
