TITL C-3289332-8317-711 0.000175695323873355 125000 -1018.93265434252 0 0 186 (C1) n - 1
REM
REM in /nfs/bkarasulu/CARBON/AIRSS/Generating-Clusters/AIREBO/with-SteepDescent/Higher-Symm/SD-CG/HFTN-CG
REM
REM
REM
REM
REM
REM ./C.cell (b20cbc046b6831c77cfcea5457e17084)
REM
REM compiler GCC version 9.2.1 20190827 (Red Hat 9.2.1-1)
REM options -cpp -mtune=generic -march=x86-64 -g -O0 -fpre-include=/usr/include/finclude/math-vector-fortran.h
REM seed -394986412 1931490274 1796079399 -1822149349 -653042828 -641147030 754768060 -767766071 -795681175 -1416889815 -156874676 -1818809407 1007440711 14828068 313614467 -1880957075 1214892959 -304629347 78379669 1394694964 1777728228 1524108471 -273253347 988856011 1652064817 -2146309653 4713259 -504351467 174483431 2078226744 -1406933111 629980156 1793969529
REM
CELL 1.54180   50.00000   50.00000   50.00000   90.00000   90.00000   90.00000
LATT -1
SFAC C  
C      1  0.4966190000000  0.6094870000000  0.4799730000000 1.0
C      1  0.5010190000000  0.3949630000000  0.4765740000000 1.0
C      1  0.5524490000000  0.5174740000000  0.5436060000000 1.0
C      1  0.5472980000000  0.4866150000000  0.5453910000000 1.0
C      1  0.4701850000000  0.5865540000000  0.5743000000000 1.0
C      1  0.4614570000000  0.4202760000000  0.5666480000000 1.0
C      1  0.3874360000000  0.4538610000000  0.4845900000000 1.0
C      1  0.3845700000000  0.5405350000000  0.4884010000000 1.0
C      1  0.5293680000000  0.5326880000000  0.5638720000000 1.0
C      1  0.5235520000000  0.4686790000000  0.5626770000000 1.0
C      1  0.5209470000000  0.4219190000000  0.4324620000000 1.0
C      1  0.5107190000000  0.5795560000000  0.4385120000000 1.0
C      1  0.5865100000000  0.4448260000000  0.4380020000000 1.0
C      1  0.5504710000000  0.5629020000000  0.4152790000000 1.0
C      1  0.5912550000000  0.5105670000000  0.5499030000000 1.0
C      1  0.5887400000000  0.4832980000000  0.5541890000000 1.0
C      1  0.4501890000000  0.5302070000000  0.5634980000000 1.0
C      1  0.4520850000000  0.4723070000000  0.5608410000000 1.0
C      1  0.5134080000000  0.5524410000000  0.4500060000000 1.0
C      1  0.5067340000000  0.4452950000000  0.4526490000000 1.0
C      1  0.4906700000000  0.5265100000000  0.5960030000000 1.0
C      1  0.4955170000000  0.4750770000000  0.5967630000000 1.0
C      1  0.5196180000000  0.5180650000000  0.5347520000000 1.0
C      1  0.5156200000000  0.4839370000000  0.5333300000000 1.0
C      1  0.4717470000000  0.5180320000000  0.5210980000000 1.0
C      1  0.4683930000000  0.4871470000000  0.5181180000000 1.0
C      1  0.4598660000000  0.4384890000000  0.4976570000000 1.0
C      1  0.4553110000000  0.5641830000000  0.5030160000000 1.0
C      1  0.5292740000000  0.5987050000000  0.4565550000000 1.0
C      1  0.5478790000000  0.4166870000000  0.4499680000000 1.0
C      1  0.4249110000000  0.4501300000000  0.5291280000000 1.0
C      1  0.4239670000000  0.5544780000000  0.5255630000000 1.0
C      1  0.4215270000000  0.4899520000000  0.5799790000000 1.0
C      1  0.4235780000000  0.5174020000000  0.5904060000000 1.0
C      1  0.4429970000000  0.4166270000000  0.5409620000000 1.0
C      1  0.4524430000000  0.5870380000000  0.5518190000000 1.0
C      1  0.5188080000000  0.6097530000000  0.5047040000000 1.0
C      1  0.5210140000000  0.3922800000000  0.5017270000000 1.0
C      1  0.4260370000000  0.4453970000000  0.4523150000000 1.0
C      1  0.4184760000000  0.5578440000000  0.4547930000000 1.0
C      1  0.5275640000000  0.5631940000000  0.3983460000000 1.0
C      1  0.5402290000000  0.4401260000000  0.4111200000000 1.0
C      1  0.4506120000000  0.5875560000000  0.4797890000000 1.0
C      1  0.4331840000000  0.4114990000000  0.4718850000000 1.0
C      1  0.4569230000000  0.4475210000000  0.5380310000000 1.0
C      1  0.4510770000000  0.5564450000000  0.5418920000000 1.0
C      1  0.5406910000000  0.5159250000000  0.4588230000000 1.0
C      1  0.5422160000000  0.4853660000000  0.4538200000000 1.0
C      1  0.4676060000000  0.5134170000000  0.5874060000000 1.0
C      1  0.4696570000000  0.4864650000000  0.5862860000000 1.0
C      1  0.4601180000000  0.5665090000000  0.5955350000000 1.0
C      1  0.4538510000000  0.4383290000000  0.5886670000000 1.0
C      1  0.3958170000000  0.4831540000000  0.4992180000000 1.0
C      1  0.3962630000000  0.5152710000000  0.5068280000000 1.0
C      1  0.4399530000000  0.4856500000000  0.4834440000000 1.0
C      1  0.4454400000000  0.5194750000000  0.4824020000000 1.0
C      1  0.5714070000000  0.4028280000000  0.4791460000000 1.0
C      1  0.5560990000000  0.5728010000000  0.4656250000000 1.0
C      1  0.4397010000000  0.5460000000000  0.5905050000000 1.0
C      1  0.4334480000000  0.4602320000000  0.5865940000000 1.0
C      1  0.5783960000000  0.5159440000000  0.5216590000000 1.0
C      1  0.5731460000000  0.4768900000000  0.5278500000000 1.0
C      1  0.5632630000000  0.4506510000000  0.4903360000000 1.0
C      1  0.5740670000000  0.5543900000000  0.4715080000000 1.0
C      1  0.5781530000000  0.4125320000000  0.5233370000000 1.0
C      1  0.5716930000000  0.5853080000000  0.5164720000000 1.0
C      1  0.5255430000000  0.5925200000000  0.5446370000000 1.0
C      1  0.5287180000000  0.3991040000000  0.5351340000000 1.0
C      1  0.4396840000000  0.4778110000000  0.5165430000000 1.0
C      1  0.4426030000000  0.5279230000000  0.5152280000000 1.0
C      1  0.3992130000000  0.5467690000000  0.5422230000000 1.0
C      1  0.3995010000000  0.4563370000000  0.5403120000000 1.0
C      1  0.3933620000000  0.5174660000000  0.5386070000000 1.0
C      1  0.3939730000000  0.4846250000000  0.5321930000000 1.0
C      1  0.4250120000000  0.4865410000000  0.5459590000000 1.0
C      1  0.4273620000000  0.5184910000000  0.5426340000000 1.0
C      1  0.4815620000000  0.4855620000000  0.4098910000000 1.0
C      1  0.4785330000000  0.5134300000000  0.4101220000000 1.0
C      1  0.5411370000000  0.4568530000000  0.5153980000000 1.0
C      1  0.5368390000000  0.5493020000000  0.5166490000000 1.0
C      1  0.4230410000000  0.5249270000000  0.4567230000000 1.0
C      1  0.4232700000000  0.4763350000000  0.4549700000000 1.0
C      1  0.6025160000000  0.5456180000000  0.5099570000000 1.0
C      1  0.6012140000000  0.4535300000000  0.5127170000000 1.0
C      1  0.4539000000000  0.5276180000000  0.4143710000000 1.0
C      1  0.4569460000000  0.4711770000000  0.4160620000000 1.0
C      1  0.5501210000000  0.4882010000000  0.5057490000000 1.0
C      1  0.5528620000000  0.5220820000000  0.5040630000000 1.0
C      1  0.4595730000000  0.4253460000000  0.4681340000000 1.0
C      1  0.4673990000000  0.5756530000000  0.4546150000000 1.0
C      1  0.4508370000000  0.5932630000000  0.5192450000000 1.0
C      1  0.4561540000000  0.4088560000000  0.5105850000000 1.0
C      1  0.4837330000000  0.4416180000000  0.5200290000000 1.0
C      1  0.4789520000000  0.5570570000000  0.5237720000000 1.0
C      1  0.5496320000000  0.4073250000000  0.5122430000000 1.0
C      1  0.5377920000000  0.5832180000000  0.5143020000000 1.0
C      1  0.5763610000000  0.5537050000000  0.5506190000000 1.0
C      1  0.5710060000000  0.4478590000000  0.5551430000000 1.0
C      1  0.4905600000000  0.4164380000000  0.4181930000000 1.0
C      1  0.4830790000000  0.5811110000000  0.4187730000000 1.0
C      1  0.5890340000000  0.4822320000000  0.4990580000000 1.0
C      1  0.6043790000000  0.5123810000000  0.5028910000000 1.0
C      1  0.4842830000000  0.5808610000000  0.4817260000000 1.0
C      1  0.4883720000000  0.4199120000000  0.4590720000000 1.0
C      1  0.5147720000000  0.5150060000000  0.5880750000000 1.0
C      1  0.5264760000000  0.4867340000000  0.5906330000000 1.0
C      1  0.4255640000000  0.4236150000000  0.5121560000000 1.0
C      1  0.4204750000000  0.5819730000000  0.5084360000000 1.0
C      1  0.5423890000000  0.4469810000000  0.5444910000000 1.0
C      1  0.5465540000000  0.5566540000000  0.5469380000000 1.0
C      1  0.4688500000000  0.4734110000000  0.4744680000000 1.0
C      1  0.4736820000000  0.5370160000000  0.4746820000000 1.0
C      1  0.5885300000000  0.5636420000000  0.5269400000000 1.0
C      1  0.5880070000000  0.4377420000000  0.5333470000000 1.0
C      1  0.4912710000000  0.4610350000000  0.5596310000000 1.0
C      1  0.4981020000000  0.5452680000000  0.5615000000000 1.0
C      1  0.4884470000000  0.6013500000000  0.4478220000000 1.0
C      1  0.5029080000000  0.3948430000000  0.4424930000000 1.0
C      1  0.5023180000000  0.5571600000000  0.4065850000000 1.0
C      1  0.5009810000000  0.4416380000000  0.4037800000000 1.0
C      1  0.5025910000000  0.6157080000000  0.5338270000000 1.0
C      1  0.5027790000000  0.3797480000000  0.5275890000000 1.0
C      1  0.4880810000000  0.5557190000000  0.5923180000000 1.0
C      1  0.4814280000000  0.4485060000000  0.5896730000000 1.0
C      1  0.5206060000000  0.4479350000000  0.4808460000000 1.0
C      1  0.5027840000000  0.5531990000000  0.4817070000000 1.0
C      1  0.4350680000000  0.4307980000000  0.4314600000000 1.0
C      1  0.4277700000000  0.5696310000000  0.4307570000000 1.0
C      1  0.5475770000000  0.4897970000000  0.4000070000000 1.0
C      1  0.5572750000000  0.5124410000000  0.3953410000000 1.0
C      1  0.4999090000000  0.5306110000000  0.4276980000000 1.0
C      1  0.5042000000000  0.4653510000000  0.4252790000000 1.0
C      1  0.4349070000000  0.5140680000000  0.4296140000000 1.0
C      1  0.4361620000000  0.4862970000000  0.4293070000000 1.0
C      1  0.4556700000000  0.5607200000000  0.4195550000000 1.0
C      1  0.4644910000000  0.4382140000000  0.4197850000000 1.0
C      1  0.6153140000000  0.4984470000000  0.4738580000000 1.0
C      1  0.6232090000000  0.4752080000000  0.4625430000000 1.0
C      1  0.5942920000000  0.5209200000000  0.4651980000000 1.0
C      1  0.6037730000000  0.4536700000000  0.4591900000000 1.0
C      1  0.4348440000000  0.4520450000000  0.4844760000000 1.0
C      1  0.4344020000000  0.5515860000000  0.4841750000000 1.0
C      1  0.5078500000000  0.4607590000000  0.5096590000000 1.0
C      1  0.5046460000000  0.5391250000000  0.5126210000000 1.0
C      1  0.5453040000000  0.5480660000000  0.5898530000000 1.0
C      1  0.5252550000000  0.4391810000000  0.5796420000000 1.0
C      1  0.5705740000000  0.4770690000000  0.4707290000000 1.0
C      1  0.5620460000000  0.5259910000000  0.4756800000000 1.0
C      1  0.5833070000000  0.5310530000000  0.5666110000000 1.0
C      1  0.5741910000000  0.4729470000000  0.5778700000000 1.0
C      1  0.5318930000000  0.4775120000000  0.4825220000000 1.0
C      1  0.5147540000000  0.5044810000000  0.4755000000000 1.0
C      1  0.5505930000000  0.5812180000000  0.4366390000000 1.0
C      1  0.5733790000000  0.4190470000000  0.4403560000000 1.0
C      1  0.5623810000000  0.5321270000000  0.4192700000000 1.0
C      1  0.5635570000000  0.4616250000000  0.4234050000000 1.0
C      1  0.4740490000000  0.5459670000000  0.4435710000000 1.0
C      1  0.4654750000000  0.4512130000000  0.4495660000000 1.0
C      1  0.5307050000000  0.5718920000000  0.5715020000000 1.0
C      1  0.5229780000000  0.4211240000000  0.5531340000000 1.0
C      1  0.4897470000000  0.4273160000000  0.5568250000000 1.0
C      1  0.4990770000000  0.5792590000000  0.5614060000000 1.0
C      1  0.4897730000000  0.5845650000000  0.5291340000000 1.0
C      1  0.4919440000000  0.4124650000000  0.5278910000000 1.0
C      1  0.5449750000000  0.4238990000000  0.4829140000000 1.0
C      1  0.5280130000000  0.5760150000000  0.4825400000000 1.0
C      1  0.4947940000000  0.5111850000000  0.4975700000000 1.0
C      1  0.4874430000000  0.4799790000000  0.4960180000000 1.0
C      1  0.4849900000000  0.4786080000000  0.4488940000000 1.0
C      1  0.4989670000000  0.5045580000000  0.4491950000000 1.0
C      1  0.4088690000000  0.4310710000000  0.4853990000000 1.0
C      1  0.4039100000000  0.5637790000000  0.4849630000000 1.0
C      1  0.5347910000000  0.5317400000000  0.4345950000000 1.0
C      1  0.5330470000000  0.4764850000000  0.4255310000000 1.0
C      1  0.5574390000000  0.4936890000000  0.5907080000000 1.0
C      1  0.5634690000000  0.5230690000000  0.5867680000000 1.0
C      1  0.3963100000000  0.5128460000000  0.4725370000000 1.0
C      1  0.3944290000000  0.4816110000000  0.4657920000000 1.0
C      1  0.4812980000000  0.3907310000000  0.5040100000000 1.0
C      1  0.4791720000000  0.6093520000000  0.5092210000000 1.0
C      1  0.5832410000000  0.5150210000000  0.4364950000000 1.0
C      1  0.5787880000000  0.4861210000000  0.4387610000000 1.0
C      1  0.4785760000000  0.4889130000000  0.5474690000000 1.0
C      1  0.4804660000000  0.5228470000000  0.5507980000000 1.0
C      1  0.6015430000000  0.5494040000000  0.4810170000000 1.0
C      1  0.5942360000000  0.4456730000000  0.4841430000000 1.0
END
