TITL C-3289322-3858-399 0.000245135554695138 125000 -271.676080703366 0 0 50 (C1) n - 1
REM
REM in /nfs/bkarasulu/CARBON/AIRSS/Generating-Clusters/AIREBO/with-SteepDescent/Higher-Symm/SD-CG/HFTN-CG
REM
REM
REM
REM
REM
REM ./C.cell (b20cbc046b6831c77cfcea5457e17084)
REM
REM compiler GCC version 9.2.1 20190827 (Red Hat 9.2.1-1)
REM options -cpp -mtune=generic -march=x86-64 -g -O0 -fpre-include=/usr/include/finclude/math-vector-fortran.h
REM seed -1241541805 54846576 1968882503 1051590066 1903338643 2019709 1360462651 637771938 713739976 -1528627144 -692623383 693750241 -837384464 1203249565 871069640 1269946453 -1035791226 2029795815 -747102010 -1602330036 -1693230997 -11137581 -1706986071 -2013215181 -765054086 1665419236 1436406024 -632857944 1293322760 -912539920 1231540085 740332528 -1802615158
REM
CELL 1.54180   50.00000   50.00000   50.00000   90.00000   90.00000   90.00000
LATT -1
SFAC C  
C      1  0.4990080000000  0.5696250000000  0.4951270000000 1.0
C      1  0.4932250000000  0.5595560000000  0.5430090000000 1.0
C      1  0.4998310000000  0.5338920000000  0.5603230000000 1.0
C      1  0.5040010000000  0.4874470000000  0.5660390000000 1.0
C      1  0.5060660000000  0.4508930000000  0.5499530000000 1.0
C      1  0.5021870000000  0.4310130000000  0.5082570000000 1.0
C      1  0.5061870000000  0.4386790000000  0.4597390000000 1.0
C      1  0.5007310000000  0.4635280000000  0.4409030000000 1.0
C      1  0.4936660000000  0.5089090000000  0.4329200000000 1.0
C      1  0.4911740000000  0.5522740000000  0.4531110000000 1.0
C      1  0.5793740000000  0.5097320000000  0.4796920000000 1.0
C      1  0.4307420000000  0.5289250000000  0.4835850000000 1.0
C      1  0.5711360000000  0.5256970000000  0.5070540000000 1.0
C      1  0.4259420000000  0.5238070000000  0.5162570000000 1.0
C      1  0.5703070000000  0.5018510000000  0.5305820000000 1.0
C      1  0.4204770000000  0.4908360000000  0.5189400000000 1.0
C      1  0.5706180000000  0.4716700000000  0.5152540000000 1.0
C      1  0.4288020000000  0.4749900000000  0.4916370000000 1.0
C      1  0.5741160000000  0.4767240000000  0.4824670000000 1.0
C      1  0.4307230000000  0.4989250000000  0.4681570000000 1.0
C      1  0.5557380000000  0.4757250000000  0.5444880000000 1.0
C      1  0.4471410000000  0.4693470000000  0.5195840000000 1.0
C      1  0.5507890000000  0.4553910000000  0.4941830000000 1.0
C      1  0.4514200000000  0.4734270000000  0.4682310000000 1.0
C      1  0.5574890000000  0.4945060000000  0.4593760000000 1.0
C      1  0.4459020000000  0.5248790000000  0.4543040000000 1.0
C      1  0.5526670000000  0.5311260000000  0.4792040000000 1.0
C      1  0.4497950000000  0.5450770000000  0.5055590000000 1.0
C      1  0.5486260000000  0.5265110000000  0.5306730000000 1.0
C      1  0.4419360000000  0.5059010000000  0.5397510000000 1.0
C      1  0.4872420000000  0.5133580000000  0.4815370000000 1.0
C      1  0.5197440000000  0.5233150000000  0.4825430000000 1.0
C      1  0.4760050000000  0.5247530000000  0.5088630000000 1.0
C      1  0.5207480000000  0.5164320000000  0.5143610000000 1.0
C      1  0.4715290000000  0.5050700000000  0.5339820000000 1.0
C      1  0.5127260000000  0.4867770000000  0.5180140000000 1.0
C      1  0.4801630000000  0.4770370000000  0.5167870000000 1.0
C      1  0.5242430000000  0.4752910000000  0.4910520000000 1.0
C      1  0.4791360000000  0.4837030000000  0.4850450000000 1.0
C      1  0.5279410000000  0.4949430000000  0.4656850000000 1.0
C      1  0.4797150000000  0.5570510000000  0.5157860000000 1.0
C      1  0.5207700000000  0.5412870000000  0.5364130000000 1.0
C      1  0.4894370000000  0.5087990000000  0.5578730000000 1.0
C      1  0.5264950000000  0.4753890000000  0.5459180000000 1.0
C      1  0.4912930000000  0.4472950000000  0.5271020000000 1.0
C      1  0.5206000000000  0.4426090000000  0.4861370000000 1.0
C      1  0.4790340000000  0.4577490000000  0.4643780000000 1.0
C      1  0.5098370000000  0.4892280000000  0.4421110000000 1.0
C      1  0.4756480000000  0.5249670000000  0.4533120000000 1.0
C      1  0.5078800000000  0.5540850000000  0.4747410000000 1.0
END
