TITL C-3289321-8710-452 -0.0034025800624082 125000 -870.701030332159 0 0 161 (C1) n - 1
REM
REM in /nfs/bkarasulu/CARBON/AIRSS/Generating-Clusters/AIREBO/with-SteepDescent/Higher-Symm/SD-CG/HFTN-CG
REM
REM
REM
REM
REM
REM ./C.cell (b20cbc046b6831c77cfcea5457e17084)
REM
REM compiler GCC version 9.2.1 20190827 (Red Hat 9.2.1-1)
REM options -cpp -mtune=generic -march=x86-64 -g -O0 -fpre-include=/usr/include/finclude/math-vector-fortran.h
REM seed -316589098 1693091753 -310191013 1541461262 -530040276 1840424475 2090926083 393358279 1906603247 -97439646 262465772 -1911597260 -1478196502 1642632355 -1220472928 503370535 -1332810437 -1831272419 -1691318289 -1923797555 350110851 -631233915 1204439644 -1808264365 -186939968 1835470019 1411569380 -847605712 -1343994466 -1135723178 321060625 595510278 135744667
REM
CELL 1.54180   50.00000   50.00000   50.00000   90.00000   90.00000   90.00000
LATT -1
SFAC C  
C      1  0.5311140000000  0.4014740000000  0.5320560000000 1.0
C      1  0.5000030000000  0.3966160000000  0.5334290000000 1.0
C      1  0.5375460000000  0.5578140000000  0.5393270000000 1.0
C      1  0.5133110000000  0.4422430000000  0.5819060000000 1.0
C      1  0.4830160000000  0.4761530000000  0.5552140000000 1.0
C      1  0.4885040000000  0.5583110000000  0.5386550000000 1.0
C      1  0.5572900000000  0.5451470000000  0.5977690000000 1.0
C      1  0.4943760000000  0.4587120000000  0.4127000000000 1.0
C      1  0.5687350000000  0.5616340000000  0.5474810000000 1.0
C      1  0.4659200000000  0.5466570000000  0.4526270000000 1.0
C      1  0.4615340000000  0.4572960000000  0.4038550000000 1.0
C      1  0.3969160000000  0.5360740000000  0.5186770000000 1.0
C      1  0.5516340000000  0.4516720000000  0.4165020000000 1.0
C      1  0.4657470000000  0.4133250000000  0.4605400000000 1.0
C      1  0.5318520000000  0.4488620000000  0.5409590000000 1.0
C      1  0.4283510000000  0.5168760000000  0.4932150000000 1.0
C      1  0.5664930000000  0.4587100000000  0.4654480000000 1.0
C      1  0.4989340000000  0.4774420000000  0.4619000000000 1.0
C      1  0.4644010000000  0.5514680000000  0.5170800000000 1.0
C      1  0.4450620000000  0.4381530000000  0.4619570000000 1.0
C      1  0.4690550000000  0.4859010000000  0.4616920000000 1.0
C      1  0.6086330000000  0.4892580000000  0.5313160000000 1.0
C      1  0.4548700000000  0.5068000000000  0.4189900000000 1.0
C      1  0.5715230000000  0.5388320000000  0.5119070000000 1.0
C      1  0.5321620000000  0.4904390000000  0.5018560000000 1.0
C      1  0.4450680000000  0.5937250000000  0.4632910000000 1.0
C      1  0.4238080000000  0.5499840000000  0.4925430000000 1.0
C      1  0.5120880000000  0.5172990000000  0.5780800000000 1.0
C      1  0.4897000000000  0.5255090000000  0.4019000000000 1.0
C      1  0.4884650000000  0.4970320000000  0.3996700000000 1.0
C      1  0.4569440000000  0.5900990000000  0.5101840000000 1.0
C      1  0.5406860000000  0.5326620000000  0.5556640000000 1.0
C      1  0.4657460000000  0.4481040000000  0.5626650000000 1.0
C      1  0.4161030000000  0.4280780000000  0.4691440000000 1.0
C      1  0.4074480000000  0.4959830000000  0.4457970000000 1.0
C      1  0.5923460000000  0.5279190000000  0.4529590000000 1.0
C      1  0.5343930000000  0.5360730000000  0.4218620000000 1.0
C      1  0.5543130000000  0.5181090000000  0.5960710000000 1.0
C      1  0.5437570000000  0.4948710000000  0.6114320000000 1.0
C      1  0.5483340000000  0.5153470000000  0.4751800000000 1.0
C      1  0.4242350000000  0.5755710000000  0.4698940000000 1.0
C      1  0.5193080000000  0.5129860000000  0.4605280000000 1.0
C      1  0.4780670000000  0.5211250000000  0.4393130000000 1.0
C      1  0.5390770000000  0.5124350000000  0.5213790000000 1.0
C      1  0.4409660000000  0.4683890000000  0.5262480000000 1.0
C      1  0.5268790000000  0.4417930000000  0.4903700000000 1.0
C      1  0.5061810000000  0.4209540000000  0.5563580000000 1.0
C      1  0.4529160000000  0.4048150000000  0.4896290000000 1.0
C      1  0.5046510000000  0.5427350000000  0.5128030000000 1.0
C      1  0.4257290000000  0.4403440000000  0.5177110000000 1.0
C      1  0.4184230000000  0.4713290000000  0.4935240000000 1.0
C      1  0.4857270000000  0.6042950000000  0.4983010000000 1.0
C      1  0.4995740000000  0.4434540000000  0.5317330000000 1.0
C      1  0.5707310000000  0.4963970000000  0.5412450000000 1.0
C      1  0.4961320000000  0.5461500000000  0.5697550000000 1.0
C      1  0.5573800000000  0.4832980000000  0.4820940000000 1.0
C      1  0.4619230000000  0.5223810000000  0.5345290000000 1.0
C      1  0.5554620000000  0.5071500000000  0.5661590000000 1.0
C      1  0.4539440000000  0.5079750000000  0.5074840000000 1.0
C      1  0.4775530000000  0.4429190000000  0.4856380000000 1.0
C      1  0.4700030000000  0.4665570000000  0.6237290000000 1.0
C      1  0.6027720000000  0.5049100000000  0.4737070000000 1.0
C      1  0.5911980000000  0.4761930000000  0.5550540000000 1.0
C      1  0.5493850000000  0.4850980000000  0.4223960000000 1.0
C      1  0.4304220000000  0.4923970000000  0.4696720000000 1.0
C      1  0.5341340000000  0.5983490000000  0.4836640000000 1.0
C      1  0.5301120000000  0.4903980000000  0.5804420000000 1.0
C      1  0.5024190000000  0.5412490000000  0.4676190000000 1.0
C      1  0.4515630000000  0.5166760000000  0.5901150000000 1.0
C      1  0.4963130000000  0.5193710000000  0.4925030000000 1.0
C      1  0.5042280000000  0.4622040000000  0.4901130000000 1.0
C      1  0.5153130000000  0.4687710000000  0.5630170000000 1.0
C      1  0.5773180000000  0.5160740000000  0.4929700000000 1.0
C      1  0.5404350000000  0.5884840000000  0.5537190000000 1.0
C      1  0.4934280000000  0.4442540000000  0.4563610000000 1.0
C      1  0.5470470000000  0.4388230000000  0.5773840000000 1.0
C      1  0.5632560000000  0.4382540000000  0.5485490000000 1.0
C      1  0.4029080000000  0.5538670000000  0.4591570000000 1.0
C      1  0.4042760000000  0.5660100000000  0.5562680000000 1.0
C      1  0.5129850000000  0.4095310000000  0.4420030000000 1.0
C      1  0.4663040000000  0.5202510000000  0.4818400000000 1.0
C      1  0.4418650000000  0.4689830000000  0.4188910000000 1.0
C      1  0.4518850000000  0.4625260000000  0.5967810000000 1.0
C      1  0.5025480000000  0.3965860000000  0.4852120000000 1.0
C      1  0.4761200000000  0.4033390000000  0.5144430000000 1.0
C      1  0.5460020000000  0.6107930000000  0.4373810000000 1.0
C      1  0.4113280000000  0.4848290000000  0.5232710000000 1.0
C      1  0.5032160000000  0.4921700000000  0.4988270000000 1.0
C      1  0.5561630000000  0.5159820000000  0.4169860000000 1.0
C      1  0.5379810000000  0.5441130000000  0.5100840000000 1.0
C      1  0.4747270000000  0.4648960000000  0.5240650000000 1.0
C      1  0.5331820000000  0.5994490000000  0.5248760000000 1.0
C      1  0.4751060000000  0.5519550000000  0.4849530000000 1.0
C      1  0.4440040000000  0.5210050000000  0.4572630000000 1.0
C      1  0.4852930000000  0.5083090000000  0.5636180000000 1.0
C      1  0.4075270000000  0.4408370000000  0.4922270000000 1.0
C      1  0.4521410000000  0.5609000000000  0.4262510000000 1.0
C      1  0.4367310000000  0.5666910000000  0.5175710000000 1.0
C      1  0.5476850000000  0.5655270000000  0.5771200000000 1.0
C      1  0.5455260000000  0.4118130000000  0.5091400000000 1.0
C      1  0.4930150000000  0.5851490000000  0.4514100000000 1.0
C      1  0.4723430000000  0.4326210000000  0.4333340000000 1.0
C      1  0.5585230000000  0.4780460000000  0.5158350000000 1.0
C      1  0.4135400000000  0.4763730000000  0.5540450000000 1.0
C      1  0.5985700000000  0.4380460000000  0.5009620000000 1.0
C      1  0.4390950000000  0.4343800000000  0.5478310000000 1.0
C      1  0.3908440000000  0.4979260000000  0.4703160000000 1.0
C      1  0.4540780000000  0.4911940000000  0.5455690000000 1.0
C      1  0.5030530000000  0.6044550000000  0.4731090000000 1.0
C      1  0.5701460000000  0.5342560000000  0.4391280000000 1.0
C      1  0.5495830000000  0.4454420000000  0.5121460000000 1.0
C      1  0.4652200000000  0.5854790000000  0.4441230000000 1.0
C      1  0.5388530000000  0.4100480000000  0.5611660000000 1.0
C      1  0.5787450000000  0.5294550000000  0.5426840000000 1.0
C      1  0.5498510000000  0.5493050000000  0.4786310000000 1.0
C      1  0.5561360000000  0.5854840000000  0.4345380000000 1.0
C      1  0.5456530000000  0.5573720000000  0.4458540000000 1.0
C      1  0.5271950000000  0.4501050000000  0.4593250000000 1.0
C      1  0.4641660000000  0.5342870000000  0.5664360000000 1.0
C      1  0.5465610000000  0.4044840000000  0.4808490000000 1.0
C      1  0.5387490000000  0.4122750000000  0.4539650000000 1.0
C      1  0.5125290000000  0.5634910000000  0.4507700000000 1.0
C      1  0.5309530000000  0.6180130000000  0.4597290000000 1.0
C      1  0.3943030000000  0.5346550000000  0.4854060000000 1.0
C      1  0.5012600000000  0.4266020000000  0.4215750000000 1.0
C      1  0.5025520000000  0.5933790000000  0.5694310000000 1.0
C      1  0.5992750000000  0.5500460000000  0.5251480000000 1.0
C      1  0.4447590000000  0.4684240000000  0.4502500000000 1.0
C      1  0.4471610000000  0.4150310000000  0.5216590000000 1.0
C      1  0.5144410000000  0.5705180000000  0.5792510000000 1.0
C      1  0.4345930000000  0.4608940000000  0.5675160000000 1.0
C      1  0.4622980000000  0.5379060000000  0.4068320000000 1.0
C      1  0.5279540000000  0.4827670000000  0.4484470000000 1.0
C      1  0.4924420000000  0.5889000000000  0.5431860000000 1.0
C      1  0.3932230000000  0.5057710000000  0.5033330000000 1.0
C      1  0.6040410000000  0.5001170000000  0.5071360000000 1.0
C      1  0.4814320000000  0.4151050000000  0.5789260000000 1.0
C      1  0.5238340000000  0.4688980000000  0.4068140000000 1.0
C      1  0.5967480000000  0.4531990000000  0.4776940000000 1.0
C      1  0.5626280000000  0.5827210000000  0.5214780000000 1.0
C      1  0.4805060000000  0.4445950000000  0.5920570000000 1.0
C      1  0.6007600000000  0.4778460000000  0.4598670000000 1.0
C      1  0.4273820000000  0.5455620000000  0.4437980000000 1.0
C      1  0.4935790000000  0.3998180000000  0.4599650000000 1.0
C      1  0.4509300000000  0.4950050000000  0.6018970000000 1.0
C      1  0.4706530000000  0.4829520000000  0.4955390000000 1.0
C      1  0.4546790000000  0.6088210000000  0.4852010000000 1.0
C      1  0.5762900000000  0.4806820000000  0.4414480000000 1.0
C      1  0.5049380000000  0.6020630000000  0.5219530000000 1.0
C      1  0.4238950000000  0.4940220000000  0.4224320000000 1.0
C      1  0.5209440000000  0.5089380000000  0.5462460000000 1.0
C      1  0.5000610000000  0.4249840000000  0.5037520000000 1.0
C      1  0.4105140000000  0.5564240000000  0.5313500000000 1.0
C      1  0.4943240000000  0.5192830000000  0.5327290000000 1.0
C      1  0.5766150000000  0.4560390000000  0.5711760000000 1.0
C      1  0.5082520000000  0.5243040000000  0.4304090000000 1.0
C      1  0.4486600000000  0.4582750000000  0.4885650000000 1.0
C      1  0.5528280000000  0.4383010000000  0.4438040000000 1.0
C      1  0.5809350000000  0.4353170000000  0.5211320000000 1.0
C      1  0.5493460000000  0.5789880000000  0.4945520000000 1.0
C      1  0.4776730000000  0.4835770000000  0.4288530000000 1.0
END
