TITL C-3289321-8710-334 -0.000762993500461542 125000 -843.417904485312 0 0 153 (C1) n - 1
REM
REM in /nfs/bkarasulu/CARBON/AIRSS/Generating-Clusters/AIREBO/with-SteepDescent/Higher-Symm/SD-CG/HFTN-CG
REM
REM
REM
REM
REM
REM ./C.cell (b20cbc046b6831c77cfcea5457e17084)
REM
REM compiler GCC version 9.2.1 20190827 (Red Hat 9.2.1-1)
REM options -cpp -mtune=generic -march=x86-64 -g -O0 -fpre-include=/usr/include/finclude/math-vector-fortran.h
REM seed -931231913 -1857001798 -44310139 -1322661868 510739531 1469543106 -1921524972 1924996852 1759444075 -1779144959 -1922005370 624895177 734220777 -619599383 1079002367 -2052442373 1150000246 -316648388 -1985676982 1644328081 412322232 -611169971 -2118197786 -2033912171 -1654924972 136671966 830231377 -86237095 -1423033348 1230407091 -136612676 241739834 -1667398107
REM
CELL 1.54180   50.00000   50.00000   50.00000   90.00000   90.00000   90.00000
LATT -1
SFAC C  
C      1  0.5550360000000  0.4339810000000  0.4450720000000 1.0
C      1  0.4130520000000  0.4849900000000  0.4440740000000 1.0
C      1  0.5365210000000  0.5863920000000  0.4464130000000 1.0
C      1  0.5973970000000  0.4622670000000  0.5029610000000 1.0
C      1  0.4178570000000  0.4379480000000  0.5036250000000 1.0
C      1  0.4809260000000  0.6040390000000  0.4986360000000 1.0
C      1  0.4451220000000  0.4865860000000  0.5346110000000 1.0
C      1  0.5163800000000  0.5615990000000  0.5298920000000 1.0
C      1  0.5415190000000  0.4589780000000  0.5330750000000 1.0
C      1  0.5288720000000  0.3871780000000  0.4922810000000 1.0
C      1  0.3886980000000  0.5350480000000  0.4884240000000 1.0
C      1  0.5871180000000  0.5800350000000  0.4915760000000 1.0
C      1  0.4230150000000  0.4750090000000  0.5571910000000 1.0
C      1  0.5165610000000  0.5744880000000  0.5605850000000 1.0
C      1  0.5600760000000  0.4502080000000  0.5590210000000 1.0
C      1  0.5362680000000  0.4483030000000  0.5910910000000 1.0
C      1  0.4350720000000  0.4922410000000  0.5985620000000 1.0
C      1  0.5299820000000  0.5596050000000  0.5966920000000 1.0
C      1  0.5909130000000  0.5516440000000  0.5545390000000 1.0
C      1  0.4926270000000  0.3986250000000  0.5560320000000 1.0
C      1  0.4322230000000  0.5381980000000  0.5482250000000 1.0
C      1  0.4799640000000  0.4970390000000  0.5005760000000 1.0
C      1  0.5095470000000  0.5120290000000  0.5017250000000 1.0
C      1  0.5069640000000  0.4782140000000  0.5068540000000 1.0
C      1  0.4356480000000  0.5203710000000  0.5902790000000 1.0
C      1  0.5535580000000  0.5450950000000  0.5878680000000 1.0
C      1  0.5119440000000  0.4365120000000  0.5844900000000 1.0
C      1  0.5169590000000  0.5167280000000  0.5738110000000 1.0
C      1  0.5049020000000  0.4850570000000  0.5708560000000 1.0
C      1  0.4752330000000  0.5013750000000  0.5676170000000 1.0
C      1  0.5294880000000  0.5362970000000  0.4325970000000 1.0
C      1  0.5129260000000  0.4577820000000  0.4328870000000 1.0
C      1  0.4566250000000  0.5052220000000  0.4331460000000 1.0
C      1  0.5593190000000  0.5717150000000  0.4641860000000 1.0
C      1  0.5346340000000  0.4168130000000  0.4661720000000 1.0
C      1  0.4104690000000  0.5117960000000  0.4643730000000 1.0
C      1  0.4375070000000  0.4459450000000  0.4146220000000 1.0
C      1  0.4812330000000  0.5849670000000  0.4360640000000 1.0
C      1  0.5745010000000  0.4764380000000  0.4166950000000 1.0
C      1  0.4853570000000  0.5710220000000  0.5532750000000 1.0
C      1  0.5733950000000  0.4786730000000  0.5544070000000 1.0
C      1  0.4415310000000  0.4471330000000  0.5548960000000 1.0
C      1  0.4422370000000  0.5872060000000  0.5231040000000 1.0
C      1  0.6062910000000  0.5054800000000  0.5252890000000 1.0
C      1  0.4476470000000  0.4059050000000  0.5272330000000 1.0
C      1  0.4946960000000  0.5021820000000  0.4639070000000 1.0
C      1  0.5089410000000  0.5297620000000  0.4645390000000 1.0
C      1  0.5141210000000  0.4802830000000  0.4678930000000 1.0
C      1  0.4276000000000  0.4628860000000  0.4596010000000 1.0
C      1  0.5106170000000  0.5849340000000  0.4624260000000 1.0
C      1  0.5673730000000  0.4570560000000  0.4611770000000 1.0
C      1  0.4787040000000  0.5710980000000  0.5211820000000 1.0
C      1  0.5721550000000  0.4849800000000  0.5237790000000 1.0
C      1  0.4455630000000  0.4454300000000  0.5218800000000 1.0
C      1  0.4835900000000  0.5521530000000  0.4933490000000 1.0
C      1  0.5531330000000  0.4895070000000  0.4959470000000 1.0
C      1  0.4629320000000  0.4581310000000  0.4955210000000 1.0
C      1  0.4504450000000  0.5181240000000  0.5322110000000 1.0
C      1  0.5386090000000  0.5285350000000  0.5276320000000 1.0
C      1  0.5135160000000  0.4444120000000  0.5357980000000 1.0
C      1  0.5328230000000  0.4845990000000  0.3951030000000 1.0
C      1  0.4666990000000  0.4771940000000  0.3950430000000 1.0
C      1  0.4917310000000  0.5485780000000  0.4033250000000 1.0
C      1  0.5803990000000  0.5009970000000  0.4791130000000 1.0
C      1  0.4593870000000  0.4285450000000  0.4790980000000 1.0
C      1  0.4621260000000  0.5699900000000  0.4738090000000 1.0
C      1  0.5483820000000  0.5289790000000  0.4978620000000 1.0
C      1  0.4995880000000  0.4450820000000  0.5047760000000 1.0
C      1  0.4472250000000  0.5264730000000  0.5017650000000 1.0
C      1  0.4379820000000  0.4714760000000  0.4015080000000 1.0
C      1  0.5003550000000  0.5739120000000  0.4146830000000 1.0
C      1  0.5528740000000  0.4632380000000  0.4036600000000 1.0
C      1  0.5898530000000  0.4716120000000  0.4775060000000 1.0
C      1  0.4294680000000  0.4364010000000  0.4760550000000 1.0
C      1  0.4807550000000  0.5952540000000  0.4686070000000 1.0
C      1  0.5747380000000  0.5167980000000  0.5155790000000 1.0
C      1  0.4737730000000  0.4268640000000  0.5178660000000 1.0
C      1  0.4495230000000  0.5552840000000  0.5137910000000 1.0
C      1  0.4919550000000  0.4562090000000  0.5833880000000 1.0
C      1  0.4626150000000  0.5266590000000  0.5822560000000 1.0
C      1  0.5458220000000  0.5178390000000  0.5852860000000 1.0
C      1  0.4762360000000  0.3991740000000  0.5355660000000 1.0
C      1  0.4251000000000  0.5631550000000  0.5350530000000 1.0
C      1  0.5967610000000  0.5332760000000  0.5350920000000 1.0
C      1  0.5416470000000  0.4059260000000  0.5567870000000 1.0
C      1  0.3940710000000  0.5128870000000  0.5619410000000 1.0
C      1  0.5455910000000  0.5537810000000  0.5426840000000 1.0
C      1  0.4901870000000  0.4598950000000  0.4756310000000 1.0
C      1  0.4728400000000  0.5229150000000  0.4796880000000 1.0
C      1  0.5321120000000  0.5079850000000  0.4766000000000 1.0
C      1  0.4936650000000  0.4688120000000  0.5431710000000 1.0
C      1  0.4838890000000  0.5144300000000  0.5373890000000 1.0
C      1  0.5172780000000  0.5095660000000  0.5417930000000 1.0
C      1  0.5629780000000  0.4206950000000  0.5163060000000 1.0
C      1  0.3969740000000  0.4888890000000  0.5156460000000 1.0
C      1  0.5399170000000  0.5952450000000  0.5134290000000 1.0
C      1  0.4733730000000  0.5311040000000  0.4466550000000 1.0
C      1  0.5437030000000  0.5076930000000  0.4446130000000 1.0
C      1  0.4805070000000  0.4562760000000  0.4432310000000 1.0
C      1  0.5738930000000  0.5206480000000  0.4534010000000 1.0
C      1  0.4796720000000  0.4235760000000  0.4525220000000 1.0
C      1  0.4473190000000  0.5531820000000  0.4485080000000 1.0
C      1  0.5464720000000  0.4614060000000  0.4836880000000 1.0
C      1  0.4434860000000  0.4786080000000  0.4812210000000 1.0
C      1  0.5143540000000  0.5636040000000  0.4845680000000 1.0
C      1  0.4293350000000  0.4918730000000  0.4208730000000 1.0
C      1  0.5273420000000  0.5690700000000  0.4246210000000 1.0
C      1  0.5405460000000  0.4446780000000  0.4221620000000 1.0
C      1  0.6035770000000  0.5544180000000  0.4773090000000 1.0
C      1  0.4983060000000  0.3843920000000  0.4787710000000 1.0
C      1  0.4036790000000  0.5611770000000  0.4733150000000 1.0
C      1  0.5323810000000  0.4870000000000  0.5227790000000 1.0
C      1  0.4708570000000  0.4762790000000  0.5231740000000 1.0
C      1  0.5006850000000  0.5374350000000  0.5187910000000 1.0
C      1  0.4524120000000  0.4803260000000  0.5734330000000 1.0
C      1  0.5056290000000  0.5474570000000  0.5781210000000 1.0
C      1  0.5374660000000  0.4730880000000  0.5702550000000 1.0
C      1  0.4976770000000  0.5287180000000  0.4229650000000 1.0
C      1  0.5271450000000  0.4856590000000  0.4245020000000 1.0
C      1  0.4739410000000  0.4824560000000  0.4225020000000 1.0
C      1  0.5715100000000  0.4513430000000  0.5188350000000 1.0
C      1  0.4213010000000  0.4689570000000  0.5179040000000 1.0
C      1  0.5061540000000  0.5898150000000  0.5139040000000 1.0
C      1  0.5589890000000  0.4986530000000  0.5709790000000 1.0
C      1  0.4677090000000  0.4520230000000  0.5704450000000 1.0
C      1  0.4738920000000  0.5482540000000  0.5688690000000 1.0
C      1  0.4946650000000  0.5573210000000  0.4506190000000 1.0
C      1  0.5670410000000  0.4830450000000  0.4423330000000 1.0
C      1  0.4476050000000  0.4482500000000  0.4400910000000 1.0
C      1  0.4376700000000  0.5041020000000  0.4825370000000 1.0
C      1  0.5392050000000  0.5538020000000  0.4841930000000 1.0
C      1  0.5278140000000  0.4430580000000  0.4859190000000 1.0
C      1  0.5589570000000  0.5449680000000  0.4431340000000 1.0
C      1  0.5095120000000  0.4290400000000  0.4467940000000 1.0
C      1  0.4339750000000  0.5252970000000  0.4438420000000 1.0
C      1  0.5248920000000  0.3848330000000  0.4599530000000 1.0
C      1  0.3898700000000  0.5374680000000  0.4558340000000 1.0
C      1  0.5921760000000  0.5789350000000  0.4592330000000 1.0
C      1  0.5643780000000  0.5547410000000  0.5632090000000 1.0
C      1  0.5141060000000  0.4200250000000  0.5587300000000 1.0
C      1  0.4172790000000  0.5275050000000  0.5695310000000 1.0
C      1  0.4762440000000  0.3993490000000  0.4733370000000 1.0
C      1  0.4284780000000  0.5710040000000  0.4677530000000 1.0
C      1  0.5995340000000  0.5282350000000  0.4710970000000 1.0
C      1  0.6144450000000  0.4801510000000  0.5171060000000 1.0
C      1  0.4226260000000  0.4116620000000  0.5207860000000 1.0
C      1  0.4576560000000  0.6076330000000  0.5125070000000 1.0
C      1  0.3954710000000  0.5062420000000  0.4948830000000 1.0
C      1  0.5578620000000  0.5876440000000  0.4944780000000 1.0
C      1  0.5494190000000  0.4090240000000  0.4961370000000 1.0
C      1  0.5606590000000  0.4218100000000  0.5457440000000 1.0
C      1  0.3988450000000  0.4900230000000  0.5458430000000 1.0
C      1  0.5338780000000  0.5954010000000  0.5421650000000 1.0
END
