TITL C-3289333-7213-662 -0.00426265351312595 125000 -943.291805866396 0 0 173 (C1) n - 1
REM
REM in /nfs/bkarasulu/CARBON/AIRSS/Generating-Clusters/AIREBO/with-SteepDescent/Higher-Symm/SD-CG/HFTN-CG
REM
REM
REM
REM
REM
REM ./C.cell (b20cbc046b6831c77cfcea5457e17084)
REM
REM compiler GCC version 9.2.1 20190827 (Red Hat 9.2.1-1)
REM options -cpp -mtune=generic -march=x86-64 -g -O0 -fpre-include=/usr/include/finclude/math-vector-fortran.h
REM seed -1908090282 -1924393001 -1326478557 -1811617430 -1834097294 347738724 -535761486 828997764 658696752 312032594 90342127 -296850802 -1882206615 397461646 -195220481 -1637006692 93892513 -1089493284 680336648 1641013761 1037288640 -544696979 1794016637 -2119293397 973070904 1407923468 -245607949 399315788 211771386 101541660 -2046158040 2004236302 2064184718
REM
CELL 1.54180   50.00000   50.00000   50.00000   90.00000   90.00000   90.00000
LATT -1
SFAC C  
C      1  0.5438530000000  0.5264980000000  0.5207290000000 1.0
C      1  0.5368180000000  0.4199220000000  0.4533880000000 1.0
C      1  0.4790570000000  0.5261450000000  0.4654510000000 1.0
C      1  0.4641450000000  0.4341470000000  0.5370370000000 1.0
C      1  0.5012290000000  0.5256860000000  0.3899240000000 1.0
C      1  0.5458070000000  0.6013960000000  0.5101060000000 1.0
C      1  0.4336140000000  0.5315450000000  0.4192360000000 1.0
C      1  0.4142560000000  0.4418020000000  0.4777100000000 1.0
C      1  0.5576870000000  0.5282210000000  0.5777760000000 1.0
C      1  0.4804890000000  0.5162170000000  0.4151470000000 1.0
C      1  0.4967430000000  0.4283770000000  0.5333770000000 1.0
C      1  0.5594030000000  0.4322360000000  0.5735000000000 1.0
C      1  0.5487060000000  0.5089990000000  0.4159530000000 1.0
C      1  0.4469080000000  0.4512090000000  0.4763270000000 1.0
C      1  0.4336070000000  0.4635280000000  0.5051110000000 1.0
C      1  0.5816860000000  0.5121750000000  0.4571930000000 1.0
C      1  0.6134280000000  0.4967090000000  0.5011060000000 1.0
C      1  0.4628280000000  0.4612650000000  0.5202230000000 1.0
C      1  0.4331610000000  0.4937160000000  0.4728390000000 1.0
C      1  0.4243550000000  0.4249310000000  0.5011650000000 1.0
C      1  0.5176060000000  0.5703700000000  0.4083780000000 1.0
C      1  0.4457760000000  0.4296080000000  0.4500730000000 1.0
C      1  0.4872120000000  0.4828950000000  0.4147040000000 1.0
C      1  0.4974510000000  0.5537910000000  0.3914690000000 1.0
C      1  0.4056920000000  0.5471000000000  0.4763580000000 1.0
C      1  0.5031570000000  0.4551050000000  0.4455430000000 1.0
C      1  0.5697250000000  0.4969090000000  0.5837870000000 1.0
C      1  0.4787730000000  0.5923000000000  0.4653110000000 1.0
C      1  0.5728250000000  0.4960160000000  0.4362740000000 1.0
C      1  0.3958350000000  0.4637730000000  0.5175430000000 1.0
C      1  0.4703380000000  0.5993340000000  0.5251960000000 1.0
C      1  0.5375730000000  0.3980840000000  0.5221540000000 1.0
C      1  0.4809720000000  0.4807700000000  0.5375600000000 1.0
C      1  0.5712340000000  0.5459800000000  0.5584550000000 1.0
C      1  0.5212850000000  0.6115330000000  0.5293830000000 1.0
C      1  0.4458260000000  0.5911350000000  0.5429070000000 1.0
C      1  0.5058720000000  0.5874540000000  0.4277700000000 1.0
C      1  0.5249040000000  0.5099180000000  0.3915520000000 1.0
C      1  0.5495320000000  0.4554320000000  0.4250390000000 1.0
C      1  0.4139850000000  0.5131520000000  0.4400430000000 1.0
C      1  0.5316490000000  0.4341310000000  0.4270340000000 1.0
C      1  0.4623560000000  0.4804950000000  0.4842040000000 1.0
C      1  0.4810560000000  0.5577450000000  0.4179130000000 1.0
C      1  0.4751000000000  0.5492850000000  0.4900490000000 1.0
C      1  0.4868630000000  0.5506880000000  0.5337720000000 1.0
C      1  0.4574950000000  0.5192250000000  0.4400700000000 1.0
C      1  0.4626710000000  0.6094800000000  0.4952970000000 1.0
C      1  0.5477250000000  0.4274110000000  0.5142980000000 1.0
C      1  0.4978770000000  0.3972740000000  0.5258700000000 1.0
C      1  0.5576740000000  0.5406050000000  0.4204300000000 1.0
C      1  0.6019590000000  0.4490470000000  0.5424200000000 1.0
C      1  0.4942980000000  0.4605420000000  0.5567910000000 1.0
C      1  0.5273150000000  0.5087370000000  0.4741400000000 1.0
C      1  0.4758850000000  0.5427410000000  0.5911510000000 1.0
C      1  0.4289530000000  0.4762530000000  0.5351760000000 1.0
C      1  0.5218390000000  0.5346560000000  0.4568000000000 1.0
C      1  0.5400350000000  0.5544710000000  0.4678250000000 1.0
C      1  0.5058580000000  0.5299320000000  0.6038220000000 1.0
C      1  0.4413610000000  0.5033550000000  0.4017790000000 1.0
C      1  0.5335640000000  0.5708890000000  0.5442060000000 1.0
C      1  0.5773070000000  0.4702230000000  0.5411560000000 1.0
C      1  0.5188900000000  0.3827050000000  0.5048910000000 1.0
C      1  0.5141780000000  0.5469010000000  0.4971180000000 1.0
C      1  0.5200760000000  0.5864450000000  0.4553580000000 1.0
C      1  0.5769110000000  0.4808040000000  0.5107340000000 1.0
C      1  0.4623760000000  0.5208180000000  0.5689470000000 1.0
C      1  0.5521400000000  0.4725610000000  0.4907190000000 1.0
C      1  0.5015160000000  0.5193910000000  0.4876340000000 1.0
C      1  0.4752790000000  0.4102790000000  0.5039680000000 1.0
C      1  0.4270190000000  0.5322900000000  0.4983120000000 1.0
C      1  0.5350950000000  0.4798840000000  0.5735990000000 1.0
C      1  0.4747780000000  0.4953910000000  0.5878230000000 1.0
C      1  0.5498490000000  0.4338560000000  0.4815310000000 1.0
C      1  0.6007690000000  0.4662140000000  0.4929870000000 1.0
C      1  0.4587870000000  0.5389080000000  0.5403750000000 1.0
C      1  0.4391820000000  0.5274070000000  0.4675330000000 1.0
C      1  0.5231880000000  0.4020140000000  0.5483910000000 1.0
C      1  0.5813180000000  0.4324960000000  0.5129690000000 1.0
C      1  0.4843800000000  0.5730340000000  0.5112210000000 1.0
C      1  0.4257280000000  0.5381940000000  0.5313650000000 1.0
C      1  0.4726060000000  0.4511790000000  0.4076800000000 1.0
C      1  0.4861880000000  0.5077170000000  0.5515240000000 1.0
C      1  0.5570750000000  0.5533470000000  0.5339150000000 1.0
C      1  0.4496470000000  0.5613580000000  0.4224410000000 1.0
C      1  0.4467850000000  0.4045870000000  0.4645900000000 1.0
C      1  0.4993870000000  0.5665730000000  0.4736480000000 1.0
C      1  0.6134490000000  0.4436340000000  0.5132920000000 1.0
C      1  0.5897920000000  0.4355040000000  0.4819750000000 1.0
C      1  0.4470360000000  0.5015260000000  0.5335140000000 1.0
C      1  0.5353040000000  0.4827790000000  0.4324060000000 1.0
C      1  0.5531730000000  0.5812260000000  0.4526100000000 1.0
C      1  0.4902350000000  0.4311510000000  0.5667120000000 1.0
C      1  0.4216920000000  0.5720820000000  0.4929780000000 1.0
C      1  0.4259890000000  0.4831500000000  0.5786930000000 1.0
C      1  0.5291630000000  0.5438860000000  0.4164490000000 1.0
C      1  0.5446990000000  0.4423800000000  0.5447800000000 1.0
C      1  0.3932830000000  0.5123240000000  0.4914510000000 1.0
C      1  0.5173030000000  0.4408980000000  0.5134440000000 1.0
C      1  0.5637350000000  0.4659910000000  0.5708400000000 1.0
C      1  0.5118330000000  0.4270990000000  0.5863380000000 1.0
C      1  0.5147550000000  0.6104300000000  0.4990590000000 1.0
C      1  0.4395560000000  0.4903430000000  0.4396110000000 1.0
C      1  0.5743810000000  0.5154320000000  0.5308400000000 1.0
C      1  0.5358280000000  0.5726350000000  0.5752670000000 1.0
C      1  0.4130110000000  0.4678970000000  0.4636310000000 1.0
C      1  0.5127840000000  0.5216170000000  0.5567110000000 1.0
C      1  0.5754980000000  0.4279670000000  0.5450620000000 1.0
C      1  0.5344210000000  0.5457650000000  0.5917660000000 1.0
C      1  0.4325000000000  0.5720900000000  0.5513180000000 1.0
C      1  0.5117960000000  0.5197810000000  0.4279210000000 1.0
C      1  0.4470510000000  0.4430990000000  0.4253390000000 1.0
C      1  0.5394570000000  0.5765720000000  0.4898480000000 1.0
C      1  0.4118010000000  0.4368220000000  0.5277470000000 1.0
C      1  0.4276810000000  0.5414050000000  0.5651610000000 1.0
C      1  0.5871610000000  0.5095880000000  0.5583070000000 1.0
C      1  0.4858590000000  0.4599530000000  0.4979080000000 1.0
C      1  0.4476340000000  0.5526620000000  0.5881330000000 1.0
C      1  0.5241040000000  0.4641560000000  0.5491570000000 1.0
C      1  0.3973820000000  0.5203930000000  0.4622960000000 1.0
C      1  0.5112310000000  0.4104230000000  0.4677840000000 1.0
C      1  0.5185220000000  0.4679470000000  0.4928680000000 1.0
C      1  0.4988770000000  0.4998810000000  0.6020260000000 1.0
C      1  0.5256220000000  0.4825720000000  0.5227320000000 1.0
C      1  0.5206120000000  0.4779580000000  0.6014240000000 1.0
C      1  0.5076000000000  0.6093900000000  0.4732990000000 1.0
C      1  0.5698670000000  0.4581250000000  0.4686180000000 1.0
C      1  0.5703440000000  0.4174570000000  0.4604970000000 1.0
C      1  0.5481560000000  0.5059280000000  0.4960900000000 1.0
C      1  0.4572030000000  0.5314750000000  0.5079020000000 1.0
C      1  0.4770750000000  0.4518490000000  0.4606530000000 1.0
C      1  0.4491420000000  0.5843790000000  0.4790200000000 1.0
C      1  0.4585880000000  0.4202110000000  0.5661580000000 1.0
C      1  0.5149540000000  0.4467030000000  0.6051840000000 1.0
C      1  0.5833810000000  0.5399200000000  0.4590950000000 1.0
C      1  0.4718790000000  0.5858910000000  0.4326360000000 1.0
C      1  0.5712170000000  0.4680550000000  0.4409300000000 1.0
C      1  0.4569810000000  0.4802400000000  0.3993660000000 1.0
C      1  0.5172300000000  0.4857980000000  0.4076370000000 1.0
C      1  0.5178740000000  0.4801140000000  0.4611030000000 1.0
C      1  0.4471660000000  0.4079180000000  0.4936280000000 1.0
C      1  0.4986360000000  0.5993290000000  0.5419430000000 1.0
C      1  0.4328190000000  0.5605800000000  0.4621250000000 1.0
C      1  0.5516240000000  0.4875070000000  0.6091230000000 1.0
C      1  0.3949840000000  0.4183840000000  0.5410320000000 1.0
C      1  0.5778380000000  0.5024090000000  0.4844960000000 1.0
C      1  0.4435790000000  0.4628840000000  0.5731880000000 1.0
C      1  0.4006120000000  0.5167100000000  0.5230300000000 1.0
C      1  0.5102870000000  0.5287070000000  0.5257410000000 1.0
C      1  0.5320410000000  0.4148640000000  0.5716160000000 1.0
C      1  0.4980800000000  0.4990220000000  0.5145150000000 1.0
C      1  0.5020450000000  0.5707080000000  0.5540150000000 1.0
C      1  0.3999880000000  0.4912290000000  0.5363160000000 1.0
C      1  0.5655520000000  0.5703950000000  0.5086680000000 1.0
C      1  0.4712750000000  0.4790910000000  0.4445040000000 1.0
C      1  0.5693780000000  0.5545490000000  0.4408210000000 1.0
C      1  0.4364470000000  0.4473430000000  0.5468370000000 1.0
C      1  0.5130290000000  0.3852320000000  0.4779900000000 1.0
C      1  0.4318440000000  0.5088550000000  0.5630500000000 1.0
C      1  0.4940750000000  0.5014590000000  0.4495250000000 1.0
C      1  0.4701960000000  0.4702400000000  0.5764910000000 1.0
C      1  0.4964780000000  0.5521040000000  0.4434950000000 1.0
C      1  0.5512210000000  0.4919530000000  0.5391080000000 1.0
C      1  0.5180290000000  0.5735080000000  0.5160780000000 1.0
C      1  0.4657050000000  0.5018130000000  0.5073650000000 1.0
C      1  0.5940870000000  0.5213440000000  0.5069060000000 1.0
C      1  0.5028820000000  0.4421700000000  0.4192620000000 1.0
C      1  0.5793720000000  0.5790470000000  0.4741780000000 1.0
C      1  0.5852330000000  0.5496450000000  0.4902210000000 1.0
C      1  0.4117520000000  0.4873060000000  0.4984810000000 1.0
C      1  0.5376240000000  0.5086950000000  0.5633780000000 1.0
C      1  0.4293680000000  0.4646190000000  0.4239420000000 1.0
C      1  0.4905220000000  0.4298910000000  0.4826540000000 1.0
C      1  0.5051860000000  0.5470150000000  0.5744210000000 1.0
END
