TITL C-3289327-5623-357 -2.44793991995303e-05 125000 -716.956993955757 0 0 138 (C1) n - 1
REM
REM in /nfs/bkarasulu/CARBON/AIRSS/Generating-Clusters/AIREBO/with-SteepDescent/Higher-Symm/SD-CG/HFTN-CG
REM
REM
REM
REM
REM
REM ./C.cell (b20cbc046b6831c77cfcea5457e17084)
REM
REM compiler GCC version 9.2.1 20190827 (Red Hat 9.2.1-1)
REM options -cpp -mtune=generic -march=x86-64 -g -O0 -fpre-include=/usr/include/finclude/math-vector-fortran.h
REM seed -15684341 253881726 -437706019 -1553436730 1399273787 -205255362 2119684077 66614636 -1729827150 1632191873 -2062967244 994531354 -857162169 724971124 696990725 -902746545 -1017424470 2141785917 498929513 1768822568 -620249737 -799992509 560063332 1385719937 -686764509 -1474381438 1617299096 1174468486 911570948 990432472 2136416695 -1891346970 1823664548
REM
CELL 1.54180   50.00000   50.00000   50.00000   90.00000   90.00000   90.00000
LATT -1
SFAC C  
C      1  0.5032150000000  0.5710860000000  0.4371110000000 1.0
C      1  0.4432810000000  0.5724840000000  0.5335090000000 1.0
C      1  0.5319210000000  0.5682450000000  0.5531280000000 1.0
C      1  0.4795240000000  0.5658480000000  0.4161930000000 1.0
C      1  0.4406680000000  0.5636140000000  0.5642460000000 1.0
C      1  0.5748790000000  0.5629310000000  0.5239900000000 1.0
C      1  0.4095770000000  0.4948980000000  0.4702940000000 1.0
C      1  0.5256030000000  0.4920570000000  0.5985060000000 1.0
C      1  0.5732540000000  0.4913450000000  0.4322010000000 1.0
C      1  0.5077260000000  0.5469220000000  0.4150520000000 1.0
C      1  0.4235880000000  0.5478140000000  0.5391720000000 1.0
C      1  0.5594460000000  0.5489050000000  0.5479490000000 1.0
C      1  0.4158320000000  0.5023580000000  0.4442530000000 1.0
C      1  0.4978100000000  0.5011110000000  0.6022290000000 1.0
C      1  0.5943310000000  0.4990240000000  0.4500330000000 1.0
C      1  0.4740560000000  0.5488530000000  0.4559510000000 1.0
C      1  0.4710180000000  0.5459060000000  0.5451820000000 1.0
C      1  0.5424790000000  0.5511860000000  0.5036880000000 1.0
C      1  0.5675830000000  0.5221890000000  0.4684460000000 1.0
C      1  0.4485960000000  0.5264350000000  0.4586020000000 1.0
C      1  0.4889380000000  0.5244710000000  0.5633970000000 1.0
C      1  0.4828700000000  0.5940140000000  0.5117300000000 1.0
C      1  0.5142480000000  0.5937450000000  0.5111880000000 1.0
C      1  0.4976590000000  0.5921330000000  0.4838320000000 1.0
C      1  0.5488050000000  0.5141260000000  0.4341110000000 1.0
C      1  0.4218120000000  0.5178840000000  0.4917280000000 1.0
C      1  0.5358750000000  0.5161420000000  0.5792670000000 1.0
C      1  0.5270690000000  0.4745460000000  0.4854410000000 1.0
C      1  0.4760030000000  0.4748810000000  0.4827760000000 1.0
C      1  0.4968880000000  0.4734940000000  0.5303490000000 1.0
C      1  0.4835310000000  0.4937260000000  0.4443010000000 1.0
C      1  0.4590680000000  0.4938410000000  0.5477150000000 1.0
C      1  0.5582400000000  0.4944710000000  0.5110340000000 1.0
C      1  0.5281570000000  0.4614330000000  0.5732880000000 1.0
C      1  0.5497790000000  0.4596000000000  0.4376520000000 1.0
C      1  0.4239940000000  0.4621060000000  0.4878740000000 1.0
C      1  0.5246870000000  0.4915030000000  0.5586250000000 1.0
C      1  0.5374340000000  0.4874780000000  0.4492210000000 1.0
C      1  0.4408560000000  0.4897210000000  0.4944010000000 1.0
C      1  0.5011280000000  0.5148450000000  0.4242490000000 1.0
C      1  0.4356890000000  0.5161080000000  0.5369850000000 1.0
C      1  0.5608000000000  0.5168850000000  0.5365030000000 1.0
C      1  0.5184190000000  0.5320500000000  0.5607240000000 1.0
C      1  0.5467810000000  0.5414960000000  0.4515970000000 1.0
C      1  0.4401850000000  0.5453490000000  0.4836910000000 1.0
C      1  0.4852100000000  0.4641960000000  0.4174960000000 1.0
C      1  0.4396280000000  0.4601050000000  0.5545900000000 1.0
C      1  0.5734220000000  0.4605380000000  0.5242860000000 1.0
C      1  0.5170840000000  0.4357610000000  0.5020870000000 1.0
C      1  0.4911410000000  0.4292670000000  0.4810780000000 1.0
C      1  0.4889950000000  0.4333990000000  0.5214140000000 1.0
C      1  0.4792110000000  0.5198010000000  0.5249890000000 1.0
C      1  0.5270160000000  0.5207790000000  0.5010910000000 1.0
C      1  0.4892460000000  0.5239190000000  0.4728250000000 1.0
C      1  0.5184450000000  0.4918140000000  0.5114770000000 1.0
C      1  0.5018270000000  0.4936160000000  0.4729710000000 1.0
C      1  0.4786370000000  0.4930660000000  0.5113880000000 1.0
C      1  0.5112050000000  0.4516660000000  0.4659200000000 1.0
C      1  0.4657440000000  0.4540490000000  0.5076150000000 1.0
C      1  0.5229410000000  0.4543920000000  0.5299360000000 1.0
C      1  0.5911220000000  0.5250180000000  0.5246500000000 1.0
C      1  0.4762220000000  0.5196820000000  0.4019450000000 1.0
C      1  0.4306120000000  0.5229360000000  0.5699090000000 1.0
C      1  0.4373700000000  0.5646470000000  0.4568590000000 1.0
C      1  0.5036490000000  0.5609080000000  0.5705900000000 1.0
C      1  0.5697300000000  0.5617110000000  0.4628480000000 1.0
C      1  0.5829910000000  0.4484230000000  0.4769640000000 1.0
C      1  0.4417270000000  0.4542680000000  0.4369750000000 1.0
C      1  0.4760160000000  0.4529410000000  0.5884790000000 1.0
C      1  0.5540380000000  0.4810660000000  0.5833240000000 1.0
C      1  0.5482170000000  0.4812930000000  0.4115040000000 1.0
C      1  0.4020110000000  0.4845180000000  0.5009370000000 1.0
C      1  0.5614780000000  0.5336670000000  0.5764870000000 1.0
C      1  0.5364810000000  0.5337600000000  0.4118630000000 1.0
C      1  0.4063010000000  0.5355930000000  0.5147490000000 1.0
C      1  0.4999920000000  0.5585440000000  0.6040310000000 1.0
C      1  0.5943320000000  0.5585030000000  0.4487140000000 1.0
C      1  0.4099130000000  0.5608980000000  0.4445600000000 1.0
C      1  0.5172970000000  0.4151220000000  0.5731720000000 1.0
C      1  0.5434830000000  0.4103070000000  0.4511270000000 1.0
C      1  0.4338390000000  0.4153120000000  0.4813660000000 1.0
C      1  0.4950410000000  0.5312680000000  0.5958700000000 1.0
C      1  0.5948220000000  0.5295410000000  0.4494560000000 1.0
C      1  0.4194900000000  0.5324480000000  0.4420410000000 1.0
C      1  0.4782390000000  0.5459750000000  0.4955250000000 1.0
C      1  0.5020360000000  0.5445800000000  0.5203310000000 1.0
C      1  0.5204720000000  0.5469960000000  0.4804520000000 1.0
C      1  0.5565510000000  0.4393860000000  0.4594310000000 1.0
C      1  0.4382840000000  0.4437460000000  0.4669360000000 1.0
C      1  0.5034440000000  0.4441890000000  0.5741690000000 1.0
C      1  0.5245770000000  0.4959230000000  0.4082710000000 1.0
C      1  0.4105520000000  0.4972070000000  0.5239660000000 1.0
C      1  0.5665220000000  0.4964690000000  0.5631670000000 1.0
C      1  0.4136310000000  0.4490550000000  0.5385380000000 1.0
C      1  0.5787540000000  0.4498790000000  0.5542470000000 1.0
C      1  0.5095780000000  0.4549600000000  0.3986290000000 1.0
C      1  0.5288240000000  0.5279780000000  0.5331290000000 1.0
C      1  0.5144270000000  0.5309750000000  0.4510770000000 1.0
C      1  0.4514540000000  0.5339130000000  0.5126660000000 1.0
C      1  0.5339630000000  0.4263790000000  0.5457430000000 1.0
C      1  0.5202750000000  0.4312210000000  0.4411410000000 1.0
C      1  0.4485510000000  0.4248550000000  0.5105110000000 1.0
C      1  0.5551600000000  0.4428980000000  0.5665730000000 1.0
C      1  0.5304460000000  0.4456430000000  0.4141010000000 1.0
C      1  0.4196640000000  0.4421330000000  0.5125350000000 1.0
C      1  0.5808520000000  0.4743230000000  0.4955520000000 1.0
C      1  0.4584890000000  0.4785110000000  0.4266380000000 1.0
C      1  0.4582990000000  0.4758190000000  0.5765410000000 1.0
C      1  0.4704370000000  0.5566560000000  0.5772810000000 1.0
C      1  0.5714220000000  0.5538620000000  0.4924850000000 1.0
C      1  0.4545360000000  0.5532720000000  0.4297960000000 1.0
C      1  0.5104060000000  0.4084690000000  0.5301690000000 1.0
C      1  0.5239860000000  0.4024860000000  0.5034320000000 1.0
C      1  0.4735980000000  0.4095630000000  0.4933380000000 1.0
C      1  0.4462490000000  0.4739310000000  0.5240800000000 1.0
C      1  0.5452280000000  0.4760640000000  0.5362390000000 1.0
C      1  0.5092000000000  0.4717760000000  0.4403740000000 1.0
C      1  0.6114250000000  0.5311600000000  0.5396990000000 1.0
C      1  0.4812550000000  0.5186430000000  0.3751240000000 1.0
C      1  0.4052460000000  0.5207680000000  0.5800730000000 1.0
C      1  0.4395800000000  0.5024880000000  0.4250750000000 1.0
C      1  0.4682780000000  0.5025560000000  0.5903070000000 1.0
C      1  0.5954980000000  0.4963190000000  0.4798450000000 1.0
C      1  0.4873280000000  0.4386330000000  0.4370220000000 1.0
C      1  0.4552830000000  0.4322230000000  0.5430200000000 1.0
C      1  0.5546350000000  0.4326140000000  0.5194570000000 1.0
C      1  0.5897400000000  0.5257540000000  0.4939920000000 1.0
C      1  0.4518950000000  0.5255700000000  0.4154120000000 1.0
C      1  0.4549460000000  0.5270930000000  0.5840040000000 1.0
C      1  0.4701400000000  0.5684770000000  0.5197680000000 1.0
C      1  0.5248090000000  0.5686210000000  0.5229930000000 1.0
C      1  0.4996880000000  0.5675250000000  0.4675280000000 1.0
C      1  0.4583660000000  0.4992760000000  0.4669610000000 1.0
C      1  0.4921260000000  0.4957070000000  0.5541020000000 1.0
C      1  0.5517900000000  0.4965770000000  0.4777000000000 1.0
C      1  0.4835670000000  0.4487450000000  0.5494910000000 1.0
C      1  0.5455350000000  0.4462960000000  0.4896000000000 1.0
C      1  0.4715300000000  0.4478650000000  0.4627660000000 1.0
END
