TITL C-3289333-7213-398 -0.000768417968782674 125000 -989.93630415149 0 0 184 (C1) n - 1
REM
REM in /nfs/bkarasulu/CARBON/AIRSS/Generating-Clusters/AIREBO/with-SteepDescent/Higher-Symm/SD-CG/HFTN-CG
REM
REM
REM
REM
REM
REM ./C.cell (b20cbc046b6831c77cfcea5457e17084)
REM
REM compiler GCC version 9.2.1 20190827 (Red Hat 9.2.1-1)
REM options -cpp -mtune=generic -march=x86-64 -g -O0 -fpre-include=/usr/include/finclude/math-vector-fortran.h
REM seed -167761683 355322188 -1436400299 -2090684508 -2017823543 -1434224500 1767761464 -1055735184 -917619639 175528404 -1888083325 -1864055035 -1152375784 1523439065 -1532308789 881086040 1716343111 694373285 626771102 1963416198 579598326 2053247356 -1758239893 -837050699 -1514881339 1515317018 -487360467 -391113104 1101567645 720968233 454735842 -2123969941 -2092361093
REM
CELL 1.54180   50.00000   50.00000   50.00000   90.00000   90.00000   90.00000
LATT -1
SFAC C  
C      1  0.4512010000000  0.4786440000000  0.4867230000000 1.0
C      1  0.4377700000000  0.4728080000000  0.5164420000000 1.0
C      1  0.4540460000000  0.5055900000000  0.5321500000000 1.0
C      1  0.4472510000000  0.5340480000000  0.5122840000000 1.0
C      1  0.4453330000000  0.5103370000000  0.4779310000000 1.0
C      1  0.5546340000000  0.4922590000000  0.5221130000000 1.0
C      1  0.5495700000000  0.4716920000000  0.4884070000000 1.0
C      1  0.5546610000000  0.4999420000000  0.4701780000000 1.0
C      1  0.5561840000000  0.5293130000000  0.5079300000000 1.0
C      1  0.5530040000000  0.5198820000000  0.5412430000000 1.0
C      1  0.4385700000000  0.5008900000000  0.5926620000000 1.0
C      1  0.4478630000000  0.5866490000000  0.5303610000000 1.0
C      1  0.4437230000000  0.5471550000000  0.4254200000000 1.0
C      1  0.4439360000000  0.4427980000000  0.4328900000000 1.0
C      1  0.4367590000000  0.4205230000000  0.5304570000000 1.0
C      1  0.5573530000000  0.5060640000000  0.4016550000000 1.0
C      1  0.5537900000000  0.5820070000000  0.4664330000000 1.0
C      1  0.5554190000000  0.5418310000000  0.5740540000000 1.0
C      1  0.5466440000000  0.4322660000000  0.5628600000000 1.0
C      1  0.5601450000000  0.4266830000000  0.4736190000000 1.0
C      1  0.5081310000000  0.4256290000000  0.4764040000000 1.0
C      1  0.4911550000000  0.4505390000000  0.5717910000000 1.0
C      1  0.4973400000000  0.5564230000000  0.5743070000000 1.0
C      1  0.4966480000000  0.5660050000000  0.4610410000000 1.0
C      1  0.5006530000000  0.5047400000000  0.4144140000000 1.0
C      1  0.5060040000000  0.4268780000000  0.5259660000000 1.0
C      1  0.5079220000000  0.4550720000000  0.4309490000000 1.0
C      1  0.5010680000000  0.5448820000000  0.4248070000000 1.0
C      1  0.5230640000000  0.5864780000000  0.5353390000000 1.0
C      1  0.4977760000000  0.4985610000000  0.5813370000000 1.0
C      1  0.4662600000000  0.4411710000000  0.4595840000000 1.0
C      1  0.4612640000000  0.4398480000000  0.5408840000000 1.0
C      1  0.4789920000000  0.5222270000000  0.5657290000000 1.0
C      1  0.4635290000000  0.5772140000000  0.5025490000000 1.0
C      1  0.4718380000000  0.5314990000000  0.4364490000000 1.0
C      1  0.5376340000000  0.4583060000000  0.5476420000000 1.0
C      1  0.5318590000000  0.4436000000000  0.4670190000000 1.0
C      1  0.5328990000000  0.5097820000000  0.4250020000000 1.0
C      1  0.5381500000000  0.5733160000000  0.4941730000000 1.0
C      1  0.5234720000000  0.5378170000000  0.5629000000000 1.0
C      1  0.4700830000000  0.6084510000000  0.5262600000000 1.0
C      1  0.4645190000000  0.5460620000000  0.3999740000000 1.0
C      1  0.4674790000000  0.4191550000000  0.4263490000000 1.0
C      1  0.4616410000000  0.4003490000000  0.5419090000000 1.0
C      1  0.4619100000000  0.5179290000000  0.6088010000000 1.0
C      1  0.5373790000000  0.6092000000000  0.4786950000000 1.0
C      1  0.5353750000000  0.5406760000000  0.6005880000000 1.0
C      1  0.5248720000000  0.4209990000000  0.5751710000000 1.0
C      1  0.5409620000000  0.4102550000000  0.4475260000000 1.0
C      1  0.5304160000000  0.5187470000000  0.3861150000000 1.0
C      1  0.5905510000000  0.5216560000000  0.4370530000000 1.0
C      1  0.5922690000000  0.4604440000000  0.4580860000000 1.0
C      1  0.5873870000000  0.4473670000000  0.5387260000000 1.0
C      1  0.5907270000000  0.5089680000000  0.5445830000000 1.0
C      1  0.5913360000000  0.5725020000000  0.4985410000000 1.0
C      1  0.4165520000000  0.5279180000000  0.5651860000000 1.0
C      1  0.4007920000000  0.4518390000000  0.5433700000000 1.0
C      1  0.4080110000000  0.4554750000000  0.4694850000000 1.0
C      1  0.4154000000000  0.5198340000000  0.4323910000000 1.0
C      1  0.4077880000000  0.5525240000000  0.4884870000000 1.0
C      1  0.5594930000000  0.4474550000000  0.4078160000000 1.0
C      1  0.5587890000000  0.4086670000000  0.5127580000000 1.0
C      1  0.5459630000000  0.4690130000000  0.6003290000000 1.0
C      1  0.5702850000000  0.5833410000000  0.5542030000000 1.0
C      1  0.5485820000000  0.5624200000000  0.4294050000000 1.0
C      1  0.4373510000000  0.4465550000000  0.5879790000000 1.0
C      1  0.4359070000000  0.4024820000000  0.4896260000000 1.0
C      1  0.4567330000000  0.4864100000000  0.4087850000000 1.0
C      1  0.4437470000000  0.5938370000000  0.4575020000000 1.0
C      1  0.4356660000000  0.5721720000000  0.5531530000000 1.0
C      1  0.4078990000000  0.5227300000000  0.4714690000000 1.0
C      1  0.4056270000000  0.4944000000000  0.4527330000000 1.0
C      1  0.3971720000000  0.4663120000000  0.4989770000000 1.0
C      1  0.3973280000000  0.4830840000000  0.5424780000000 1.0
C      1  0.4010250000000  0.5169410000000  0.5042920000000 1.0
C      1  0.6015120000000  0.5118450000000  0.4947900000000 1.0
C      1  0.5988730000000  0.4933580000000  0.5203830000000 1.0
C      1  0.5963690000000  0.4644410000000  0.5120630000000 1.0
C      1  0.6039290000000  0.4843270000000  0.4411050000000 1.0
C      1  0.5955920000000  0.5323520000000  0.4680250000000 1.0
C      1  0.5434910000000  0.5826780000000  0.5605630000000 1.0
C      1  0.5169760000000  0.5730640000000  0.4352880000000 1.0
C      1  0.5328860000000  0.4597670000000  0.4083440000000 1.0
C      1  0.5268460000000  0.4140470000000  0.5023480000000 1.0
C      1  0.5137820000000  0.4689750000000  0.5892800000000 1.0
C      1  0.4684260000000  0.5795870000000  0.4474890000000 1.0
C      1  0.4691060000000  0.5693570000000  0.5594740000000 1.0
C      1  0.4633600000000  0.4576320000000  0.5901540000000 1.0
C      1  0.4592060000000  0.4003510000000  0.5022910000000 1.0
C      1  0.4881210000000  0.4734000000000  0.4102190000000 1.0
C      1  0.4872930000000  0.5169840000000  0.5136200000000 1.0
C      1  0.4747290000000  0.5221220000000  0.4860780000000 1.0
C      1  0.4798380000000  0.4911300000000  0.4730510000000 1.0
C      1  0.4898380000000  0.4706220000000  0.4959580000000 1.0
C      1  0.4790630000000  0.4876480000000  0.5215710000000 1.0
C      1  0.5303640000000  0.5274590000000  0.4858810000000 1.0
C      1  0.5167210000000  0.5291860000000  0.5126350000000 1.0
C      1  0.5220210000000  0.5013540000000  0.5255760000000 1.0
C      1  0.5199890000000  0.4770130000000  0.5045860000000 1.0
C      1  0.5215360000000  0.4973910000000  0.4774050000000 1.0
C      1  0.5129810000000  0.4562890000000  0.5306260000000 1.0
C      1  0.5171850000000  0.5083530000000  0.5551960000000 1.0
C      1  0.5106340000000  0.5573700000000  0.5306770000000 1.0
C      1  0.5234650000000  0.5351190000000  0.4456330000000 1.0
C      1  0.5197580000000  0.4725460000000  0.4577570000000 1.0
C      1  0.4833840000000  0.4421870000000  0.4891050000000 1.0
C      1  0.4820130000000  0.4992600000000  0.4401010000000 1.0
C      1  0.4815240000000  0.5538660000000  0.4869210000000 1.0
C      1  0.4897780000000  0.5365170000000  0.5405030000000 1.0
C      1  0.4894430000000  0.4711800000000  0.5449870000000 1.0
C      1  0.5714550000000  0.4469320000000  0.5657030000000 1.0
C      1  0.5833650000000  0.5405870000000  0.5547130000000 1.0
C      1  0.5804910000000  0.5616200000000  0.4720400000000 1.0
C      1  0.5795180000000  0.4940560000000  0.4204840000000 1.0
C      1  0.5857370000000  0.4459390000000  0.4851290000000 1.0
C      1  0.4245720000000  0.4678960000000  0.4425080000000 1.0
C      1  0.4216570000000  0.5473660000000  0.4513350000000 1.0
C      1  0.4018040000000  0.5463370000000  0.5213840000000 1.0
C      1  0.4201220000000  0.4941020000000  0.5652950000000 1.0
C      1  0.4183290000000  0.4449180000000  0.5154150000000 1.0
C      1  0.4669600000000  0.4466330000000  0.4076740000000 1.0
C      1  0.4816650000000  0.3879230000000  0.5211190000000 1.0
C      1  0.4640690000000  0.4847400000000  0.6085980000000 1.0
C      1  0.4793870000000  0.5980430000000  0.5521880000000 1.0
C      1  0.4676010000000  0.5737520000000  0.4156160000000 1.0
C      1  0.5179600000000  0.4362820000000  0.5976920000000 1.0
C      1  0.5433280000000  0.3974110000000  0.4776800000000 1.0
C      1  0.5307990000000  0.4865400000000  0.3907080000000 1.0
C      1  0.5329410000000  0.6010200000000  0.4469710000000 1.0
C      1  0.5261170000000  0.5696340000000  0.5867520000000 1.0
C      1  0.5052150000000  0.4692040000000  0.3811260000000 1.0
C      1  0.5290200000000  0.3748320000000  0.4955060000000 1.0
C      1  0.5060490000000  0.4481000000000  0.6224130000000 1.0
C      1  0.5152460000000  0.5998370000000  0.5827690000000 1.0
C      1  0.5135460000000  0.6107800000000  0.4227490000000 1.0
C      1  0.4924400000000  0.4730050000000  0.6159920000000 1.0
C      1  0.5078400000000  0.3869960000000  0.5117840000000 1.0
C      1  0.4844900000000  0.4478300000000  0.3798250000000 1.0
C      1  0.4932760000000  0.5898090000000  0.4175630000000 1.0
C      1  0.5061920000000  0.6022880000000  0.5571190000000 1.0
C      1  0.4414760000000  0.4531650000000  0.4753820000000 1.0
C      1  0.4489490000000  0.4669330000000  0.5480230000000 1.0
C      1  0.4475510000000  0.5221750000000  0.5600490000000 1.0
C      1  0.4417160000000  0.5545220000000  0.4896350000000 1.0
C      1  0.4448490000000  0.5147480000000  0.4486050000000 1.0
C      1  0.5595380000000  0.4629000000000  0.5269190000000 1.0
C      1  0.5583520000000  0.4626860000000  0.4568070000000 1.0
C      1  0.5585810000000  0.5161360000000  0.4463730000000 1.0
C      1  0.5563930000000  0.5607440000000  0.5134010000000 1.0
C      1  0.5648460000000  0.4961840000000  0.5625690000000 1.0
C      1  0.4752010000000  0.4213070000000  0.5648590000000 1.0
C      1  0.4843330000000  0.5333430000000  0.5956340000000 1.0
C      1  0.4881580000000  0.6007550000000  0.5028110000000 1.0
C      1  0.4827830000000  0.5261640000000  0.3949150000000 1.0
C      1  0.4876770000000  0.4162230000000  0.4509160000000 1.0
C      1  0.5160360000000  0.4224940000000  0.4372310000000 1.0
C      1  0.5117890000000  0.5369530000000  0.3937730000000 1.0
C      1  0.5188300000000  0.5988060000000  0.5052280000000 1.0
C      1  0.5140850000000  0.5211860000000  0.6015660000000 1.0
C      1  0.5049720000000  0.4157140000000  0.5561020000000 1.0
C      1  0.4604200000000  0.5502220000000  0.4616250000000 1.0
C      1  0.4814440000000  0.4664450000000  0.4490020000000 1.0
C      1  0.4750080000000  0.4265730000000  0.5138720000000 1.0
C      1  0.4697570000000  0.4836030000000  0.5691600000000 1.0
C      1  0.4597150000000  0.5444070000000  0.5387880000000 1.0
C      1  0.5407670000000  0.5499030000000  0.5380000000000 1.0
C      1  0.5333330000000  0.4832080000000  0.5653630000000 1.0
C      1  0.5422600000000  0.4440710000000  0.5065180000000 1.0
C      1  0.5393960000000  0.4792810000000  0.4339610000000 1.0
C      1  0.5252580000000  0.5545750000000  0.4718130000000 1.0
C      1  0.5799400000000  0.4277410000000  0.5127940000000 1.0
C      1  0.5673060000000  0.4700050000000  0.5813200000000 1.0
C      1  0.5835350000000  0.5647920000000  0.5307740000000 1.0
C      1  0.5687440000000  0.5479300000000  0.4431380000000 1.0
C      1  0.5751810000000  0.4609100000000  0.4273060000000 1.0
C      1  0.4219820000000  0.4292160000000  0.4859580000000 1.0
C      1  0.4358240000000  0.4929450000000  0.4267650000000 1.0
C      1  0.4248650000000  0.5754590000000  0.4687940000000 1.0
C      1  0.4143170000000  0.5517170000000  0.5475250000000 1.0
C      1  0.4206930000000  0.4611540000000  0.5660400000000 1.0
C      1  0.6258330000000  0.5300800000000  0.4800220000000 1.0
C      1  0.3925010000000  0.4891840000000  0.5152390000000 1.0
C      1  0.5704850000000  0.5056380000000  0.4953090000000 1.0
C      1  0.4302140000000  0.5049420000000  0.5079080000000 1.0
END
