TITL C-3289321-8710-257 -0.000772834293829513 125000 -330.391664864422 0 0 62 (C1) n - 1
REM
REM in /nfs/bkarasulu/CARBON/AIRSS/Generating-Clusters/AIREBO/with-SteepDescent/Higher-Symm/SD-CG/HFTN-CG
REM
REM
REM
REM
REM
REM ./C.cell (b20cbc046b6831c77cfcea5457e17084)
REM
REM compiler GCC version 9.2.1 20190827 (Red Hat 9.2.1-1)
REM options -cpp -mtune=generic -march=x86-64 -g -O0 -fpre-include=/usr/include/finclude/math-vector-fortran.h
REM seed -1939870872 -819735419 1264194120 1109262440 2027577273 -1658045949 -1154686593 -844431380 1390561264 -866295005 1081180283 141622143 -115025512 1219818760 248855860 1291919261 1470117256 1482510020 -323385083 1283939889 1786479901 1151149 -707111211 -35647257 -625853726 945270584 1670417413 -57003574 -2008819213 1108119277 770518333 -1943743253 1596486160
REM
CELL 1.54180   50.00000   50.00000   50.00000   90.00000   90.00000   90.00000
LATT -1
SFAC C  
C      1  0.4403190000000  0.4658910000000  0.4834880000000 1.0
C      1  0.4454180000000  0.4669910000000  0.5119690000000 1.0
C      1  0.5225560000000  0.5554000000000  0.5557020000000 1.0
C      1  0.5239980000000  0.5597790000000  0.4436040000000 1.0
C      1  0.5041280000000  0.5673680000000  0.5147030000000 1.0
C      1  0.4990770000000  0.5766740000000  0.4828410000000 1.0
C      1  0.5175390000000  0.4377410000000  0.5254460000000 1.0
C      1  0.5161480000000  0.4385090000000  0.4750680000000 1.0
C      1  0.5405100000000  0.4611730000000  0.5257990000000 1.0
C      1  0.5378220000000  0.4616380000000  0.4741380000000 1.0
C      1  0.5647560000000  0.5283050000000  0.5145450000000 1.0
C      1  0.5623780000000  0.5309140000000  0.4867850000000 1.0
C      1  0.4689380000000  0.5058020000000  0.5351500000000 1.0
C      1  0.4684280000000  0.5026840000000  0.4633290000000 1.0
C      1  0.5163870000000  0.4825470000000  0.5576240000000 1.0
C      1  0.5160180000000  0.4850750000000  0.4444420000000 1.0
C      1  0.4827880000000  0.5183210000000  0.4295410000000 1.0
C      1  0.4838810000000  0.5207460000000  0.5690000000000 1.0
C      1  0.5298590000000  0.5475060000000  0.5142800000000 1.0
C      1  0.5235950000000  0.5529310000000  0.4829430000000 1.0
C      1  0.5334450000000  0.4142590000000  0.5119680000000 1.0
C      1  0.5333540000000  0.4151630000000  0.4864010000000 1.0
C      1  0.5626090000000  0.4781510000000  0.5163370000000 1.0
C      1  0.5613870000000  0.4803760000000  0.4865690000000 1.0
C      1  0.4743790000000  0.4800550000000  0.5183830000000 1.0
C      1  0.4717710000000  0.4787820000000  0.4844370000000 1.0
C      1  0.4686930000000  0.4384120000000  0.5366700000000 1.0
C      1  0.4685570000000  0.4367590000000  0.4633780000000 1.0
C      1  0.5000760000000  0.4678720000000  0.4690750000000 1.0
C      1  0.5017480000000  0.4674120000000  0.5308760000000 1.0
C      1  0.5440450000000  0.5349660000000  0.5407850000000 1.0
C      1  0.5423030000000  0.5369520000000  0.4597670000000 1.0
C      1  0.4734010000000  0.5401490000000  0.4503650000000 1.0
C      1  0.4710890000000  0.5425090000000  0.5508610000000 1.0
C      1  0.4278600000000  0.5304220000000  0.4850230000000 1.0
C      1  0.4282560000000  0.5312090000000  0.5127320000000 1.0
C      1  0.4823380000000  0.5321960000000  0.5204780000000 1.0
C      1  0.4810660000000  0.5283990000000  0.4807840000000 1.0
C      1  0.4751570000000  0.4563560000000  0.5584980000000 1.0
C      1  0.4758270000000  0.4535410000000  0.4408050000000 1.0
C      1  0.4826450000000  0.4849370000000  0.4379050000000 1.0
C      1  0.4831200000000  0.4879690000000  0.5596280000000 1.0
C      1  0.4413720000000  0.4409580000000  0.4704960000000 1.0
C      1  0.4420890000000  0.4435480000000  0.5274810000000 1.0
C      1  0.5112110000000  0.5155970000000  0.5528160000000 1.0
C      1  0.5051840000000  0.5141030000000  0.4524820000000 1.0
C      1  0.5428700000000  0.5059640000000  0.4457420000000 1.0
C      1  0.5429870000000  0.5040010000000  0.5547890000000 1.0
C      1  0.5129280000000  0.5207040000000  0.4849300000000 1.0
C      1  0.5123360000000  0.5187490000000  0.5189740000000 1.0
C      1  0.4984100000000  0.5611010000000  0.5428380000000 1.0
C      1  0.4977000000000  0.5623820000000  0.4537560000000 1.0
C      1  0.4867560000000  0.4341590000000  0.4856840000000 1.0
C      1  0.4872870000000  0.4337590000000  0.5150710000000 1.0
C      1  0.5300630000000  0.4922990000000  0.4808040000000 1.0
C      1  0.5241790000000  0.4887330000000  0.5194020000000 1.0
C      1  0.4750000000000  0.5570130000000  0.4897630000000 1.0
C      1  0.4630880000000  0.5598690000000  0.5160210000000 1.0
C      1  0.4449850000000  0.5288100000000  0.5334170000000 1.0
C      1  0.4449880000000  0.5272950000000  0.4646320000000 1.0
C      1  0.5635290000000  0.5020840000000  0.5299560000000 1.0
C      1  0.5653710000000  0.5060300000000  0.4688230000000 1.0
END
