TITL C-3289322-3858-697 0.000879538368871458 125000 -635.385072974003 0 0 121 (C1) n - 1
REM
REM in /nfs/bkarasulu/CARBON/AIRSS/Generating-Clusters/AIREBO/with-SteepDescent/Higher-Symm/SD-CG/HFTN-CG
REM
REM
REM
REM
REM
REM ./C.cell (b20cbc046b6831c77cfcea5457e17084)
REM
REM compiler GCC version 9.2.1 20190827 (Red Hat 9.2.1-1)
REM options -cpp -mtune=generic -march=x86-64 -g -O0 -fpre-include=/usr/include/finclude/math-vector-fortran.h
REM seed 191397125 -847008 102583922 -553414041 521488613 -2076482024 1517148443 1405044270 207576642 1429244321 -97075363 613135751 995721290 1286816855 -1732477597 1605564592 -999872288 -596923005 -940896657 -59668965 1988360668 -1269964080 615322475 -2090627095 -1157865543 -771913660 -1333601394 1140228079 -95326751 1364349569 -1875912736 516584240 397661840
REM
CELL 1.54180   50.00000   50.00000   50.00000   90.00000   90.00000   90.00000
LATT -1
SFAC C  
C      1  0.5014140000000  0.4374220000000  0.5747550000000 1.0
C      1  0.5015730000000  0.5576420000000  0.4239010000000 1.0
C      1  0.5146760000000  0.5780660000000  0.5238000000000 1.0
C      1  0.4887580000000  0.4222830000000  0.4737540000000 1.0
C      1  0.5454710000000  0.4635840000000  0.5117910000000 1.0
C      1  0.4586680000000  0.5334770000000  0.4890170000000 1.0
C      1  0.4985850000000  0.4033210000000  0.5134270000000 1.0
C      1  0.5080240000000  0.5926780000000  0.4871940000000 1.0
C      1  0.4718750000000  0.5860620000000  0.4549040000000 1.0
C      1  0.5300560000000  0.4147600000000  0.5472420000000 1.0
C      1  0.5095050000000  0.4736290000000  0.4783010000000 1.0
C      1  0.4935400000000  0.5231820000000  0.5222440000000 1.0
C      1  0.4667850000000  0.4294110000000  0.4202890000000 1.0
C      1  0.5305950000000  0.5708900000000  0.5800940000000 1.0
C      1  0.5754830000000  0.5324280000000  0.4826490000000 1.0
C      1  0.4097810000000  0.4804270000000  0.5092380000000 1.0
C      1  0.5535050000000  0.4649270000000  0.4413840000000 1.0
C      1  0.4450760000000  0.5293040000000  0.5552540000000 1.0
C      1  0.5447080000000  0.5787780000000  0.5136710000000 1.0
C      1  0.4596390000000  0.4208920000000  0.4839440000000 1.0
C      1  0.4970180000000  0.4549840000000  0.4524560000000 1.0
C      1  0.5031650000000  0.5429950000000  0.5481820000000 1.0
C      1  0.4448450000000  0.5472590000000  0.4359380000000 1.0
C      1  0.5514400000000  0.4517100000000  0.5673960000000 1.0
C      1  0.5473190000000  0.4260620000000  0.4730030000000 1.0
C      1  0.4525650000000  0.5708620000000  0.5236420000000 1.0
C      1  0.5077070000000  0.4794520000000  0.6024120000000 1.0
C      1  0.5011130000000  0.5289620000000  0.4054290000000 1.0
C      1  0.5338280000000  0.4337720000000  0.5020300000000 1.0
C      1  0.4707520000000  0.5638470000000  0.4984320000000 1.0
C      1  0.5764460000000  0.5424460000000  0.5369730000000 1.0
C      1  0.4191680000000  0.4575330000000  0.4614810000000 1.0
C      1  0.4256130000000  0.4752170000000  0.4374010000000 1.0
C      1  0.5728720000000  0.5235070000000  0.5579350000000 1.0
C      1  0.4890210000000  0.5256690000000  0.4432200000000 1.0
C      1  0.5129750000000  0.4718460000000  0.5583930000000 1.0
C      1  0.4208290000000  0.5054500000000  0.5295400000000 1.0
C      1  0.5791180000000  0.5001330000000  0.4721670000000 1.0
C      1  0.4234850000000  0.5677430000000  0.4826330000000 1.0
C      1  0.5757660000000  0.4375640000000  0.5138590000000 1.0
C      1  0.5548170000000  0.4441980000000  0.5370480000000 1.0
C      1  0.4479140000000  0.5563340000000  0.4665610000000 1.0
C      1  0.4236860000000  0.5644250000000  0.5100310000000 1.0
C      1  0.5721560000000  0.4415850000000  0.4871910000000 1.0
C      1  0.5248010000000  0.4968250000000  0.5981800000000 1.0
C      1  0.4750680000000  0.5091180000000  0.4079520000000 1.0
C      1  0.4246910000000  0.4970010000000  0.4586560000000 1.0
C      1  0.5749340000000  0.4933200000000  0.5497010000000 1.0
C      1  0.4882040000000  0.4660050000000  0.5809430000000 1.0
C      1  0.5212400000000  0.5311510000000  0.4321210000000 1.0
C      1  0.5208320000000  0.5196860000000  0.4859510000000 1.0
C      1  0.4812570000000  0.4772300000000  0.5132790000000 1.0
C      1  0.4698370000000  0.5454330000000  0.4232740000000 1.0
C      1  0.5291990000000  0.4378410000000  0.5798100000000 1.0
C      1  0.5453760000000  0.5144250000000  0.4200260000000 1.0
C      1  0.4595920000000  0.4819870000000  0.5806240000000 1.0
C      1  0.4790210000000  0.5115470000000  0.4795400000000 1.0
C      1  0.5262190000000  0.4870280000000  0.5211030000000 1.0
C      1  0.5566620000000  0.5620370000000  0.5366980000000 1.0
C      1  0.4403210000000  0.4395680000000  0.4647710000000 1.0
C      1  0.4957360000000  0.5154200000000  0.5613100000000 1.0
C      1  0.5036540000000  0.4818180000000  0.4358990000000 1.0
C      1  0.5354990000000  0.5752200000000  0.4344870000000 1.0
C      1  0.4656890000000  0.4119710000000  0.5488290000000 1.0
C      1  0.4757460000000  0.4267960000000  0.5133060000000 1.0
C      1  0.5306550000000  0.5674310000000  0.4846240000000 1.0
C      1  0.4681130000000  0.5061710000000  0.5504560000000 1.0
C      1  0.5314330000000  0.4888380000000  0.4468110000000 1.0
C      1  0.5588550000000  0.4899430000000  0.4975320000000 1.0
C      1  0.4431230000000  0.5074890000000  0.5039190000000 1.0
C      1  0.5623500000000  0.5023260000000  0.4425130000000 1.0
C      1  0.4373770000000  0.4933940000000  0.5574180000000 1.0
C      1  0.4817330000000  0.5870200000000  0.4822720000000 1.0
C      1  0.5238090000000  0.4114310000000  0.5195780000000 1.0
C      1  0.4874030000000  0.4143470000000  0.4219280000000 1.0
C      1  0.5101300000000  0.5857290000000  0.5759570000000 1.0
C      1  0.4434430000000  0.4003870000000  0.5535460000000 1.0
C      1  0.5514710000000  0.5877360000000  0.4189810000000 1.0
C      1  0.4601560000000  0.4923470000000  0.5247700000000 1.0
C      1  0.5393470000000  0.5000910000000  0.4749940000000 1.0
C      1  0.5812280000000  0.5302500000000  0.5102580000000 1.0
C      1  0.4005540000000  0.4686950000000  0.4811920000000 1.0
C      1  0.4756930000000  0.4951210000000  0.4499560000000 1.0
C      1  0.5256150000000  0.5026090000000  0.5513230000000 1.0
C      1  0.4390300000000  0.4851430000000  0.4825950000000 1.0
C      1  0.5620640000000  0.5079250000000  0.5229070000000 1.0
C      1  0.5362720000000  0.5281320000000  0.5315290000000 1.0
C      1  0.4650120000000  0.4703020000000  0.4706100000000 1.0
C      1  0.4644210000000  0.5394820000000  0.5292030000000 1.0
C      1  0.5396850000000  0.4591780000000  0.4719210000000 1.0
C      1  0.6087810000000  0.4991810000000  0.4692780000000 1.0
C      1  0.3931230000000  0.5117440000000  0.5410120000000 1.0
C      1  0.5076640000000  0.4422080000000  0.4887940000000 1.0
C      1  0.4964420000000  0.5551170000000  0.5109680000000 1.0
C      1  0.5484680000000  0.5071670000000  0.5761050000000 1.0
C      1  0.4499590000000  0.4977250000000  0.4278600000000 1.0
C      1  0.5212680000000  0.4471530000000  0.5417670000000 1.0
C      1  0.4812580000000  0.5538160000000  0.4602570000000 1.0
C      1  0.4375170000000  0.4337600000000  0.5041850000000 1.0
C      1  0.5671210000000  0.5828020000000  0.4892880000000 1.0
C      1  0.5611060000000  0.5222490000000  0.6013520000000 1.0
C      1  0.4328450000000  0.5007450000000  0.4005610000000 1.0
C      1  0.4922680000000  0.4294270000000  0.5429490000000 1.0
C      1  0.5139570000000  0.5621060000000  0.4552920000000 1.0
C      1  0.4795670000000  0.5041880000000  0.5884040000000 1.0
C      1  0.5166260000000  0.4988750000000  0.4106300000000 1.0
C      1  0.5728160000000  0.4669670000000  0.4680970000000 1.0
C      1  0.4304270000000  0.5379340000000  0.5264970000000 1.0
C      1  0.5624720000000  0.4765100000000  0.5715990000000 1.0
C      1  0.4352530000000  0.5221280000000  0.4464320000000 1.0
C      1  0.5043680000000  0.4223330000000  0.4462810000000 1.0
C      1  0.4957910000000  0.5763770000000  0.5501950000000 1.0
C      1  0.4319790000000  0.4593850000000  0.5036540000000 1.0
C      1  0.5613510000000  0.5557030000000  0.4758490000000 1.0
C      1  0.4780370000000  0.4548510000000  0.4942970000000 1.0
C      1  0.5249320000000  0.5412270000000  0.5055280000000 1.0
C      1  0.4644730000000  0.4481540000000  0.4448200000000 1.0
C      1  0.5348320000000  0.5513590000000  0.5563700000000 1.0
C      1  0.4671930000000  0.5867920000000  0.5453720000000 1.0
C      1  0.5328930000000  0.4116240000000  0.4507030000000 1.0
C      1  0.5017470000000  0.4979430000000  0.5008630000000 1.0
END
