TITL C-3289331-6719-388 0.000832249849457677 125000 -1020.8565918536 0 0 188 (C1) n - 1
REM
REM in /nfs/bkarasulu/CARBON/AIRSS/Generating-Clusters/AIREBO/with-SteepDescent/Higher-Symm/SD-CG/HFTN-CG
REM
REM
REM
REM
REM
REM ./C.cell (b20cbc046b6831c77cfcea5457e17084)
REM
REM compiler GCC version 9.2.1 20190827 (Red Hat 9.2.1-1)
REM options -cpp -mtune=generic -march=x86-64 -g -O0 -fpre-include=/usr/include/finclude/math-vector-fortran.h
REM seed -1310489582 1840914005 -2138475906 848495209 -386422570 1744389870 -1769357205 1482507530 877569331 1778775307 -1869087376 1692976692 264566453 868267530 1183795418 1287096436 -1554202446 1756271909 -1007922800 1828101816 -1841842352 898517856 220141687 -732680377 -874114141 -487091581 -330340448 1214417459 33549867 -1385516589 -861074049 489957029 -1480610124
REM
CELL 1.54180   50.00000   50.00000   50.00000   90.00000   90.00000   90.00000
LATT -1
SFAC C  
C      1  0.6087280000000  0.5094800000000  0.5493180000000 1.0
C      1  0.3947090000000  0.5010800000000  0.4543340000000 1.0
C      1  0.6071380000000  0.4953010000000  0.4581110000000 1.0
C      1  0.3970360000000  0.4978800000000  0.5423010000000 1.0
C      1  0.5567570000000  0.5148580000000  0.6061420000000 1.0
C      1  0.4593630000000  0.5095600000000  0.3984490000000 1.0
C      1  0.4599210000000  0.5009960000000  0.6051120000000 1.0
C      1  0.5423990000000  0.4935600000000  0.3955120000000 1.0
C      1  0.4458490000000  0.4707500000000  0.4219140000000 1.0
C      1  0.5566610000000  0.4695430000000  0.5885700000000 1.0
C      1  0.4443800000000  0.5296350000000  0.5686720000000 1.0
C      1  0.5551690000000  0.5284680000000  0.4257010000000 1.0
C      1  0.4229830000000  0.4765510000000  0.4395790000000 1.0
C      1  0.5728450000000  0.4738090000000  0.5640470000000 1.0
C      1  0.5758060000000  0.5213860000000  0.4447160000000 1.0
C      1  0.4248460000000  0.5258160000000  0.5480300000000 1.0
C      1  0.4731970000000  0.4594460000000  0.4923040000000 1.0
C      1  0.5217700000000  0.4573440000000  0.5062780000000 1.0
C      1  0.4785760000000  0.5475140000000  0.5031070000000 1.0
C      1  0.5239540000000  0.5386210000000  0.4974040000000 1.0
C      1  0.5028780000000  0.4581000000000  0.4772040000000 1.0
C      1  0.4986850000000  0.4505300000000  0.5271900000000 1.0
C      1  0.4976860000000  0.5404920000000  0.4758710000000 1.0
C      1  0.5041020000000  0.5441720000000  0.5246800000000 1.0
C      1  0.4279500000000  0.4591020000000  0.5084460000000 1.0
C      1  0.5845550000000  0.4641410000000  0.4969360000000 1.0
C      1  0.4158140000000  0.5375470000000  0.4899270000000 1.0
C      1  0.5783370000000  0.5369920000000  0.5083310000000 1.0
C      1  0.5136360000000  0.4708910000000  0.4112940000000 1.0
C      1  0.4830580000000  0.4659390000000  0.5728170000000 1.0
C      1  0.4879350000000  0.5392220000000  0.4228700000000 1.0
C      1  0.5125440000000  0.5359300000000  0.5873480000000 1.0
C      1  0.4892980000000  0.5789170000000  0.4214790000000 1.0
C      1  0.5099840000000  0.5756800000000  0.5854420000000 1.0
C      1  0.4873140000000  0.4324080000000  0.5937740000000 1.0
C      1  0.5118750000000  0.4262240000000  0.4155280000000 1.0
C      1  0.4139320000000  0.5796340000000  0.4904140000000 1.0
C      1  0.5779050000000  0.5766720000000  0.5022070000000 1.0
C      1  0.5794810000000  0.4144270000000  0.4885720000000 1.0
C      1  0.4159160000000  0.4134750000000  0.5086520000000 1.0
C      1  0.4859490000000  0.5170740000000  0.5902630000000 1.0
C      1  0.5154260000000  0.5115830000000  0.4057020000000 1.0
C      1  0.4874920000000  0.4919700000000  0.4059550000000 1.0
C      1  0.5086700000000  0.4917980000000  0.5888370000000 1.0
C      1  0.5976520000000  0.5192230000000  0.4780810000000 1.0
C      1  0.4040620000000  0.5159560000000  0.5137340000000 1.0
C      1  0.3990470000000  0.4740900000000  0.4714740000000 1.0
C      1  0.5853840000000  0.4873570000000  0.5181580000000 1.0
C      1  0.4367640000000  0.5120580000000  0.5221560000000 1.0
C      1  0.5641620000000  0.5137680000000  0.4757430000000 1.0
C      1  0.4313840000000  0.4796840000000  0.4693850000000 1.0
C      1  0.5621030000000  0.4790850000000  0.5368070000000 1.0
C      1  0.5280740000000  0.5198400000000  0.4352070000000 1.0
C      1  0.4735430000000  0.5190480000000  0.5586670000000 1.0
C      1  0.4724980000000  0.4797020000000  0.4339070000000 1.0
C      1  0.5185250000000  0.4906170000000  0.5571320000000 1.0
C      1  0.4973250000000  0.6045000000000  0.5251280000000 1.0
C      1  0.4959110000000  0.5995700000000  0.4856770000000 1.0
C      1  0.4988550000000  0.3933300000000  0.4723890000000 1.0
C      1  0.4980990000000  0.4015290000000  0.5112210000000 1.0
C      1  0.5197760000000  0.6050450000000  0.5024370000000 1.0
C      1  0.4720880000000  0.6046820000000  0.5052540000000 1.0
C      1  0.4758910000000  0.3988720000000  0.4913630000000 1.0
C      1  0.5214680000000  0.3906090000000  0.4959550000000 1.0
C      1  0.4674500000000  0.5056990000000  0.4480740000000 1.0
C      1  0.5350510000000  0.5146650000000  0.5555030000000 1.0
C      1  0.4643630000000  0.4885950000000  0.5595730000000 1.0
C      1  0.5317180000000  0.4936090000000  0.4511660000000 1.0
C      1  0.4467280000000  0.5097750000000  0.4735740000000 1.0
C      1  0.5573660000000  0.5123760000000  0.5316820000000 1.0
C      1  0.5574510000000  0.4826770000000  0.4665060000000 1.0
C      1  0.4471400000000  0.4821710000000  0.5347420000000 1.0
C      1  0.5549390000000  0.5453790000000  0.4851330000000 1.0
C      1  0.4483440000000  0.5425880000000  0.5125140000000 1.0
C      1  0.5552520000000  0.4558530000000  0.5121000000000 1.0
C      1  0.4451050000000  0.4540480000000  0.4821180000000 1.0
C      1  0.4837960000000  0.5505260000000  0.5509180000000 1.0
C      1  0.5111530000000  0.5448120000000  0.4452580000000 1.0
C      1  0.5095870000000  0.4583400000000  0.5575490000000 1.0
C      1  0.4852370000000  0.4569120000000  0.4496670000000 1.0
C      1  0.4230860000000  0.5645370000000  0.5184570000000 1.0
C      1  0.5807210000000  0.5633980000000  0.4721850000000 1.0
C      1  0.4205570000000  0.4307200000000  0.4800280000000 1.0
C      1  0.5753840000000  0.4292830000000  0.5188800000000 1.0
C      1  0.5205810000000  0.5656690000000  0.4201080000000 1.0
C      1  0.4805740000000  0.5666340000000  0.5789500000000 1.0
C      1  0.4837200000000  0.4408910000000  0.4201440000000 1.0
C      1  0.5175940000000  0.4368550000000  0.5826670000000 1.0
C      1  0.3883890000000  0.5241660000000  0.4776060000000 1.0
C      1  0.6074580000000  0.5233190000000  0.5182670000000 1.0
C      1  0.3995920000000  0.4762850000000  0.5161620000000 1.0
C      1  0.6127990000000  0.4685850000000  0.4784000000000 1.0
C      1  0.4827610000000  0.5249830000000  0.3827860000000 1.0
C      1  0.5315950000000  0.5249160000000  0.6205810000000 1.0
C      1  0.5158980000000  0.4800250000000  0.3790200000000 1.0
C      1  0.4851460000000  0.4864820000000  0.6203580000000 1.0
C      1  0.5031640000000  0.5886740000000  0.5546750000000 1.0
C      1  0.4930670000000  0.5862810000000  0.4544770000000 1.0
C      1  0.5045340000000  0.4149480000000  0.4467650000000 1.0
C      1  0.4965130000000  0.4128020000000  0.5401790000000 1.0
C      1  0.5475000000000  0.5898170000000  0.5020240000000 1.0
C      1  0.4419740000000  0.5926420000000  0.4974810000000 1.0
C      1  0.4464370000000  0.4072690000000  0.4989680000000 1.0
C      1  0.5492430000000  0.4051180000000  0.5010810000000 1.0
C      1  0.5816640000000  0.5675090000000  0.5337250000000 1.0
C      1  0.4123310000000  0.5662890000000  0.4591780000000 1.0
C      1  0.5735580000000  0.4349410000000  0.4656870000000 1.0
C      1  0.4202270000000  0.4315610000000  0.5360870000000 1.0
C      1  0.5329510000000  0.5650040000000  0.5664810000000 1.0
C      1  0.4624370000000  0.5689190000000  0.4359270000000 1.0
C      1  0.4658720000000  0.4299910000000  0.5748060000000 1.0
C      1  0.5377400000000  0.4317060000000  0.4327250000000 1.0
C      1  0.4770350000000  0.4603170000000  0.3992330000000 1.0
C      1  0.5296020000000  0.4657370000000  0.5912780000000 1.0
C      1  0.4717610000000  0.5469860000000  0.5980320000000 1.0
C      1  0.5259700000000  0.5425190000000  0.4024150000000 1.0
C      1  0.3956130000000  0.4458080000000  0.4701150000000 1.0
C      1  0.6068110000000  0.4225140000000  0.5191800000000 1.0
C      1  0.6024930000000  0.5458190000000  0.4679980000000 1.0
C      1  0.3996810000000  0.5470570000000  0.5267550000000 1.0
C      1  0.4225760000000  0.5457810000000  0.4438580000000 1.0
C      1  0.5804120000000  0.5512750000000  0.5596440000000 1.0
C      1  0.4213900000000  0.4483990000000  0.5626860000000 1.0
C      1  0.5791950000000  0.4498040000000  0.4414170000000 1.0
C      1  0.4446240000000  0.5490420000000  0.4279590000000 1.0
C      1  0.5597570000000  0.5563950000000  0.5769210000000 1.0
C      1  0.5560680000000  0.4510050000000  0.4257400000000 1.0
C      1  0.4428430000000  0.4461460000000  0.5805590000000 1.0
C      1  0.6032830000000  0.4386000000000  0.4918910000000 1.0
C      1  0.3983610000000  0.4425080000000  0.5124640000000 1.0
C      1  0.6047040000000  0.5569750000000  0.5119500000000 1.0
C      1  0.3895640000000  0.5572830000000  0.4807750000000 1.0
C      1  0.4874910000000  0.4617190000000  0.6063330000000 1.0
C      1  0.5130620000000  0.4469230000000  0.3884730000000 1.0
C      1  0.5228890000000  0.5561910000000  0.6102180000000 1.0
C      1  0.4885880000000  0.5555920000000  0.3965820000000 1.0
C      1  0.4870500000000  0.5102670000000  0.4718770000000 1.0
C      1  0.4872660000000  0.5147750000000  0.5275770000000 1.0
C      1  0.5020400000000  0.4843610000000  0.5280370000000 1.0
C      1  0.5097900000000  0.4905430000000  0.4718490000000 1.0
C      1  0.4698810000000  0.5087460000000  0.4986380000000 1.0
C      1  0.5426580000000  0.5112950000000  0.5019750000000 1.0
C      1  0.5220450000000  0.4892440000000  0.5007140000000 1.0
C      1  0.4718620000000  0.4811520000000  0.5126990000000 1.0
C      1  0.4723230000000  0.5603500000000  0.4649670000000 1.0
C      1  0.5286730000000  0.5446790000000  0.5444020000000 1.0
C      1  0.4735400000000  0.4356150000000  0.5445540000000 1.0
C      1  0.5247010000000  0.4379240000000  0.4624680000000 1.0
C      1  0.4473580000000  0.5433960000000  0.4786420000000 1.0
C      1  0.5554030000000  0.5463650000000  0.5289660000000 1.0
C      1  0.5503070000000  0.4535110000000  0.4785300000000 1.0
C      1  0.4485800000000  0.4482390000000  0.5329970000000 1.0
C      1  0.5435020000000  0.5301420000000  0.5828000000000 1.0
C      1  0.4623810000000  0.5246900000000  0.4256480000000 1.0
C      1  0.5406610000000  0.4767910000000  0.4248950000000 1.0
C      1  0.4539810000000  0.4741610000000  0.5884100000000 1.0
C      1  0.5828030000000  0.5244920000000  0.5507190000000 1.0
C      1  0.4205770000000  0.5199880000000  0.4543840000000 1.0
C      1  0.4186890000000  0.4753750000000  0.5511530000000 1.0
C      1  0.5837160000000  0.4754750000000  0.4518740000000 1.0
C      1  0.4349210000000  0.5156270000000  0.5933620000000 1.0
C      1  0.5690730000000  0.5067500000000  0.4083460000000 1.0
C      1  0.4332720000000  0.4938880000000  0.4053400000000 1.0
C      1  0.5737570000000  0.4943350000000  0.5980670000000 1.0
C      1  0.5958500000000  0.5035130000000  0.4271050000000 1.0
C      1  0.4106410000000  0.5085210000000  0.5716070000000 1.0
C      1  0.4065410000000  0.4979260000000  0.4230810000000 1.0
C      1  0.5955400000000  0.4929900000000  0.5716880000000 1.0
C      1  0.4718920000000  0.4263700000000  0.4485310000000 1.0
C      1  0.5225110000000  0.4278200000000  0.5498190000000 1.0
C      1  0.4703210000000  0.5813070000000  0.5497750000000 1.0
C      1  0.5250590000000  0.5747960000000  0.4532840000000 1.0
C      1  0.4499500000000  0.4192630000000  0.4673110000000 1.0
C      1  0.5435180000000  0.4250080000000  0.5282210000000 1.0
C      1  0.5479930000000  0.5758680000000  0.4717690000000 1.0
C      1  0.4535690000000  0.5780580000000  0.5252090000000 1.0
C      1  0.4555970000000  0.3867000000000  0.5234520000000 1.0
C      1  0.5492330000000  0.3967850000000  0.4680950000000 1.0
C      1  0.4511100000000  0.6114620000000  0.4720070000000 1.0
C      1  0.5477870000000  0.6065120000000  0.5306900000000 1.0
C      1  0.5321420000000  0.3952800000000  0.4495470000000 1.0
C      1  0.4739680000000  0.3888110000000  0.5403890000000 1.0
C      1  0.4675130000000  0.6086780000000  0.4532310000000 1.0
C      1  0.5298290000000  0.6069260000000  0.5480370000000 1.0
C      1  0.5099670000000  0.5058050000000  0.6198310000000 1.0
C      1  0.4988080000000  0.5063180000000  0.3697850000000 1.0
C      1  0.6085330000000  0.4960640000000  0.4979680000000 1.0
C      1  0.3866800000000  0.4953160000000  0.4930430000000 1.0
END
