TITL C-3289334-2237-507 -0.00151129667313117 125000 -530.064792236838 0 0 91 (C1) n - 1
REM
REM in /nfs/bkarasulu/CARBON/AIRSS/Generating-Clusters/AIREBO/with-SteepDescent/Higher-Symm/SD-CG/HFTN-CG
REM
REM
REM
REM
REM
REM ./C.cell (b20cbc046b6831c77cfcea5457e17084)
REM
REM compiler GCC version 9.2.1 20190827 (Red Hat 9.2.1-1)
REM options -cpp -mtune=generic -march=x86-64 -g -O0 -fpre-include=/usr/include/finclude/math-vector-fortran.h
REM seed 1082241612 1750365390 -843133919 -2124671131 501139701 -861116532 1264453850 -566518847 1001056158 1013542842 -687433512 1249191329 -851518242 -392691411 1596834784 -916336075 1496773627 -1718845796 -1402285877 1171224381 1152626044 82269895 -1004392913 -1183164687 1394850751 365738683 -1697519692 -1269285429 -714962353 -1135651363 587607539 1765984505 858885982
REM
CELL 1.54180   50.00000   50.00000   50.00000   90.00000   90.00000   90.00000
LATT -1
SFAC C  
C      1  0.5183680000000  0.4462260000000  0.5309190000000 1.0
C      1  0.4878320000000  0.4543520000000  0.5386410000000 1.0
C      1  0.4654730000000  0.4518850000000  0.5173040000000 1.0
C      1  0.4691840000000  0.4527470000000  0.4618310000000 1.0
C      1  0.5184430000000  0.4543090000000  0.4582530000000 1.0
C      1  0.5411690000000  0.4504070000000  0.5058350000000 1.0
C      1  0.5289310000000  0.5482210000000  0.5206520000000 1.0
C      1  0.4718520000000  0.5488150000000  0.5361220000000 1.0
C      1  0.4605950000000  0.5494190000000  0.5040210000000 1.0
C      1  0.4800160000000  0.5420510000000  0.4770260000000 1.0
C      1  0.5100960000000  0.5546250000000  0.4706550000000 1.0
C      1  0.5335540000000  0.5421310000000  0.4904640000000 1.0
C      1  0.5083570000000  0.5851820000000  0.4764160000000 1.0
C      1  0.5227690000000  0.5916380000000  0.5002360000000 1.0
C      1  0.5140440000000  0.5745710000000  0.5213520000000 1.0
C      1  0.4863560000000  0.5729830000000  0.5231050000000 1.0
C      1  0.4685450000000  0.5822830000000  0.5004430000000 1.0
C      1  0.4813560000000  0.5938240000000  0.4783090000000 1.0
C      1  0.5092630000000  0.4311190000000  0.4727530000000 1.0
C      1  0.5232790000000  0.4266040000000  0.4966190000000 1.0
C      1  0.5110330000000  0.4146210000000  0.5207390000000 1.0
C      1  0.4841660000000  0.4070710000000  0.5166440000000 1.0
C      1  0.4701600000000  0.4264320000000  0.5012850000000 1.0
C      1  0.4803960000000  0.4305160000000  0.4749640000000 1.0
C      1  0.4697930000000  0.4949680000000  0.5711700000000 1.0
C      1  0.4295220000000  0.4887670000000  0.5040850000000 1.0
C      1  0.4469010000000  0.4856370000000  0.4392180000000 1.0
C      1  0.5383700000000  0.4907550000000  0.4272650000000 1.0
C      1  0.5755210000000  0.4683520000000  0.4739310000000 1.0
C      1  0.5359120000000  0.4933270000000  0.5590700000000 1.0
C      1  0.4807980000000  0.5259740000000  0.5737290000000 1.0
C      1  0.4268990000000  0.5141950000000  0.5227990000000 1.0
C      1  0.4692410000000  0.5065500000000  0.4399800000000 1.0
C      1  0.5227070000000  0.5206010000000  0.4319190000000 1.0
C      1  0.5665540000000  0.4983590000000  0.4856270000000 1.0
C      1  0.5556500000000  0.5163820000000  0.5501550000000 1.0
C      1  0.5178330000000  0.5054940000000  0.4580510000000 1.0
C      1  0.5341030000000  0.5084420000000  0.4877240000000 1.0
C      1  0.5146700000000  0.5245260000000  0.5341560000000 1.0
C      1  0.4831830000000  0.5172620000000  0.5408830000000 1.0
C      1  0.4753610000000  0.5086460000000  0.5104620000000 1.0
C      1  0.4855980000000  0.5092530000000  0.4700050000000 1.0
C      1  0.5106920000000  0.4786090000000  0.4751500000000 1.0
C      1  0.5282250000000  0.4792270000000  0.5042750000000 1.0
C      1  0.5180900000000  0.4917060000000  0.5320640000000 1.0
C      1  0.4892370000000  0.4838180000000  0.5460390000000 1.0
C      1  0.4610160000000  0.4823020000000  0.5026510000000 1.0
C      1  0.4776840000000  0.4770170000000  0.4769340000000 1.0
C      1  0.4604910000000  0.5348960000000  0.4525810000000 1.0
C      1  0.5190580000000  0.5507050000000  0.4413210000000 1.0
C      1  0.5605580000000  0.5534000000000  0.4790680000000 1.0
C      1  0.5481620000000  0.5429560000000  0.5454820000000 1.0
C      1  0.4652550000000  0.5525360000000  0.5668980000000 1.0
C      1  0.4302820000000  0.5409070000000  0.5061000000000 1.0
C      1  0.4550820000000  0.4586100000000  0.4392040000000 1.0
C      1  0.5276970000000  0.4602250000000  0.4332270000000 1.0
C      1  0.5704210000000  0.4474630000000  0.4953940000000 1.0
C      1  0.5401740000000  0.4628150000000  0.5486170000000 1.0
C      1  0.4834390000000  0.4385740000000  0.5653940000000 1.0
C      1  0.4342610000000  0.4610660000000  0.5224030000000 1.0
C      1  0.5776710000000  0.4690140000000  0.4467430000000 1.0
C      1  0.5779690000000  0.4642700000000  0.5199140000000 1.0
C      1  0.4954740000000  0.4798650000000  0.5853500000000 1.0
C      1  0.4281440000000  0.4673390000000  0.5694610000000 1.0
C      1  0.4231340000000  0.4909500000000  0.4530740000000 1.0
C      1  0.5073540000000  0.4882370000000  0.4135430000000 1.0
C      1  0.5720130000000  0.5124960000000  0.4571910000000 1.0
C      1  0.5782990000000  0.5081810000000  0.5358340000000 1.0
C      1  0.5087710000000  0.5231490000000  0.5873550000000 1.0
C      1  0.4277400000000  0.5099250000000  0.5493180000000 1.0
C      1  0.4217900000000  0.5296870000000  0.4788940000000 1.0
C      1  0.4993530000000  0.5337690000000  0.4110000000000 1.0
C      1  0.5253780000000  0.5707420000000  0.4257320000000 1.0
C      1  0.5748220000000  0.5401300000000  0.4597730000000 1.0
C      1  0.5603560000000  0.5645220000000  0.5572610000000 1.0
C      1  0.4522110000000  0.5699580000000  0.5805500000000 1.0
C      1  0.4137040000000  0.5617410000000  0.5154910000000 1.0
C      1  0.4344010000000  0.5411750000000  0.4565310000000 1.0
C      1  0.5300590000000  0.4419020000000  0.4129240000000 1.0
C      1  0.5820270000000  0.4224580000000  0.4922180000000 1.0
C      1  0.5663000000000  0.4563050000000  0.5441020000000 1.0
C      1  0.4920130000000  0.4521590000000  0.5877800000000 1.0
C      1  0.4223980000000  0.4544670000000  0.5456490000000 1.0
C      1  0.4485390000000  0.4411410000000  0.4198950000000 1.0
C      1  0.5667100000000  0.4933680000000  0.4365990000000 1.0
C      1  0.4882120000000  0.5073530000000  0.4168960000000 1.0
C      1  0.4402300000000  0.4927830000000  0.5679080000000 1.0
C      1  0.4191790000000  0.5021050000000  0.4783200000000 1.0
C      1  0.5788360000000  0.4912490000000  0.5138920000000 1.0
C      1  0.5179890000000  0.4972510000000  0.5833880000000 1.0
C      1  0.5022630000000  0.5088610000000  0.4996530000000 1.0
END
