TITL C-3289334-2237-422 0.000116518058352609 125000 -37.4325131872539 0 0 7 (D(inf)h) n - 1
REM
REM in /nfs/bkarasulu/CARBON/AIRSS/Generating-Clusters/AIREBO/with-SteepDescent/Higher-Symm/SD-CG/HFTN-CG
REM
REM
REM
REM
REM
REM ./C.cell (b20cbc046b6831c77cfcea5457e17084)
REM
REM compiler GCC version 9.2.1 20190827 (Red Hat 9.2.1-1)
REM options -cpp -mtune=generic -march=x86-64 -g -O0 -fpre-include=/usr/include/finclude/math-vector-fortran.h
REM seed -2099842631 -927282668 -966947009 237586333 -140588736 -1051716437 613692238 -1513882402 -1861158229 1600051054 -1888049623 1603706512 -1343890560 -435139156 234732624 -956933175 973522992 -982674998 1423301622 559173521 -263187519 181433080 654606487 -1506070178 726250555 181903095 -1586545861 -1796912836 -732816585 346102967 2096678831 1918714861 -1755827748
REM
CELL 1.54180   50.00000   50.00000   50.00000   90.00000   90.00000   90.00000
LATT -1
SFAC C  
C      1  0.4741820000000  0.5216270000000  0.4324710000000 1.0
C      1  0.5231400000000  0.4774630000000  0.5769240000000 1.0
C      1  0.4825260000000  0.5155150000000  0.4565560000000 1.0
C      1  0.5150970000000  0.4841050000000  0.5528830000000 1.0
C      1  0.4896490000000  0.5070990000000  0.4808070000000 1.0
C      1  0.5069230000000  0.4908570000000  0.5284480000000 1.0
C      1  0.4989770000000  0.5000910000000  0.5047570000000 1.0
END
