TITL C-3289326-3776-109 0.000584380367586755 125000 -921.842547287613 0 0 167 (C1) n - 1
REM
REM in /nfs/bkarasulu/CARBON/AIRSS/Generating-Clusters/AIREBO/with-SteepDescent/Higher-Symm/SD-CG/HFTN-CG
REM
REM
REM
REM
REM
REM ./C.cell (b20cbc046b6831c77cfcea5457e17084)
REM
REM compiler GCC version 9.2.1 20190827 (Red Hat 9.2.1-1)
REM options -cpp -mtune=generic -march=x86-64 -g -O0 -fpre-include=/usr/include/finclude/math-vector-fortran.h
REM seed -433163621 2022242590 22725160 1002828895 -419708580 -1346830456 1732985321 2038213597 798085448 -415654548 -1122593656 25177101 -824185067 -530241044 -1868129988 87251755 -1506653764 1940003314 1451580347 1002774040 -953125096 918652586 -1182893914 1366429151 1082946518 -1494413645 1629023105 -1859296319 486669141 1504175662 1095868603 1252604744 1813417729
REM
CELL 1.54180   50.00000   50.00000   50.00000   90.00000   90.00000   90.00000
LATT -1
SFAC C  
C      1  0.4572790000000  0.4300940000000  0.4602100000000 1.0
C      1  0.4561140000000  0.4962480000000  0.5794970000000 1.0
C      1  0.4579280000000  0.5734630000000  0.4583810000000 1.0
C      1  0.4551880000000  0.5290790000000  0.5396170000000 1.0
C      1  0.4503850000000  0.5164480000000  0.4512610000000 1.0
C      1  0.4518730000000  0.4489830000000  0.5098240000000 1.0
C      1  0.5954680000000  0.4484810000000  0.4973860000000 1.0
C      1  0.5957780000000  0.5287650000000  0.5475040000000 1.0
C      1  0.5922090000000  0.5344270000000  0.4455830000000 1.0
C      1  0.3925680000000  0.4737370000000  0.5282760000000 1.0
C      1  0.4015920000000  0.5390100000000  0.5053510000000 1.0
C      1  0.3950930000000  0.4898720000000  0.4637360000000 1.0
C      1  0.5774680000000  0.5160310000000  0.4252530000000 1.0
C      1  0.5756880000000  0.4345350000000  0.5200610000000 1.0
C      1  0.5757040000000  0.5546930000000  0.5477820000000 1.0
C      1  0.4560680000000  0.5793360000000  0.5113480000000 1.0
C      1  0.4536540000000  0.4776430000000  0.4144240000000 1.0
C      1  0.4492340000000  0.4343240000000  0.5639790000000 1.0
C      1  0.5226650000000  0.5332150000000  0.4926670000000 1.0
C      1  0.5172100000000  0.4833360000000  0.4780010000000 1.0
C      1  0.5233090000000  0.4918070000000  0.5315070000000 1.0
C      1  0.4037450000000  0.4823310000000  0.5529170000000 1.0
C      1  0.4069260000000  0.5647140000000  0.4909680000000 1.0
C      1  0.4052070000000  0.4639010000000  0.4575010000000 1.0
C      1  0.4947040000000  0.4377020000000  0.5866100000000 1.0
C      1  0.4940310000000  0.6061860000000  0.5158860000000 1.0
C      1  0.4947090000000  0.4608510000000  0.3995410000000 1.0
C      1  0.5468740000000  0.4691500000000  0.5750560000000 1.0
C      1  0.5454120000000  0.5779030000000  0.4869710000000 1.0
C      1  0.5448410000000  0.4527550000000  0.4402400000000 1.0
C      1  0.5469970000000  0.4928420000000  0.4078280000000 1.0
C      1  0.5475250000000  0.4234650000000  0.5549250000000 1.0
C      1  0.5456030000000  0.5823900000000  0.5415650000000 1.0
C      1  0.6074640000000  0.5172300000000  0.5249790000000 1.0
C      1  0.5987420000000  0.5200650000000  0.4742830000000 1.0
C      1  0.6062260000000  0.4750090000000  0.4975320000000 1.0
C      1  0.5481830000000  0.4432530000000  0.4924850000000 1.0
C      1  0.5489900000000  0.5198520000000  0.5536950000000 1.0
C      1  0.5542320000000  0.5339240000000  0.4573440000000 1.0
C      1  0.5724650000000  0.5593720000000  0.4483050000000 1.0
C      1  0.5767200000000  0.4301020000000  0.4794910000000 1.0
C      1  0.5757170000000  0.5222320000000  0.5741680000000 1.0
C      1  0.5814830000000  0.5736660000000  0.5239490000000 1.0
C      1  0.5795690000000  0.4846460000000  0.4297440000000 1.0
C      1  0.5854210000000  0.4493150000000  0.5464070000000 1.0
C      1  0.5430280000000  0.4681990000000  0.5413580000000 1.0
C      1  0.5466580000000  0.5507160000000  0.5054890000000 1.0
C      1  0.5406610000000  0.4823190000000  0.4543240000000 1.0
C      1  0.4825490000000  0.5996410000000  0.4758970000000 1.0
C      1  0.4873630000000  0.4294780000000  0.4249100000000 1.0
C      1  0.4834350000000  0.4741750000000  0.5985040000000 1.0
C      1  0.6032280000000  0.4901940000000  0.4737000000000 1.0
C      1  0.6077160000000  0.4884740000000  0.5228550000000 1.0
C      1  0.6085950000000  0.5333180000000  0.5017290000000 1.0
C      1  0.5600180000000  0.4640470000000  0.4126550000000 1.0
C      1  0.5651990000000  0.4442490000000  0.5655050000000 1.0
C      1  0.5574290000000  0.5930770000000  0.5142290000000 1.0
C      1  0.4604900000000  0.5987750000000  0.5379290000000 1.0
C      1  0.4615400000000  0.4905670000000  0.3883540000000 1.0
C      1  0.4555720000000  0.4048890000000  0.5675210000000 1.0
C      1  0.4855470000000  0.5246370000000  0.5053680000000 1.0
C      1  0.4784170000000  0.4885950000000  0.4699550000000 1.0
C      1  0.4765860000000  0.4760440000000  0.5254640000000 1.0
C      1  0.4699370000000  0.5512670000000  0.4395670000000 1.0
C      1  0.4634040000000  0.4167570000000  0.4897940000000 1.0
C      1  0.4643840000000  0.5284660000000  0.5782040000000 1.0
C      1  0.5669270000000  0.4919810000000  0.5460910000000 1.0
C      1  0.5721930000000  0.5378200000000  0.4859640000000 1.0
C      1  0.5631850000000  0.4666010000000  0.4728360000000 1.0
C      1  0.4840800000000  0.4750180000000  0.4440620000000 1.0
C      1  0.4841700000000  0.4564960000000  0.5490150000000 1.0
C      1  0.4897270000000  0.5578550000000  0.5096590000000 1.0
C      1  0.5205210000000  0.4576950000000  0.5872380000000 1.0
C      1  0.5248000000000  0.5976580000000  0.5040130000000 1.0
C      1  0.5261310000000  0.4581870000000  0.4123850000000 1.0
C      1  0.4352150000000  0.5532410000000  0.4440170000000 1.0
C      1  0.4293820000000  0.4212540000000  0.4898870000000 1.0
C      1  0.4308680000000  0.5297880000000  0.5711480000000 1.0
C      1  0.4446200000000  0.4991600000000  0.5494800000000 1.0
C      1  0.4488500000000  0.5377540000000  0.4780670000000 1.0
C      1  0.4447650000000  0.4559350000000  0.4773010000000 1.0
C      1  0.5286020000000  0.5478020000000  0.5764590000000 1.0
C      1  0.5289450000000  0.5379620000000  0.4141200000000 1.0
C      1  0.5262640000000  0.4114460000000  0.5023020000000 1.0
C      1  0.5196380000000  0.4227220000000  0.4738730000000 1.0
C      1  0.5206660000000  0.5158800000000  0.5815150000000 1.0
C      1  0.5189070000000  0.5627540000000  0.4466250000000 1.0
C      1  0.5578080000000  0.4078350000000  0.5089200000000 1.0
C      1  0.5581290000000  0.5514550000000  0.5763390000000 1.0
C      1  0.5546460000000  0.5320690000000  0.4065230000000 1.0
C      1  0.4765430000000  0.5017630000000  0.6053710000000 1.0
C      1  0.4776360000000  0.5957880000000  0.4476720000000 1.0
C      1  0.4789630000000  0.4132070000000  0.4455210000000 1.0
C      1  0.4979880000000  0.4743000000000  0.5710770000000 1.0
C      1  0.5019910000000  0.5794890000000  0.4872900000000 1.0
C      1  0.5051370000000  0.4510660000000  0.4368330000000 1.0
C      1  0.4820100000000  0.5194760000000  0.4391380000000 1.0
C      1  0.4834330000000  0.4367850000000  0.5086040000000 1.0
C      1  0.4861040000000  0.5324850000000  0.5520000000000 1.0
C      1  0.4127490000000  0.4658600000000  0.5120130000000 1.0
C      1  0.4197010000000  0.5250820000000  0.5195540000000 1.0
C      1  0.4155120000000  0.5072440000000  0.4683320000000 1.0
C      1  0.5227540000000  0.4940460000000  0.3950060000000 1.0
C      1  0.5255950000000  0.4106830000000  0.5634980000000 1.0
C      1  0.5223330000000  0.5938790000000  0.5501880000000 1.0
C      1  0.4682480000000  0.4003160000000  0.5191660000000 1.0
C      1  0.4706170000000  0.5618720000000  0.5793400000000 1.0
C      1  0.4727090000000  0.5425600000000  0.4079350000000 1.0
C      1  0.4171610000000  0.5855410000000  0.5086230000000 1.0
C      1  0.4215140000000  0.4661960000000  0.4339880000000 1.0
C      1  0.4201350000000  0.4605050000000  0.5620920000000 1.0
C      1  0.4851130000000  0.4663710000000  0.4940400000000 1.0
C      1  0.4857940000000  0.5046040000000  0.5328470000000 1.0
C      1  0.4904450000000  0.5197100000000  0.4720780000000 1.0
C      1  0.5467610000000  0.5084580000000  0.4377690000000 1.0
C      1  0.5426940000000  0.4404650000000  0.5258760000000 1.0
C      1  0.5433340000000  0.5486140000000  0.5393130000000 1.0
C      1  0.5917610000000  0.4763310000000  0.5426490000000 1.0
C      1  0.5930220000000  0.5590920000000  0.5029280000000 1.0
C      1  0.5859040000000  0.4774080000000  0.4562830000000 1.0
C      1  0.5483210000000  0.4316750000000  0.4605130000000 1.0
C      1  0.5502760000000  0.5000910000000  0.5813410000000 1.0
C      1  0.5463720000000  0.5729160000000  0.4576270000000 1.0
C      1  0.5081110000000  0.4997600000000  0.5578590000000 1.0
C      1  0.5058460000000  0.5500360000000  0.4734330000000 1.0
C      1  0.5065750000000  0.4540100000000  0.4706900000000 1.0
C      1  0.4766000000000  0.4025980000000  0.5492330000000 1.0
C      1  0.4742440000000  0.5843560000000  0.5588190000000 1.0
C      1  0.4748900000000  0.5106390000000  0.4068840000000 1.0
C      1  0.4588830000000  0.4666920000000  0.5679130000000 1.0
C      1  0.4650300000000  0.5642470000000  0.4871810000000 1.0
C      1  0.4593370000000  0.4546290000000  0.4388070000000 1.0
C      1  0.4718970000000  0.4413580000000  0.4034040000000 1.0
C      1  0.4694660000000  0.4482160000000  0.6014530000000 1.0
C      1  0.4712090000000  0.6139000000000  0.4984770000000 1.0
C      1  0.4984840000000  0.5856760000000  0.4320770000000 1.0
C      1  0.4993580000000  0.4029170000000  0.4602780000000 1.0
C      1  0.4961380000000  0.5207420000000  0.6038860000000 1.0
C      1  0.4321330000000  0.5711570000000  0.5337490000000 1.0
C      1  0.4334400000000  0.4978510000000  0.4283790000000 1.0
C      1  0.4332730000000  0.4408160000000  0.5371410000000 1.0
C      1  0.4376380000000  0.4510390000000  0.5897250000000 1.0
C      1  0.4408930000000  0.6089080000000  0.5041400000000 1.0
C      1  0.4395460000000  0.4476530000000  0.4118530000000 1.0
C      1  0.5106140000000  0.5505530000000  0.5484660000000 1.0
C      1  0.5147650000000  0.5153120000000  0.4314360000000 1.0
C      1  0.5101590000000  0.4305270000000  0.5238360000000 1.0
C      1  0.4963620000000  0.5786750000000  0.5357360000000 1.0
C      1  0.4973880000000  0.4897650000000  0.4172390000000 1.0
C      1  0.4972340000000  0.4256510000000  0.5549060000000 1.0
C      1  0.4426450000000  0.4772260000000  0.5236550000000 1.0
C      1  0.4516060000000  0.5249710000000  0.5077460000000 1.0
C      1  0.4444520000000  0.4895960000000  0.4712690000000 1.0
C      1  0.4151260000000  0.5122570000000  0.5493890000000 1.0
C      1  0.4176610000000  0.5412050000000  0.4688390000000 1.0
C      1  0.4140770000000  0.4490680000000  0.4851590000000 1.0
C      1  0.5522410000000  0.5000690000000  0.5194210000000 1.0
C      1  0.5494520000000  0.5138490000000  0.4913960000000 1.0
C      1  0.5454960000000  0.4828220000000  0.4936990000000 1.0
C      1  0.4368940000000  0.4134740000000  0.5190720000000 1.0
C      1  0.4457840000000  0.5563860000000  0.5567610000000 1.0
C      1  0.4426310000000  0.5296970000000  0.4207200000000 1.0
C      1  0.4992700000000  0.3944930000000  0.5103320000000 1.0
C      1  0.4977160000000  0.5474770000000  0.5893910000000 1.0
C      1  0.5023600000000  0.5565180000000  0.4170610000000 1.0
C      1  0.4462200000000  0.4964920000000  0.5006840000000 1.0
C      1  0.5125310000000  0.5040270000000  0.5031640000000 1.0
END
