TITL C-3289330-4660-100 -0.00135084903101935 125000 -1019.72287769372 0 0 195 (C1) n - 1
REM
REM in /nfs/bkarasulu/CARBON/AIRSS/Generating-Clusters/AIREBO/with-SteepDescent/Higher-Symm/SD-CG/HFTN-CG
REM
REM
REM
REM
REM
REM ./C.cell (b20cbc046b6831c77cfcea5457e17084)
REM
REM compiler GCC version 9.2.1 20190827 (Red Hat 9.2.1-1)
REM options -cpp -mtune=generic -march=x86-64 -g -O0 -fpre-include=/usr/include/finclude/math-vector-fortran.h
REM seed 1418642261 1844608954 -582442225 -2071001840 -1028346530 402768261 -336327575 -244284512 -48908852 1493445546 -1953941422 -427183368 -143089449 -46006573 -789768555 410403746 544469628 1197494338 1728158729 1100804259 -434147169 -1766504530 -1849437436 1291098117 -516845455 1902344315 1179441175 -1513275828 -1474362656 -1829096812 2017710625 1348301164 -1007851355
REM
CELL 1.54180   50.00000   50.00000   50.00000   90.00000   90.00000   90.00000
LATT -1
SFAC C  
C      1  0.5014180000000  0.4357310000000  0.5965910000000 1.0
C      1  0.5651280000000  0.5291990000000  0.5893130000000 1.0
C      1  0.4512630000000  0.5543990000000  0.5900010000000 1.0
C      1  0.4831890000000  0.4445040000000  0.4093120000000 1.0
C      1  0.5602700000000  0.5282800000000  0.4064510000000 1.0
C      1  0.4585190000000  0.5439950000000  0.4055580000000 1.0
C      1  0.4768510000000  0.5673080000000  0.5925230000000 1.0
C      1  0.5695200000000  0.4727480000000  0.5936770000000 1.0
C      1  0.4523650000000  0.4541420000000  0.6015720000000 1.0
C      1  0.4835660000000  0.5664670000000  0.4104550000000 1.0
C      1  0.5673140000000  0.4674850000000  0.4056780000000 1.0
C      1  0.4543910000000  0.4633260000000  0.4085010000000 1.0
C      1  0.4937690000000  0.5526420000000  0.5596550000000 1.0
C      1  0.4465870000000  0.4564390000000  0.5536950000000 1.0
C      1  0.5641810000000  0.4906640000000  0.5487700000000 1.0
C      1  0.4822710000000  0.5690780000000  0.4502380000000 1.0
C      1  0.4586610000000  0.4530360000000  0.4542320000000 1.0
C      1  0.5671100000000  0.4899980000000  0.4509480000000 1.0
C      1  0.4716510000000  0.4347300000000  0.5481970000000 1.0
C      1  0.4621000000000  0.5628260000000  0.5526260000000 1.0
C      1  0.5581910000000  0.5230520000000  0.5477070000000 1.0
C      1  0.4805120000000  0.4328120000000  0.4474170000000 1.0
C      1  0.4609120000000  0.5446480000000  0.4523200000000 1.0
C      1  0.5558850000000  0.5186040000000  0.4449050000000 1.0
C      1  0.4097020000000  0.4870180000000  0.5223960000000 1.0
C      1  0.5708380000000  0.4226930000000  0.5280410000000 1.0
C      1  0.5388240000000  0.5843040000000  0.5192830000000 1.0
C      1  0.4044960000000  0.4784120000000  0.4773560000000 1.0
C      1  0.5589010000000  0.4254890000000  0.4722230000000 1.0
C      1  0.5338140000000  0.5900180000000  0.4778230000000 1.0
C      1  0.4078770000000  0.5207700000000  0.5186560000000 1.0
C      1  0.5691960000000  0.5781560000000  0.5249900000000 1.0
C      1  0.5386400000000  0.4159410000000  0.5258650000000 1.0
C      1  0.4071100000000  0.5069540000000  0.4878230000000 1.0
C      1  0.5661880000000  0.5852480000000  0.4721110000000 1.0
C      1  0.5327800000000  0.4107400000000  0.4836360000000 1.0
C      1  0.4336560000000  0.4854700000000  0.5658610000000 1.0
C      1  0.5517040000000  0.4535200000000  0.5579390000000 1.0
C      1  0.5206940000000  0.5645970000000  0.5493440000000 1.0
C      1  0.4360750000000  0.4890790000000  0.4521190000000 1.0
C      1  0.5425080000000  0.4511260000000  0.4437430000000 1.0
C      1  0.5150430000000  0.5699040000000  0.4489100000000 1.0
C      1  0.4336970000000  0.5156860000000  0.5574750000000 1.0
C      1  0.5452890000000  0.5506050000000  0.5620480000000 1.0
C      1  0.5217670000000  0.4435540000000  0.5524180000000 1.0
C      1  0.4311850000000  0.5186960000000  0.4585520000000 1.0
C      1  0.5431830000000  0.5564130000000  0.4445250000000 1.0
C      1  0.5140250000000  0.4335970000000  0.4504220000000 1.0
C      1  0.4486330000000  0.5661400000000  0.4294080000000 1.0
C      1  0.4702130000000  0.4149020000000  0.4198760000000 1.0
C      1  0.5845680000000  0.5165390000000  0.4271940000000 1.0
C      1  0.4320360000000  0.5671060000000  0.5673190000000 1.0
C      1  0.4820870000000  0.4209470000000  0.5744380000000 1.0
C      1  0.5854530000000  0.5189310000000  0.5669550000000 1.0
C      1  0.4461540000000  0.4375560000000  0.4278750000000 1.0
C      1  0.4709330000000  0.5920650000000  0.4289440000000 1.0
C      1  0.5865600000000  0.4820760000000  0.4276280000000 1.0
C      1  0.4622090000000  0.4286090000000  0.5991970000000 1.0
C      1  0.4825850000000  0.5853280000000  0.5656260000000 1.0
C      1  0.5870980000000  0.4862040000000  0.5719830000000 1.0
C      1  0.5843230000000  0.5546660000000  0.4811850000000 1.0
C      1  0.4171030000000  0.5617760000000  0.4854210000000 1.0
C      1  0.5052800000000  0.3959880000000  0.4971440000000 1.0
C      1  0.5812380000000  0.5499990000000  0.5113200000000 1.0
C      1  0.4069840000000  0.5542990000000  0.5130420000000 1.0
C      1  0.5089420000000  0.3993990000000  0.5267310000000 1.0
C      1  0.5834910000000  0.4477090000000  0.4798120000000 1.0
C      1  0.4127780000000  0.4468560000000  0.4826660000000 1.0
C      1  0.5040000000000  0.6059470000000  0.4815420000000 1.0
C      1  0.5832330000000  0.4465240000000  0.5099560000000 1.0
C      1  0.3991590000000  0.4586720000000  0.5114930000000 1.0
C      1  0.5074910000000  0.5962900000000  0.5137240000000 1.0
C      1  0.4601510000000  0.6033710000000  0.4830880000000 1.0
C      1  0.4371000000000  0.4131440000000  0.4763030000000 1.0
C      1  0.6012860000000  0.4830530000000  0.4852290000000 1.0
C      1  0.4676800000000  0.5984410000000  0.5156560000000 1.0
C      1  0.4293210000000  0.4168120000000  0.5087470000000 1.0
C      1  0.6049220000000  0.4815310000000  0.5196010000000 1.0
C      1  0.4627840000000  0.3964480000000  0.4682500000000 1.0
C      1  0.4307420000000  0.5922060000000  0.4797470000000 1.0
C      1  0.5944620000000  0.5161900000000  0.4816110000000 1.0
C      1  0.4195780000000  0.3950730000000  0.5204100000000 1.0
C      1  0.4370380000000  0.5837790000000  0.5121380000000 1.0
C      1  0.6016580000000  0.5134700000000  0.5131660000000 1.0
C      1  0.4474570000000  0.5259090000000  0.5852590000000 1.0
C      1  0.5298020000000  0.4256010000000  0.5954860000000 1.0
C      1  0.5310570000000  0.5431030000000  0.5897420000000 1.0
C      1  0.4427610000000  0.5132760000000  0.4048620000000 1.0
C      1  0.5131530000000  0.4300610000000  0.4166100000000 1.0
C      1  0.5384540000000  0.5478900000000  0.4154420000000 1.0
C      1  0.4287520000000  0.4610660000000  0.5891950000000 1.0
C      1  0.5011660000000  0.5530780000000  0.6001510000000 1.0
C      1  0.5482460000000  0.4466640000000  0.5993650000000 1.0
C      1  0.4347520000000  0.4868690000000  0.4182110000000 1.0
C      1  0.5099630000000  0.5563020000000  0.4046940000000 1.0
C      1  0.5402690000000  0.4474690000000  0.4106080000000 1.0
C      1  0.4379040000000  0.4778390000000  0.4844680000000 1.0
C      1  0.5430130000000  0.4555020000000  0.4777600000000 1.0
C      1  0.5135910000000  0.5626960000000  0.4821920000000 1.0
C      1  0.4407220000000  0.4735290000000  0.5180760000000 1.0
C      1  0.5434860000000  0.4611560000000  0.5107210000000 1.0
C      1  0.5175170000000  0.5577240000000  0.5161940000000 1.0
C      1  0.4385660000000  0.5196860000000  0.4917420000000 1.0
C      1  0.5362590000000  0.5390790000000  0.4729860000000 1.0
C      1  0.5139160000000  0.4390340000000  0.4840050000000 1.0
C      1  0.4410350000000  0.5242000000000  0.5253670000000 1.0
C      1  0.5345590000000  0.5314300000000  0.5060750000000 1.0
C      1  0.5170870000000  0.4413090000000  0.5188090000000 1.0
C      1  0.5044900000000  0.4676740000000  0.5998720000000 1.0
C      1  0.5384270000000  0.5105990000000  0.5939890000000 1.0
C      1  0.4700250000000  0.5067370000000  0.5946040000000 1.0
C      1  0.5068290000000  0.4689390000000  0.4096340000000 1.0
C      1  0.5344520000000  0.5091390000000  0.3996420000000 1.0
C      1  0.4762180000000  0.5153820000000  0.4105900000000 1.0
C      1  0.4942850000000  0.5236660000000  0.6055010000000 1.0
C      1  0.5359050000000  0.4772500000000  0.5910190000000 1.0
C      1  0.4726980000000  0.4757650000000  0.5969790000000 1.0
C      1  0.5071310000000  0.5249090000000  0.4059910000000 1.0
C      1  0.5356720000000  0.4783770000000  0.3979030000000 1.0
C      1  0.4792170000000  0.4835030000000  0.4018350000000 1.0
C      1  0.5313820000000  0.5075280000000  0.4320600000000 1.0
C      1  0.4729410000000  0.5175270000000  0.4434960000000 1.0
C      1  0.4979990000000  0.4715470000000  0.4416840000000 1.0
C      1  0.5228800000000  0.5136230000000  0.5638980000000 1.0
C      1  0.4728580000000  0.5075830000000  0.5607060000000 1.0
C      1  0.5040830000000  0.4652850000000  0.5662100000000 1.0
C      1  0.5286160000000  0.4802030000000  0.4412030000000 1.0
C      1  0.4692700000000  0.4843100000000  0.4497820000000 1.0
C      1  0.5044800000000  0.5233040000000  0.4403360000000 1.0
C      1  0.5325400000000  0.4816550000000  0.5573550000000 1.0
C      1  0.4743790000000  0.4745040000000  0.5612980000000 1.0
C      1  0.4965870000000  0.5255200000000  0.5716270000000 1.0
C      1  0.4885590000000  0.4170500000000  0.4764540000000 1.0
C      1  0.5634020000000  0.5210230000000  0.4757950000000 1.0
C      1  0.4465580000000  0.5494950000000  0.4787930000000 1.0
C      1  0.4849750000000  0.4311220000000  0.5235280000000 1.0
C      1  0.5617810000000  0.5272690000000  0.5183060000000 1.0
C      1  0.4502280000000  0.5556530000000  0.5259870000000 1.0
C      1  0.4836790000000  0.5788560000000  0.4817320000000 1.0
C      1  0.5683970000000  0.4781310000000  0.4781070000000 1.0
C      1  0.4467310000000  0.4450250000000  0.4831570000000 1.0
C      1  0.4866690000000  0.5712390000000  0.5208610000000 1.0
C      1  0.5712700000000  0.4766160000000  0.5197330000000 1.0
C      1  0.4319360000000  0.4418310000000  0.5266870000000 1.0
C      1  0.5186500000000  0.5944830000000  0.5519930000000 1.0
C      1  0.4086300000000  0.4624800000000  0.5647760000000 1.0
C      1  0.5764860000000  0.4450620000000  0.5491400000000 1.0
C      1  0.5078290000000  0.5988170000000  0.4425360000000 1.0
C      1  0.4180290000000  0.4637680000000  0.4383290000000 1.0
C      1  0.5737200000000  0.4471310000000  0.4416310000000 1.0
C      1  0.5212070000000  0.4171710000000  0.5675250000000 1.0
C      1  0.4162000000000  0.5424230000000  0.5511740000000 1.0
C      1  0.5740210000000  0.5592960000000  0.5493620000000 1.0
C      1  0.5072110000000  0.4029990000000  0.4372190000000 1.0
C      1  0.4175020000000  0.5405710000000  0.4499440000000 1.0
C      1  0.5723730000000  0.5627320000000  0.4504580000000 1.0
C      1  0.5952970000000  0.5350010000000  0.5384210000000 1.0
C      1  0.4168470000000  0.5738930000000  0.5376650000000 1.0
C      1  0.5003080000000  0.4007600000000  0.5539020000000 1.0
C      1  0.5930560000000  0.5359730000000  0.4539700000000 1.0
C      1  0.4256630000000  0.5718020000000  0.4530260000000 1.0
C      1  0.4788030000000  0.3932700000000  0.4427490000000 1.0
C      1  0.5964520000000  0.4660770000000  0.5487890000000 1.0
C      1  0.4041980000000  0.4499460000000  0.5412390000000 1.0
C      1  0.4893840000000  0.6054550000000  0.5410180000000 1.0
C      1  0.5984270000000  0.4656750000000  0.4550870000000 1.0
C      1  0.4233040000000  0.4341250000000  0.4528510000000 1.0
C      1  0.4811470000000  0.6096110000000  0.4565840000000 1.0
C      1  0.5218590000000  0.4815020000000  0.4720290000000 1.0
C      1  0.4965600000000  0.5350610000000  0.4712780000000 1.0
C      1  0.4701770000000  0.4883440000000  0.4823800000000 1.0
C      1  0.5244440000000  0.4803100000000  0.5251300000000 1.0
C      1  0.4981910000000  0.5300740000000  0.5220440000000 1.0
C      1  0.4694990000000  0.4815980000000  0.5282400000000 1.0
C      1  0.5182900000000  0.5103190000000  0.4754950000000 1.0
C      1  0.4936400000000  0.4651600000000  0.4753300000000 1.0
C      1  0.4719830000000  0.5193510000000  0.4854090000000 1.0
C      1  0.5239200000000  0.5109450000000  0.5310440000000 1.0
C      1  0.4969400000000  0.4688100000000  0.5215180000000 1.0
C      1  0.4726240000000  0.5149390000000  0.5300060000000 1.0
C      1  0.3734330000000  0.5218290000000  0.5215960000000 1.0
C      1  0.5448380000000  0.3836500000000  0.5194600000000 1.0
C      1  0.5870850000000  0.6000560000000  0.5121820000000 1.0
C      1  0.3766350000000  0.5185260000000  0.4940190000000 1.0
C      1  0.5419300000000  0.3808470000000  0.4936100000000 1.0
C      1  0.5852550000000  0.6029420000000  0.4869520000000 1.0
C      1  0.3591010000000  0.4742140000000  0.4445870000000 1.0
C      1  0.5411520000000  0.6174480000000  0.5161600000000 1.0
C      1  0.5891020000000  0.4065720000000  0.5071840000000 1.0
C      1  0.3805210000000  0.4762740000000  0.4583470000000 1.0
C      1  0.5397210000000  0.6208610000000  0.4901400000000 1.0
C      1  0.5845460000000  0.4079360000000  0.4823020000000 1.0
C      1  0.5628150000000  0.5014780000000  0.5011310000000 1.0
C      1  0.4658690000000  0.5595170000000  0.4989040000000 1.0
C      1  0.4720070000000  0.4324540000000  0.4987230000000 1.0
END
