TITL C-3289333-7213-636 -0.000588996921205504 125000 -1033.13530681718 0 0 189 (C1) n - 1
REM
REM in /nfs/bkarasulu/CARBON/AIRSS/Generating-Clusters/AIREBO/with-SteepDescent/Higher-Symm/SD-CG/HFTN-CG
REM
REM
REM
REM
REM
REM ./C.cell (b20cbc046b6831c77cfcea5457e17084)
REM
REM compiler GCC version 9.2.1 20190827 (Red Hat 9.2.1-1)
REM options -cpp -mtune=generic -march=x86-64 -g -O0 -fpre-include=/usr/include/finclude/math-vector-fortran.h
REM seed -1679420442 -725447531 256607166 2051950808 1946957709 -885290895 1946381765 1312980641 760153738 -787290283 1028040939 -1803449710 -1773455227 451718682 120845115 851971910 -935981744 -1806738369 490075048 -1240522424 647847506 2126390966 82191515 1047279711 1050362331 26844200 1864573023 -635226787 -1613520582 -1244793308 1128981975 254308728 1982555590
REM
CELL 1.54180   50.00000   50.00000   50.00000   90.00000   90.00000   90.00000
LATT -1
SFAC C  
C      1  0.4818080000000  0.4609160000000  0.6014600000000 1.0
C      1  0.6040780000000  0.4865870000000  0.4770070000000 1.0
C      1  0.4681410000000  0.6086190000000  0.4841330000000 1.0
C      1  0.4852170000000  0.5318140000000  0.4018910000000 1.0
C      1  0.5097010000000  0.5265340000000  0.6101070000000 1.0
C      1  0.5100800000000  0.4768230000000  0.3853710000000 1.0
C      1  0.5997720000000  0.5071810000000  0.5311120000000 1.0
C      1  0.3994520000000  0.5075170000000  0.4696060000000 1.0
C      1  0.3960410000000  0.4838490000000  0.5361320000000 1.0
C      1  0.4662570000000  0.3957950000000  0.5223190000000 1.0
C      1  0.5217510000000  0.3961070000000  0.4828480000000 1.0
C      1  0.5298740000000  0.6093670000000  0.5076350000000 1.0
C      1  0.5110930000000  0.4722280000000  0.6039010000000 1.0
C      1  0.3947850000000  0.4754200000000  0.4722080000000 1.0
C      1  0.5301610000000  0.6045120000000  0.4782310000000 1.0
C      1  0.5165020000000  0.5341750000000  0.3980900000000 1.0
C      1  0.4788450000000  0.5263610000000  0.6018520000000 1.0
C      1  0.4790790000000  0.4742950000000  0.3992840000000 1.0
C      1  0.3984300000000  0.5106330000000  0.5222460000000 1.0
C      1  0.6060690000000  0.5188310000000  0.4699520000000 1.0
C      1  0.5969040000000  0.4766580000000  0.5387850000000 1.0
C      1  0.5355610000000  0.3980750000000  0.5125370000000 1.0
C      1  0.4666850000000  0.3979150000000  0.4883490000000 1.0
C      1  0.4725340000000  0.6035280000000  0.5159240000000 1.0
C      1  0.5207430000000  0.4522830000000  0.5708730000000 1.0
C      1  0.5535410000000  0.5127910000000  0.4610880000000 1.0
C      1  0.4586350000000  0.5663780000000  0.5121420000000 1.0
C      1  0.5219590000000  0.5447440000000  0.4462360000000 1.0
C      1  0.4796660000000  0.5528300000000  0.5432540000000 1.0
C      1  0.4790040000000  0.4488990000000  0.4380080000000 1.0
C      1  0.5587770000000  0.4793400000000  0.5495890000000 1.0
C      1  0.4299810000000  0.4680310000000  0.4551770000000 1.0
C      1  0.4359980000000  0.5263080000000  0.5512460000000 1.0
C      1  0.4443370000000  0.4307970000000  0.4842590000000 1.0
C      1  0.5597780000000  0.4293990000000  0.5077540000000 1.0
C      1  0.5465990000000  0.5701140000000  0.4662350000000 1.0
C      1  0.4844760000000  0.4496080000000  0.5531780000000 1.0
C      1  0.4332450000000  0.5135990000000  0.4448620000000 1.0
C      1  0.5432540000000  0.5586330000000  0.5174580000000 1.0
C      1  0.4831270000000  0.5469130000000  0.4379320000000 1.0
C      1  0.5248200000000  0.5601780000000  0.5708300000000 1.0
C      1  0.5217440000000  0.4604380000000  0.4326140000000 1.0
C      1  0.4348230000000  0.4868780000000  0.5447250000000 1.0
C      1  0.5552640000000  0.4731030000000  0.4599640000000 1.0
C      1  0.5639560000000  0.5184310000000  0.5444750000000 1.0
C      1  0.5475770000000  0.4294130000000  0.4650660000000 1.0
C      1  0.4579470000000  0.4362880000000  0.5155600000000 1.0
C      1  0.4524920000000  0.5746440000000  0.4703600000000 1.0
C      1  0.4410100000000  0.4788900000000  0.4106360000000 1.0
C      1  0.4048240000000  0.4255600000000  0.4859780000000 1.0
C      1  0.4536930000000  0.4311470000000  0.4348380000000 1.0
C      1  0.4404500000000  0.5219070000000  0.5925480000000 1.0
C      1  0.5652900000000  0.5261030000000  0.4247100000000 1.0
C      1  0.5606780000000  0.4746390000000  0.5890350000000 1.0
C      1  0.4172390000000  0.5629880000000  0.5203200000000 1.0
C      1  0.5896880000000  0.5543300000000  0.4779690000000 1.0
C      1  0.5842820000000  0.4314180000000  0.5267770000000 1.0
C      1  0.4599380000000  0.5704190000000  0.5708500000000 1.0
C      1  0.5378510000000  0.5762970000000  0.4275860000000 1.0
C      1  0.5404540000000  0.4199610000000  0.5587820000000 1.0
C      1  0.5804040000000  0.4670780000000  0.4295810000000 1.0
C      1  0.5949870000000  0.4367410000000  0.4728710000000 1.0
C      1  0.5167610000000  0.4102530000000  0.4341100000000 1.0
C      1  0.5568740000000  0.5260330000000  0.5929890000000 1.0
C      1  0.4343890000000  0.5367210000000  0.4260630000000 1.0
C      1  0.4314760000000  0.4691470000000  0.5796650000000 1.0
C      1  0.5715450000000  0.5769030000000  0.5221480000000 1.0
C      1  0.4154070000000  0.5568420000000  0.4673020000000 1.0
C      1  0.4132340000000  0.4344140000000  0.5409600000000 1.0
C      1  0.5206430000000  0.5917890000000  0.5586150000000 1.0
C      1  0.4781990000000  0.5862460000000  0.4337000000000 1.0
C      1  0.4675050000000  0.4269080000000  0.5681340000000 1.0
C      1  0.5337840000000  0.4479450000000  0.6001560000000 1.0
C      1  0.5861640000000  0.5374700000000  0.4495470000000 1.0
C      1  0.4573120000000  0.5858180000000  0.5406370000000 1.0
C      1  0.5278800000000  0.5618480000000  0.3987500000000 1.0
C      1  0.4552150000000  0.5492160000000  0.5931140000000 1.0
C      1  0.4535790000000  0.4520080000000  0.4079530000000 1.0
C      1  0.5832400000000  0.4625210000000  0.5666680000000 1.0
C      1  0.3988860000000  0.4441940000000  0.4587790000000 1.0
C      1  0.4072090000000  0.5371720000000  0.5389240000000 1.0
C      1  0.4558040000000  0.4049140000000  0.4560540000000 1.0
C      1  0.5598370000000  0.4084830000000  0.5340080000000 1.0
C      1  0.5363870000000  0.6020530000000  0.4446760000000 1.0
C      1  0.4763810000000  0.4302500000000  0.5976920000000 1.0
C      1  0.4275590000000  0.5599310000000  0.4416030000000 1.0
C      1  0.5469370000000  0.5927040000000  0.5370720000000 1.0
C      1  0.4733170000000  0.5627580000000  0.4094910000000 1.0
C      1  0.5538400000000  0.5502830000000  0.5781260000000 1.0
C      1  0.5638150000000  0.4713840000000  0.4001520000000 1.0
C      1  0.4058980000000  0.4617510000000  0.5598690000000 1.0
C      1  0.5979970000000  0.4616430000000  0.4547090000000 1.0
C      1  0.5891230000000  0.5573090000000  0.5374690000000 1.0
C      1  0.5438050000000  0.4200120000000  0.4377960000000 1.0
C      1  0.4476650000000  0.4121400000000  0.5456300000000 1.0
C      1  0.4447170000000  0.6124160000000  0.4608970000000 1.0
C      1  0.3957470000000  0.5380270000000  0.4772680000000 1.0
C      1  0.4947790000000  0.3879210000000  0.5392460000000 1.0
C      1  0.5431330000000  0.4859200000000  0.3874870000000 1.0
C      1  0.3940890000000  0.4546560000000  0.5236940000000 1.0
C      1  0.6088360000000  0.4567120000000  0.4927360000000 1.0
C      1  0.6054640000000  0.5374620000000  0.5236710000000 1.0
C      1  0.4837030000000  0.6098580000000  0.4538980000000 1.0
C      1  0.5154500000000  0.6163740000000  0.5357040000000 1.0
C      1  0.5082120000000  0.3887490000000  0.4539650000000 1.0
C      1  0.5394880000000  0.5144690000000  0.6126800000000 1.0
C      1  0.4513170000000  0.5293170000000  0.4029920000000 1.0
C      1  0.4543740000000  0.4761580000000  0.6014180000000 1.0
C      1  0.6095830000000  0.5405980000000  0.4958580000000 1.0
C      1  0.5223360000000  0.3961200000000  0.5424620000000 1.0
C      1  0.4571120000000  0.5002130000000  0.3971660000000 1.0
C      1  0.6035320000000  0.4512220000000  0.5204950000000 1.0
C      1  0.3934860000000  0.4522900000000  0.4967600000000 1.0
C      1  0.3924190000000  0.5404090000000  0.5069710000000 1.0
C      1  0.5104620000000  0.6182880000000  0.4544680000000 1.0
C      1  0.4895440000000  0.6248640000000  0.5316270000000 1.0
C      1  0.4801600000000  0.3848740000000  0.4599780000000 1.0
C      1  0.4556080000000  0.5028860000000  0.6101130000000 1.0
C      1  0.5464330000000  0.5176900000000  0.3976510000000 1.0
C      1  0.5414540000000  0.4850420000000  0.6121680000000 1.0
C      1  0.4782730000000  0.4627290000000  0.5222040000000 1.0
C      1  0.5157390000000  0.4786230000000  0.4600750000000 1.0
C      1  0.4589220000000  0.5123110000000  0.4659800000000 1.0
C      1  0.4865820000000  0.5478840000000  0.4808910000000 1.0
C      1  0.5250660000000  0.5348440000000  0.5271820000000 1.0
C      1  0.5228080000000  0.4497240000000  0.4765620000000 1.0
C      1  0.5126760000000  0.5338670000000  0.5545240000000 1.0
C      1  0.4897730000000  0.5221960000000  0.4595470000000 1.0
C      1  0.4937740000000  0.4864320000000  0.5410250000000 1.0
C      1  0.4569490000000  0.4853730000000  0.5114750000000 1.0
C      1  0.5364670000000  0.4862420000000  0.4853050000000 1.0
C      1  0.5424770000000  0.5094100000000  0.5196950000000 1.0
C      1  0.5336020000000  0.4448290000000  0.5078820000000 1.0
C      1  0.4829010000000  0.4706380000000  0.4638710000000 1.0
C      1  0.5354750000000  0.5191040000000  0.4878600000000 1.0
C      1  0.5197420000000  0.5417670000000  0.4772180000000 1.0
C      1  0.4741420000000  0.5366680000000  0.5075760000000 1.0
C      1  0.4933160000000  0.4552430000000  0.4926020000000 1.0
C      1  0.4831180000000  0.5191370000000  0.5463670000000 1.0
C      1  0.5209310000000  0.5111560000000  0.4515230000000 1.0
C      1  0.5248630000000  0.4768970000000  0.5493980000000 1.0
C      1  0.5362670000000  0.4759710000000  0.5168360000000 1.0
C      1  0.4578570000000  0.4846590000000  0.4784930000000 1.0
C      1  0.4561800000000  0.5162700000000  0.5257810000000 1.0
C      1  0.4296670000000  0.5172940000000  0.4786040000000 1.0
C      1  0.4868860000000  0.4211770000000  0.5186480000000 1.0
C      1  0.5146990000000  0.4819560000000  0.4145940000000 1.0
C      1  0.4239860000000  0.4803830000000  0.5170700000000 1.0
C      1  0.5748870000000  0.4758080000000  0.4851990000000 1.0
C      1  0.5743100000000  0.5154600000000  0.5119610000000 1.0
C      1  0.4833810000000  0.5791150000000  0.4792420000000 1.0
C      1  0.5192800000000  0.5797810000000  0.5206140000000 1.0
C      1  0.5066890000000  0.4220480000000  0.4749670000000 1.0
C      1  0.5158180000000  0.5185600000000  0.5809030000000 1.0
C      1  0.4767560000000  0.5135840000000  0.4293390000000 1.0
C      1  0.4840480000000  0.4771180000000  0.5722500000000 1.0
C      1  0.5764590000000  0.5170330000000  0.4824960000000 1.0
C      1  0.5122890000000  0.4227850000000  0.5145060000000 1.0
C      1  0.4792140000000  0.4826440000000  0.4322560000000 1.0
C      1  0.5701100000000  0.4729760000000  0.5181630000000 1.0
C      1  0.4257480000000  0.4765090000000  0.4862280000000 1.0
C      1  0.4274910000000  0.5214310000000  0.5082780000000 1.0
C      1  0.5147960000000  0.5750720000000  0.4730100000000 1.0
C      1  0.4902550000000  0.5749950000000  0.5212130000000 1.0
C      1  0.4759960000000  0.4286140000000  0.4808930000000 1.0
C      1  0.4750070000000  0.5084520000000  0.5756770000000 1.0
C      1  0.5237740000000  0.5090800000000  0.4198530000000 1.0
C      1  0.5213160000000  0.4915610000000  0.5786390000000 1.0
C      1  0.4252080000000  0.5017930000000  0.5721910000000 1.0
C      1  0.5676460000000  0.5026440000000  0.5727060000000 1.0
C      1  0.5651550000000  0.4957210000000  0.4365110000000 1.0
C      1  0.4278920000000  0.4860260000000  0.4345520000000 1.0
C      1  0.5062770000000  0.5685730000000  0.4313960000000 1.0
C      1  0.5700370000000  0.4253670000000  0.4803200000000 1.0
C      1  0.5073410000000  0.4267660000000  0.5625930000000 1.0
C      1  0.4315960000000  0.5716470000000  0.4934040000000 1.0
C      1  0.4935360000000  0.5725570000000  0.5658620000000 1.0
C      1  0.5038630000000  0.4351450000000  0.4271960000000 1.0
C      1  0.5637740000000  0.5667600000000  0.4913080000000 1.0
C      1  0.4260240000000  0.4266150000000  0.5126020000000 1.0
C      1  0.4389770000000  0.5595090000000  0.5462600000000 1.0
C      1  0.5596820000000  0.5560850000000  0.4398010000000 1.0
C      1  0.5585450000000  0.4418710000000  0.5776490000000 1.0
C      1  0.5514490000000  0.4525810000000  0.4331090000000 1.0
C      1  0.4456360000000  0.5858400000000  0.4402360000000 1.0
C      1  0.4396150000000  0.4415180000000  0.5612000000000 1.0
C      1  0.4318760000000  0.4368800000000  0.4575110000000 1.0
C      1  0.5710170000000  0.5459160000000  0.5556710000000 1.0
C      1  0.5029210000000  0.5262740000000  0.5096760000000 1.0
END
