TITL C-3289320-4661-577 -0.00128834421423655 125000 -351.87534997381 0 0 60 (C1) n - 1
REM
REM in /nfs/bkarasulu/CARBON/AIRSS/Generating-Clusters/AIREBO/with-SteepDescent/Higher-Symm/SD-CG/HFTN-CG
REM
REM
REM
REM
REM
REM ./C.cell (b20cbc046b6831c77cfcea5457e17084)
REM
REM compiler GCC version 9.2.1 20190827 (Red Hat 9.2.1-1)
REM options -cpp -mtune=generic -march=x86-64 -g -O0 -fpre-include=/usr/include/finclude/math-vector-fortran.h
REM seed -1952791559 -717142740 -267478556 -372807881 -2117175615 -240245565 -781060308 1693560637 437098011 285115111 1055199728 1156864660 2027555713 1616268498 -721646545 -47402639 984245836 1309121525 849974085 2027521320 1953593945 -1519135804 1888779962 -1710734639 -1740318150 618915117 -68121193 2147303642 198357528 -1281763621 193055919 37730778 -1341042468
REM
CELL 1.54180   50.00000   50.00000   50.00000   90.00000   90.00000   90.00000
LATT -1
SFAC C  
C      1  0.4814640000000  0.5014480000000  0.4333310000000 1.0
C      1  0.5262910000000  0.5249060000000  0.4397810000000 1.0
C      1  0.4732650000000  0.4847070000000  0.5678450000000 1.0
C      1  0.5151010000000  0.5187510000000  0.5611380000000 1.0
C      1  0.4699440000000  0.5260110000000  0.4396580000000 1.0
C      1  0.5137280000000  0.5003740000000  0.4343490000000 1.0
C      1  0.4815240000000  0.5129390000000  0.5614890000000 1.0
C      1  0.5327880000000  0.4930440000000  0.5548130000000 1.0
C      1  0.4845480000000  0.4263100000000  0.4722180000000 1.0
C      1  0.5179320000000  0.5710460000000  0.4543890000000 1.0
C      1  0.4827670000000  0.4107520000000  0.5316640000000 1.0
C      1  0.5144590000000  0.5547500000000  0.5234910000000 1.0
C      1  0.4866550000000  0.5697840000000  0.4532190000000 1.0
C      1  0.5113540000000  0.4229700000000  0.4681290000000 1.0
C      1  0.4832670000000  0.5554430000000  0.5288860000000 1.0
C      1  0.5100830000000  0.4077440000000  0.5273890000000 1.0
C      1  0.4387820000000  0.4913380000000  0.5210640000000 1.0
C      1  0.5576080000000  0.5254390000000  0.5287790000000 1.0
C      1  0.4350110000000  0.4946660000000  0.4789680000000 1.0
C      1  0.5645030000000  0.5189260000000  0.4817280000000 1.0
C      1  0.4405280000000  0.5187180000000  0.5258800000000 1.0
C      1  0.5505070000000  0.4969140000000  0.5337430000000 1.0
C      1  0.4373360000000  0.5222820000000  0.4791590000000 1.0
C      1  0.5637510000000  0.4914240000000  0.4847160000000 1.0
C      1  0.4693670000000  0.4346960000000  0.5241510000000 1.0
C      1  0.5274540000000  0.5658410000000  0.5026080000000 1.0
C      1  0.4719540000000  0.4410010000000  0.4977050000000 1.0
C      1  0.5320950000000  0.5592170000000  0.4758330000000 1.0
C      1  0.4710660000000  0.5671030000000  0.5020910000000 1.0
C      1  0.5275190000000  0.4277470000000  0.5170910000000 1.0
C      1  0.4716090000000  0.5603590000000  0.4758300000000 1.0
C      1  0.5332960000000  0.4286260000000  0.4897440000000 1.0
C      1  0.5275030000000  0.4515030000000  0.5310750000000 1.0
C      1  0.4691720000000  0.5251710000000  0.5335860000000 1.0
C      1  0.5284880000000  0.4513410000000  0.4646300000000 1.0
C      1  0.4644850000000  0.5308360000000  0.4695970000000 1.0
C      1  0.5255290000000  0.5279700000000  0.5315080000000 1.0
C      1  0.4727000000000  0.4585650000000  0.5458960000000 1.0
C      1  0.5395150000000  0.5295900000000  0.4686860000000 1.0
C      1  0.4731690000000  0.4566450000000  0.4674520000000 1.0
C      1  0.4862060000000  0.4733520000000  0.4439760000000 1.0
C      1  0.5135940000000  0.5496210000000  0.4318960000000 1.0
C      1  0.4971230000000  0.4631910000000  0.5677550000000 1.0
C      1  0.5117750000000  0.5473400000000  0.5792480000000 1.0
C      1  0.4825420000000  0.5494770000000  0.4290640000000 1.0
C      1  0.5164740000000  0.4695730000000  0.4420470000000 1.0
C      1  0.4867910000000  0.5467220000000  0.5614870000000 1.0
C      1  0.5223430000000  0.4672020000000  0.5562450000000 1.0
C      1  0.4798050000000  0.4730610000000  0.5202720000000 1.0
C      1  0.5144310000000  0.5089770000000  0.5107720000000 1.0
C      1  0.4896360000000  0.4821620000000  0.4827520000000 1.0
C      1  0.5175940000000  0.5104710000000  0.4787870000000 1.0
C      1  0.4825260000000  0.5052710000000  0.5149230000000 1.0
C      1  0.5112420000000  0.4779810000000  0.5193830000000 1.0
C      1  0.4851330000000  0.5149380000000  0.4842190000000 1.0
C      1  0.5217570000000  0.4770170000000  0.4809610000000 1.0
C      1  0.4296610000000  0.5335030000000  0.5041800000000 1.0
C      1  0.5428810000000  0.4810750000000  0.5073060000000 1.0
C      1  0.4582790000000  0.4799680000000  0.4957690000000 1.0
C      1  0.5720890000000  0.5322050000000  0.5056460000000 1.0
END
