TITL C-3289335-9438-600 0.010900785665383 125000 -548.065233425224 0 0 99 (C1) n - 1
REM
REM in /nfs/bkarasulu/CARBON/AIRSS/Generating-Clusters/AIREBO/with-SteepDescent/Higher-Symm/SD-CG/HFTN-CG
REM
REM
REM
REM
REM
REM ./C.cell (b20cbc046b6831c77cfcea5457e17084)
REM
REM compiler GCC version 9.2.1 20190827 (Red Hat 9.2.1-1)
REM options -cpp -mtune=generic -march=x86-64 -g -O0 -fpre-include=/usr/include/finclude/math-vector-fortran.h
REM seed 1696443538 -91351290 1264594252 -358892012 -1662493508 -165588261 -1285275190 -237012770 472358600 -1902788095 1017180668 -1178534656 830698450 -1006754813 48407078 565237888 -1705835336 -1333692225 -1344444279 -722397016 1417076105 9201974 -473575600 -996126719 1889157027 1188729676 1956733485 -911989826 1101773536 -1694501904 -1331831515 947876729 23120261
REM
CELL 1.54180   50.00000   50.00000   50.00000   90.00000   90.00000   90.00000
LATT -1
SFAC C  
C      1  0.5566830000000  0.5813270000000  0.5023580000000 1.0
C      1  0.4466190000000  0.4230910000000  0.5130530000000 1.0
C      1  0.5513630000000  0.4266110000000  0.4866350000000 1.0
C      1  0.4488150000000  0.5748640000000  0.4831700000000 1.0
C      1  0.5199480000000  0.4599270000000  0.4583740000000 1.0
C      1  0.4780510000000  0.5454650000000  0.4514660000000 1.0
C      1  0.5088700000000  0.5412760000000  0.5563110000000 1.0
C      1  0.4765690000000  0.4428730000000  0.5463590000000 1.0
C      1  0.5129690000000  0.4921520000000  0.4609960000000 1.0
C      1  0.4878130000000  0.5132180000000  0.4562000000000 1.0
C      1  0.5124720000000  0.5159180000000  0.5406160000000 1.0
C      1  0.4877180000000  0.4960610000000  0.5435750000000 1.0
C      1  0.3878190000000  0.5029420000000  0.4713680000000 1.0
C      1  0.6128490000000  0.4959580000000  0.4696320000000 1.0
C      1  0.3874370000000  0.4921050000000  0.5309710000000 1.0
C      1  0.6111730000000  0.5024130000000  0.5326680000000 1.0
C      1  0.5106250000000  0.4804840000000  0.4918200000000 1.0
C      1  0.4905410000000  0.5296270000000  0.4858750000000 1.0
C      1  0.5142160000000  0.5241300000000  0.5101350000000 1.0
C      1  0.4884790000000  0.4759360000000  0.5177680000000 1.0
C      1  0.4285650000000  0.4594870000000  0.5452270000000 1.0
C      1  0.5847210000000  0.5451580000000  0.5275200000000 1.0
C      1  0.4270330000000  0.5379940000000  0.4559680000000 1.0
C      1  0.5723680000000  0.4612310000000  0.4572480000000 1.0
C      1  0.4382920000000  0.4994030000000  0.5172550000000 1.0
C      1  0.5612730000000  0.5029660000000  0.5165830000000 1.0
C      1  0.4388470000000  0.4991780000000  0.4848470000000 1.0
C      1  0.5615480000000  0.5006560000000  0.4832070000000 1.0
C      1  0.5245740000000  0.5660170000000  0.4444320000000 1.0
C      1  0.4733140000000  0.4352370000000  0.4482910000000 1.0
C      1  0.5238960000000  0.4293280000000  0.5482720000000 1.0
C      1  0.4729130000000  0.5684440000000  0.5493620000000 1.0
C      1  0.4204960000000  0.5743720000000  0.5339500000000 1.0
C      1  0.5775170000000  0.4300700000000  0.5383730000000 1.0
C      1  0.4203980000000  0.4308510000000  0.4617380000000 1.0
C      1  0.5781740000000  0.5716110000000  0.4500580000000 1.0
C      1  0.4358480000000  0.4256100000000  0.4884150000000 1.0
C      1  0.5641790000000  0.5791920000000  0.4768530000000 1.0
C      1  0.4370350000000  0.5756290000000  0.5074400000000 1.0
C      1  0.5618970000000  0.4267570000000  0.5113940000000 1.0
C      1  0.5392180000000  0.4973800000000  0.5494130000000 1.0
C      1  0.4616650000000  0.5097020000000  0.5478490000000 1.0
C      1  0.5376360000000  0.5070080000000  0.4519010000000 1.0
C      1  0.4630550000000  0.4934590000000  0.4537050000000 1.0
C      1  0.4866360000000  0.4418500000000  0.4238350000000 1.0
C      1  0.5165120000000  0.5607190000000  0.4186980000000 1.0
C      1  0.4744770000000  0.5624200000000  0.5765490000000 1.0
C      1  0.5138510000000  0.4379710000000  0.5734270000000 1.0
C      1  0.4964530000000  0.5878790000000  0.4875710000000 1.0
C      1  0.5051770000000  0.4101360000000  0.4840680000000 1.0
C      1  0.4934980000000  0.4063910000000  0.5071970000000 1.0
C      1  0.5072180000000  0.5880950000000  0.5122010000000 1.0
C      1  0.4959500000000  0.4205300000000  0.5363680000000 1.0
C      1  0.5022230000000  0.5670410000000  0.5369200000000 1.0
C      1  0.4985260000000  0.5702240000000  0.4592360000000 1.0
C      1  0.5019800000000  0.4321290000000  0.4602570000000 1.0
C      1  0.4904390000000  0.4542480000000  0.5687940000000 1.0
C      1  0.4966870000000  0.5456680000000  0.5807870000000 1.0
C      1  0.4916340000000  0.5472780000000  0.4188970000000 1.0
C      1  0.5123050000000  0.4518080000000  0.4270940000000 1.0
C      1  0.4577840000000  0.5252560000000  0.4938960000000 1.0
C      1  0.5407520000000  0.4765100000000  0.4951510000000 1.0
C      1  0.4580560000000  0.4732000000000  0.5083230000000 1.0
C      1  0.5430450000000  0.5290220000000  0.5039260000000 1.0
C      1  0.4822060000000  0.3897550000000  0.5416580000000 1.0
C      1  0.5354200000000  0.5718130000000  0.5344460000000 1.0
C      1  0.4848760000000  0.6004940000000  0.4514300000000 1.0
C      1  0.5208740000000  0.4065810000000  0.4477470000000 1.0
C      1  0.4345320000000  0.5049080000000  0.4419360000000 1.0
C      1  0.5654360000000  0.4932920000000  0.4407630000000 1.0
C      1  0.4354940000000  0.4927620000000  0.5590850000000 1.0
C      1  0.5663510000000  0.5091620000000  0.5572250000000 1.0
C      1  0.4526120000000  0.4872740000000  0.4224420000000 1.0
C      1  0.5468980000000  0.5087960000000  0.4198830000000 1.0
C      1  0.4498140000000  0.5138220000000  0.5785510000000 1.0
C      1  0.5216350000000  0.4890350000000  0.5747350000000 1.0
C      1  0.4550250000000  0.4717500000000  0.4758110000000 1.0
C      1  0.5479700000000  0.5295610000000  0.4714630000000 1.0
C      1  0.4519160000000  0.5295660000000  0.5252980000000 1.0
C      1  0.5462190000000  0.4740540000000  0.5272960000000 1.0
C      1  0.4140420000000  0.5092480000000  0.4672880000000 1.0
C      1  0.5865460000000  0.4898190000000  0.4661770000000 1.0
C      1  0.4141010000000  0.4876780000000  0.5345210000000 1.0
C      1  0.5863380000000  0.5146650000000  0.5332100000000 1.0
C      1  0.4521550000000  0.4486810000000  0.5284820000000 1.0
C      1  0.5566080000000  0.5534760000000  0.5181530000000 1.0
C      1  0.4523750000000  0.5477780000000  0.4703870000000 1.0
C      1  0.5483090000000  0.4533430000000  0.4737510000000 1.0
C      1  0.5357820000000  0.5987620000000  0.5156860000000 1.0
C      1  0.4647610000000  0.4029890000000  0.5185280000000 1.0
C      1  0.5347250000000  0.4073020000000  0.4761900000000 1.0
C      1  0.4681250000000  0.5930860000000  0.4765910000000 1.0
C      1  0.5467700000000  0.4445390000000  0.5353690000000 1.0
C      1  0.4504700000000  0.5581800000000  0.5326480000000 1.0
C      1  0.5486900000000  0.5565420000000  0.4586920000000 1.0
C      1  0.4514680000000  0.4443920000000  0.4654060000000 1.0
C      1  0.4917110000000  0.5188150000000  0.4233000000000 1.0
C      1  0.4964860000000  0.4811310000000  0.5681000000000 1.0
C      1  0.4899170000000  0.5030790000000  0.5022820000000 1.0
END
