TITL C-3289320-4661-561 0.000885782635440802 125000 -305.674604164204 0 0 57 (C1) n - 1
REM
REM in /nfs/bkarasulu/CARBON/AIRSS/Generating-Clusters/AIREBO/with-SteepDescent/Higher-Symm/SD-CG/HFTN-CG
REM
REM
REM
REM
REM
REM ./C.cell (b20cbc046b6831c77cfcea5457e17084)
REM
REM compiler GCC version 9.2.1 20190827 (Red Hat 9.2.1-1)
REM options -cpp -mtune=generic -march=x86-64 -g -O0 -fpre-include=/usr/include/finclude/math-vector-fortran.h
REM seed -1907508793 -859078549 -577585422 1845190918 -1572757537 -829803057 2096060618 -963381804 -1529114971 634916313 -1841611429 1700492249 -1990788500 -89749207 -1389541083 885266964 -1818888831 654184369 1783074402 -1236784753 -308628943 -1643041804 493309009 -674161033 -1112996716 -219048273 -1688734554 -93108009 -611157818 765127552 -250130906 1905954435 -1918459465
REM
CELL 1.54180   50.00000   50.00000   50.00000   90.00000   90.00000   90.00000
LATT -1
SFAC C  
C      1  0.4535950000000  0.5330720000000  0.4609650000000 1.0
C      1  0.5032840000000  0.5320470000000  0.4409850000000 1.0
C      1  0.5507520000000  0.5310120000000  0.4658730000000 1.0
C      1  0.5598470000000  0.5313160000000  0.5173960000000 1.0
C      1  0.5236330000000  0.5328380000000  0.5563720000000 1.0
C      1  0.4704450000000  0.5342950000000  0.5540900000000 1.0
C      1  0.4388640000000  0.5340920000000  0.5115760000000 1.0
C      1  0.5607460000000  0.4854840000000  0.5052930000000 1.0
C      1  0.5382300000000  0.4875770000000  0.5578570000000 1.0
C      1  0.4783260000000  0.4946930000000  0.5705550000000 1.0
C      1  0.4315610000000  0.4930570000000  0.5291900000000 1.0
C      1  0.4398850000000  0.4889910000000  0.4678370000000 1.0
C      1  0.4905310000000  0.4941500000000  0.4402780000000 1.0
C      1  0.5496290000000  0.4941970000000  0.4464960000000 1.0
C      1  0.5387480000000  0.4383510000000  0.4967680000000 1.0
C      1  0.5207020000000  0.4356630000000  0.5254450000000 1.0
C      1  0.4902340000000  0.4448410000000  0.5374510000000 1.0
C      1  0.4670980000000  0.4434460000000  0.5194230000000 1.0
C      1  0.4739660000000  0.4430790000000  0.4858900000000 1.0
C      1  0.4988880000000  0.4379780000000  0.4631980000000 1.0
C      1  0.5286880000000  0.4395400000000  0.4682820000000 1.0
C      1  0.5351190000000  0.5314110000000  0.4444350000000 1.0
C      1  0.5687600000000  0.5309330000000  0.4920810000000 1.0
C      1  0.5485230000000  0.5318230000000  0.5467630000000 1.0
C      1  0.4938030000000  0.5336880000000  0.5669400000000 1.0
C      1  0.4430600000000  0.5349690000000  0.5379620000000 1.0
C      1  0.4347530000000  0.5332880000000  0.4801020000000 1.0
C      1  0.4766810000000  0.5325330000000  0.4389010000000 1.0
C      1  0.5108980000000  0.5042920000000  0.5683600000000 1.0
C      1  0.4510720000000  0.5063490000000  0.5538890000000 1.0
C      1  0.4309440000000  0.5043250000000  0.4970870000000 1.0
C      1  0.4582240000000  0.5042740000000  0.4438500000000 1.0
C      1  0.5202370000000  0.5036850000000  0.4322120000000 1.0
C      1  0.5654910000000  0.5018720000000  0.4758730000000 1.0
C      1  0.5588480000000  0.5017890000000  0.5346230000000 1.0
C      1  0.4464360000000  0.4559940000000  0.4738550000000 1.0
C      1  0.4900380000000  0.4615040000000  0.4480280000000 1.0
C      1  0.5384150000000  0.4639850000000  0.4579340000000 1.0
C      1  0.5616890000000  0.4538040000000  0.5017230000000 1.0
C      1  0.5275660000000  0.4608230000000  0.5406610000000 1.0
C      1  0.4901530000000  0.4676270000000  0.5534710000000 1.0
C      1  0.4505950000000  0.4653560000000  0.5240560000000 1.0
C      1  0.4627740000000  0.4812760000000  0.4896710000000 1.0
C      1  0.4866420000000  0.4854930000000  0.4709300000000 1.0
C      1  0.5276750000000  0.4902590000000  0.4716050000000 1.0
C      1  0.5302360000000  0.4917760000000  0.5021270000000 1.0
C      1  0.5167940000000  0.4897790000000  0.5316050000000 1.0
C      1  0.4864210000000  0.4971160000000  0.5376200000000 1.0
C      1  0.4636290000000  0.4947330000000  0.5178980000000 1.0
C      1  0.4986920000000  0.5290260000000  0.4973370000000 1.0
C      1  0.4971530000000  0.5553270000000  0.4992450000000 1.0
C      1  0.5026280000000  0.4638210000000  0.5001830000000 1.0
C      1  0.4973620000000  0.6077560000000  0.5052160000000 1.0
C      1  0.4982290000000  0.5818420000000  0.5014100000000 1.0
C      1  0.4995480000000  0.3996990000000  0.4973360000000 1.0
C      1  0.4984310000000  0.4975120000000  0.4973910000000 1.0
C      1  0.5000900000000  0.4298870000000  0.5019240000000 1.0
END
