TITL C-3289325-7307-761 0.00405412901195956 125000 -287.907968780177 0 0 51 (C1) n - 1
REM
REM in /nfs/bkarasulu/CARBON/AIRSS/Generating-Clusters/AIREBO/with-SteepDescent/Higher-Symm/SD-CG/HFTN-CG
REM
REM
REM
REM
REM
REM ./C.cell (b20cbc046b6831c77cfcea5457e17084)
REM
REM compiler GCC version 9.2.1 20190827 (Red Hat 9.2.1-1)
REM options -cpp -mtune=generic -march=x86-64 -g -O0 -fpre-include=/usr/include/finclude/math-vector-fortran.h
REM seed -470474636 384307382 1508706454 -821880381 1556073323 2065379969 -898929081 2020456466 2033885392 -1639612405 -720000265 -13418492 -633085284 -677089023 464520493 543957155 29263506 -1644871095 1108064609 -1529075595 -1717139222 441475012 -2027244333 -1831391196 1464566463 1269098803 1973083169 -1663471175 1035638604 -250705461 -2145512645 205105844 -1329571352
REM
CELL 1.54180   50.00000   50.00000   50.00000   90.00000   90.00000   90.00000
LATT -1
SFAC C  
C      1  0.4706560000000  0.5414980000000  0.5384220000000 1.0
C      1  0.4835390000000  0.5455530000000  0.4532810000000 1.0
C      1  0.5513820000000  0.5492300000000  0.5080950000000 1.0
C      1  0.5361020000000  0.4600330000000  0.5464670000000 1.0
C      1  0.5187220000000  0.4596270000000  0.4494310000000 1.0
C      1  0.4393630000000  0.4568360000000  0.5046360000000 1.0
C      1  0.4415130000000  0.4617650000000  0.5365180000000 1.0
C      1  0.4945190000000  0.4685050000000  0.4321520000000 1.0
C      1  0.5624200000000  0.4667110000000  0.5306370000000 1.0
C      1  0.5580960000000  0.5454930000000  0.5353040000000 1.0
C      1  0.5047910000000  0.5381850000000  0.4364400000000 1.0
C      1  0.4446760000000  0.5349440000000  0.5295100000000 1.0
C      1  0.4404840000000  0.4656410000000  0.4516820000000 1.0
C      1  0.5674310000000  0.4654480000000  0.4726120000000 1.0
C      1  0.4876660000000  0.4647080000000  0.5694420000000 1.0
C      1  0.5540750000000  0.5301870000000  0.4602900000000 1.0
C      1  0.4390030000000  0.5315080000000  0.4747130000000 1.0
C      1  0.5111920000000  0.5303430000000  0.5630780000000 1.0
C      1  0.4714230000000  0.4515090000000  0.5120590000000 1.0
C      1  0.5048330000000  0.4478470000000  0.4754860000000 1.0
C      1  0.5183530000000  0.4493330000000  0.5223600000000 1.0
C      1  0.5289320000000  0.5658640000000  0.5034560000000 1.0
C      1  0.4898460000000  0.5638370000000  0.4738160000000 1.0
C      1  0.4839380000000  0.5610520000000  0.5227680000000 1.0
C      1  0.4531560000000  0.4982240000000  0.4577340000000 1.0
C      1  0.5575780000000  0.4977750000000  0.4833590000000 1.0
C      1  0.4822390000000  0.4947890000000  0.5545120000000 1.0
C      1  0.5445090000000  0.4987570000000  0.4519520000000 1.0
C      1  0.4320960000000  0.4999820000000  0.4844140000000 1.0
C      1  0.5286200000000  0.5039250000000  0.5575210000000 1.0
C      1  0.4793920000000  0.4535320000000  0.4826300000000 1.0
C      1  0.5249050000000  0.4533770000000  0.4965020000000 1.0
C      1  0.4909210000000  0.4586080000000  0.5292120000000 1.0
C      1  0.5168230000000  0.5722840000000  0.4784500000000 1.0
C      1  0.4733370000000  0.5671670000000  0.4968080000000 1.0
C      1  0.5107990000000  0.5700630000000  0.5253130000000 1.0
C      1  0.4843030000000  0.5245160000000  0.5559810000000 1.0
C      1  0.4608150000000  0.5302480000000  0.4546690000000 1.0
C      1  0.5593340000000  0.5305540000000  0.4895190000000 1.0
C      1  0.5128870000000  0.4547730000000  0.5707900000000 1.0
C      1  0.5520210000000  0.4539360000000  0.4532970000000 1.0
C      1  0.4308700000000  0.4515390000000  0.4727690000000 1.0
C      1  0.4699430000000  0.4755170000000  0.4387780000000 1.0
C      1  0.5668950000000  0.4737540000000  0.5055600000000 1.0
C      1  0.4605400000000  0.4696660000000  0.5527560000000 1.0
C      1  0.5279290000000  0.5258720000000  0.4429850000000 1.0
C      1  0.4364950000000  0.5249070000000  0.5057080000000 1.0
C      1  0.5419790000000  0.5320670000000  0.5529260000000 1.0
C      1  0.5108500000000  0.4827720000000  0.5424540000000 1.0
C      1  0.5298510000000  0.4787910000000  0.4752540000000 1.0
C      1  0.4579560000000  0.4779260000000  0.4854900000000 1.0
END
