TITL C-3289334-2237-358 0.00190059550014712 125000 -1017.35195633847 0 0 185 (C1) n - 1
REM
REM in /nfs/bkarasulu/CARBON/AIRSS/Generating-Clusters/AIREBO/with-SteepDescent/Higher-Symm/SD-CG/HFTN-CG
REM
REM
REM
REM
REM
REM ./C.cell (b20cbc046b6831c77cfcea5457e17084)
REM
REM compiler GCC version 9.2.1 20190827 (Red Hat 9.2.1-1)
REM options -cpp -mtune=generic -march=x86-64 -g -O0 -fpre-include=/usr/include/finclude/math-vector-fortran.h
REM seed 1148455706 182300552 1043616180 -1041425687 -2132150295 445971642 -2041379955 -814151408 1529932907 -1621031093 423508063 1355545028 -1909333271 -1993364723 823406748 -539083854 -1511977964 552694187 80718484 913942832 871566318 -1347379923 497933590 669720856 -165607298 -1769636075 1923541647 1604958046 -1269385737 -1890096226 890911485 2088565961 1594432961
REM
CELL 1.54180   50.00000   50.00000   50.00000   90.00000   90.00000   90.00000
LATT -1
SFAC C  
C      1  0.5179890000000  0.5138960000000  0.5062400000000 1.0
C      1  0.5051920000000  0.4810880000000  0.5251460000000 1.0
C      1  0.5791700000000  0.5840260000000  0.4815440000000 1.0
C      1  0.5782340000000  0.4247440000000  0.4843970000000 1.0
C      1  0.4943460000000  0.4429710000000  0.4906140000000 1.0
C      1  0.4866910000000  0.5618240000000  0.5047380000000 1.0
C      1  0.4994330000000  0.5930100000000  0.4835380000000 1.0
C      1  0.4995820000000  0.4104020000000  0.4827630000000 1.0
C      1  0.5224370000000  0.5547930000000  0.5917210000000 1.0
C      1  0.5368100000000  0.4478710000000  0.5842530000000 1.0
C      1  0.4877230000000  0.4113630000000  0.5387900000000 1.0
C      1  0.4954070000000  0.5743390000000  0.5337700000000 1.0
C      1  0.4632420000000  0.5358540000000  0.5863300000000 1.0
C      1  0.4739620000000  0.4520060000000  0.5984790000000 1.0
C      1  0.5391910000000  0.5204520000000  0.4090290000000 1.0
C      1  0.5429730000000  0.4874920000000  0.4014420000000 1.0
C      1  0.4997790000000  0.4851600000000  0.4346710000000 1.0
C      1  0.5031850000000  0.5156330000000  0.4366620000000 1.0
C      1  0.4692550000000  0.5178800000000  0.3786300000000 1.0
C      1  0.4605600000000  0.4531800000000  0.3950990000000 1.0
C      1  0.4479800000000  0.5783940000000  0.4663060000000 1.0
C      1  0.4440010000000  0.4166580000000  0.4577610000000 1.0
C      1  0.4945210000000  0.4401560000000  0.4567230000000 1.0
C      1  0.4908470000000  0.5477650000000  0.4579470000000 1.0
C      1  0.5491430000000  0.4773730000000  0.5901850000000 1.0
C      1  0.5477260000000  0.5359180000000  0.6002700000000 1.0
C      1  0.5092330000000  0.5995980000000  0.5156620000000 1.0
C      1  0.5083010000000  0.4019240000000  0.5145440000000 1.0
C      1  0.5108560000000  0.5810320000000  0.5591900000000 1.0
C      1  0.4940220000000  0.4139440000000  0.5706170000000 1.0
C      1  0.5537010000000  0.4021890000000  0.4765240000000 1.0
C      1  0.5493720000000  0.5994730000000  0.4768310000000 1.0
C      1  0.4249980000000  0.4079630000000  0.4743150000000 1.0
C      1  0.4235270000000  0.5950550000000  0.4762250000000 1.0
C      1  0.5194040000000  0.5332780000000  0.4583350000000 1.0
C      1  0.5135110000000  0.4662500000000  0.4583990000000 1.0
C      1  0.4501540000000  0.4244670000000  0.5078320000000 1.0
C      1  0.4489960000000  0.5870310000000  0.5097700000000 1.0
C      1  0.5299710000000  0.4251530000000  0.4787370000000 1.0
C      1  0.5280430000000  0.5746250000000  0.4835300000000 1.0
C      1  0.5186690000000  0.5234240000000  0.5894800000000 1.0
C      1  0.5164350000000  0.4818530000000  0.5845070000000 1.0
C      1  0.4775430000000  0.4930590000000  0.5147810000000 1.0
C      1  0.4856060000000  0.5220510000000  0.5074480000000 1.0
C      1  0.4220140000000  0.5473040000000  0.5265990000000 1.0
C      1  0.4224020000000  0.4491120000000  0.5226470000000 1.0
C      1  0.5777970000000  0.4363320000000  0.4544550000000 1.0
C      1  0.5736180000000  0.5647480000000  0.4547350000000 1.0
C      1  0.4732970000000  0.4134520000000  0.4613920000000 1.0
C      1  0.4795220000000  0.5770260000000  0.4613270000000 1.0
C      1  0.5185120000000  0.5154900000000  0.5592140000000 1.0
C      1  0.5187290000000  0.4858100000000  0.5508090000000 1.0
C      1  0.5335330000000  0.5427100000000  0.4832890000000 1.0
C      1  0.5424960000000  0.4555130000000  0.4725750000000 1.0
C      1  0.4137860000000  0.5164900000000  0.5258830000000 1.0
C      1  0.4168020000000  0.4825230000000  0.5255980000000 1.0
C      1  0.5035330000000  0.4470070000000  0.4246460000000 1.0
C      1  0.5049920000000  0.5545880000000  0.4277690000000 1.0
C      1  0.3984820000000  0.5221590000000  0.4894700000000 1.0
C      1  0.3967050000000  0.4922810000000  0.4799180000000 1.0
C      1  0.4771120000000  0.4787410000000  0.6120650000000 1.0
C      1  0.4718280000000  0.5118140000000  0.6059200000000 1.0
C      1  0.4211220000000  0.4559940000000  0.4417740000000 1.0
C      1  0.4248800000000  0.5435050000000  0.4419540000000 1.0
C      1  0.4565070000000  0.5199490000000  0.5347960000000 1.0
C      1  0.4461600000000  0.4940250000000  0.5168760000000 1.0
C      1  0.3967360000000  0.4748400000000  0.5008120000000 1.0
C      1  0.3819710000000  0.5182860000000  0.5192640000000 1.0
C      1  0.5562040000000  0.5360070000000  0.5287460000000 1.0
C      1  0.5604780000000  0.4622410000000  0.5337410000000 1.0
C      1  0.5675880000000  0.5217850000000  0.5779720000000 1.0
C      1  0.5704200000000  0.4907080000000  0.5776370000000 1.0
C      1  0.5810480000000  0.4449530000000  0.5116490000000 1.0
C      1  0.5952120000000  0.5620790000000  0.4970500000000 1.0
C      1  0.5866930000000  0.4470020000000  0.5451650000000 1.0
C      1  0.5803640000000  0.5574890000000  0.5273030000000 1.0
C      1  0.4192130000000  0.5912130000000  0.5040530000000 1.0
C      1  0.4188360000000  0.4256450000000  0.4986210000000 1.0
C      1  0.4850620000000  0.4851070000000  0.5719190000000 1.0
C      1  0.4793900000000  0.5154910000000  0.5668890000000 1.0
C      1  0.5123470000000  0.4735960000000  0.4052680000000 1.0
C      1  0.5131520000000  0.5366080000000  0.4041060000000 1.0
C      1  0.4732410000000  0.5656700000000  0.5820950000000 1.0
C      1  0.4681810000000  0.4204990000000  0.5871350000000 1.0
C      1  0.4370730000000  0.5187940000000  0.4311210000000 1.0
C      1  0.4334810000000  0.4875550000000  0.4390660000000 1.0
C      1  0.5365230000000  0.4700450000000  0.4365320000000 1.0
C      1  0.5350460000000  0.5036920000000  0.4368900000000 1.0
C      1  0.4341120000000  0.5341720000000  0.5743290000000 1.0
C      1  0.4432150000000  0.4435670000000  0.5862740000000 1.0
C      1  0.5404370000000  0.5922700000000  0.5255300000000 1.0
C      1  0.5377790000000  0.4074990000000  0.5252480000000 1.0
C      1  0.4782450000000  0.4561500000000  0.3750630000000 1.0
C      1  0.4988250000000  0.5305810000000  0.3812390000000 1.0
C      1  0.5559440000000  0.5170680000000  0.4831830000000 1.0
C      1  0.5414800000000  0.4857650000000  0.4853520000000 1.0
C      1  0.4380250000000  0.5058340000000  0.4896500000000 1.0
C      1  0.4287780000000  0.5366230000000  0.4950250000000 1.0
C      1  0.3936460000000  0.5050480000000  0.5490780000000 1.0
C      1  0.4027480000000  0.4735240000000  0.5552230000000 1.0
C      1  0.4574770000000  0.5797500000000  0.5601930000000 1.0
C      1  0.4434470000000  0.4155290000000  0.5654180000000 1.0
C      1  0.4624150000000  0.5967380000000  0.5380740000000 1.0
C      1  0.4555130000000  0.4051780000000  0.5353250000000 1.0
C      1  0.4755970000000  0.5278070000000  0.4268740000000 1.0
C      1  0.4713600000000  0.4739510000000  0.4396680000000 1.0
C      1  0.5875010000000  0.4783750000000  0.5583500000000 1.0
C      1  0.5842140000000  0.5401600000000  0.5567270000000 1.0
C      1  0.5309020000000  0.5550500000000  0.5364570000000 1.0
C      1  0.5159370000000  0.4461570000000  0.5440160000000 1.0
C      1  0.5103450000000  0.4040320000000  0.4509450000000 1.0
C      1  0.5121020000000  0.5980960000000  0.4522240000000 1.0
C      1  0.4048960000000  0.5728600000000  0.5182790000000 1.0
C      1  0.3928050000000  0.4454880000000  0.5032150000000 1.0
C      1  0.5446770000000  0.5325410000000  0.5581130000000 1.0
C      1  0.5405020000000  0.4630440000000  0.5540290000000 1.0
C      1  0.4715110000000  0.4002840000000  0.4991060000000 1.0
C      1  0.4728140000000  0.6056490000000  0.5005100000000 1.0
C      1  0.5290880000000  0.3855690000000  0.4930770000000 1.0
C      1  0.5304840000000  0.6188840000000  0.4973960000000 1.0
C      1  0.5571580000000  0.5889220000000  0.5068760000000 1.0
C      1  0.5559300000000  0.4145340000000  0.5071050000000 1.0
C      1  0.4550360000000  0.4895850000000  0.4652830000000 1.0
C      1  0.4633490000000  0.5189370000000  0.4547770000000 1.0
C      1  0.5262690000000  0.5762830000000  0.4354950000000 1.0
C      1  0.5246840000000  0.4248060000000  0.4329840000000 1.0
C      1  0.4199260000000  0.5051950000000  0.5707380000000 1.0
C      1  0.4284660000000  0.4709150000000  0.5743050000000 1.0
C      1  0.4879640000000  0.5904420000000  0.4312470000000 1.0
C      1  0.4847210000000  0.4121590000000  0.4301250000000 1.0
C      1  0.4954180000000  0.5258220000000  0.5398240000000 1.0
C      1  0.4947220000000  0.4534010000000  0.5643420000000 1.0
C      1  0.4403930000000  0.5530020000000  0.5497050000000 1.0
C      1  0.4376850000000  0.4394380000000  0.5441370000000 1.0
C      1  0.5642290000000  0.4734480000000  0.4533240000000 1.0
C      1  0.5601590000000  0.5152740000000  0.4509570000000 1.0
C      1  0.4750470000000  0.4776110000000  0.4873340000000 1.0
C      1  0.4741180000000  0.5329750000000  0.4803550000000 1.0
C      1  0.4980290000000  0.4755220000000  0.3788810000000 1.0
C      1  0.4945910000000  0.5010740000000  0.3687950000000 1.0
C      1  0.5692120000000  0.4882100000000  0.4230750000000 1.0
C      1  0.5840030000000  0.5143350000000  0.4267310000000 1.0
C      1  0.4043260000000  0.4823770000000  0.4557800000000 1.0
C      1  0.4065380000000  0.5398130000000  0.4618030000000 1.0
C      1  0.5083830000000  0.4820420000000  0.6169790000000 1.0
C      1  0.5011540000000  0.5101210000000  0.6082610000000 1.0
C      1  0.4708600000000  0.4393020000000  0.5490180000000 1.0
C      1  0.4725180000000  0.5496680000000  0.5390550000000 1.0
C      1  0.4503380000000  0.5006930000000  0.5596400000000 1.0
C      1  0.4585590000000  0.4690930000000  0.5599080000000 1.0
C      1  0.4643420000000  0.4487370000000  0.4962560000000 1.0
C      1  0.4550690000000  0.5582270000000  0.4927480000000 1.0
C      1  0.5939490000000  0.5120040000000  0.4719740000000 1.0
C      1  0.5973730000000  0.4845290000000  0.4727700000000 1.0
C      1  0.5614440000000  0.4293770000000  0.5592680000000 1.0
C      1  0.5715340000000  0.5717070000000  0.5568910000000 1.0
C      1  0.5013350000000  0.5706710000000  0.5832740000000 1.0
C      1  0.5045790000000  0.4388770000000  0.5911990000000 1.0
C      1  0.5955830000000  0.4622750000000  0.4532810000000 1.0
C      1  0.5829360000000  0.5385190000000  0.4574320000000 1.0
C      1  0.5487710000000  0.5114410000000  0.5149930000000 1.0
C      1  0.5636040000000  0.4821550000000  0.5104220000000 1.0
C      1  0.5382510000000  0.4237910000000  0.5467800000000 1.0
C      1  0.5422980000000  0.5813930000000  0.5541880000000 1.0
C      1  0.5531400000000  0.4405150000000  0.4335960000000 1.0
C      1  0.5540030000000  0.5675340000000  0.4332730000000 1.0
C      1  0.5569980000000  0.5473560000000  0.4124130000000 1.0
C      1  0.5586480000000  0.4576280000000  0.4057360000000 1.0
C      1  0.5957720000000  0.5213590000000  0.5334200000000 1.0
C      1  0.6042260000000  0.4943740000000  0.5422760000000 1.0
C      1  0.4627650000000  0.3773470000000  0.5168490000000 1.0
C      1  0.4836270000000  0.6182670000000  0.5279870000000 1.0
C      1  0.5094570000000  0.4516480000000  0.5139120000000 1.0
C      1  0.5159170000000  0.5475980000000  0.5102920000000 1.0
C      1  0.4716580000000  0.5610040000000  0.4256480000000 1.0
C      1  0.4698430000000  0.4423770000000  0.4253430000000 1.0
C      1  0.5843570000000  0.5230300000000  0.5009280000000 1.0
C      1  0.5938360000000  0.4737200000000  0.5003250000000 1.0
C      1  0.6119850000000  0.5396760000000  0.5117010000000 1.0
C      1  0.6153950000000  0.4809320000000  0.5211560000000 1.0
C      1  0.4439200000000  0.5638610000000  0.4402450000000 1.0
C      1  0.4401850000000  0.4365190000000  0.4392290000000 1.0
C      1  0.4525950000000  0.4791960000000  0.4122180000000 1.0
C      1  0.4579320000000  0.5118070000000  0.4051700000000 1.0
C      1  0.5085790000000  0.4847210000000  0.4915020000000 1.0
END
