TITL C-3289329-2751-433 -0.00160862639074355 125000 -793.056458314386 0 0 144 (C1) n - 1
REM
REM in /nfs/bkarasulu/CARBON/AIRSS/Generating-Clusters/AIREBO/with-SteepDescent/Higher-Symm/SD-CG/HFTN-CG
REM
REM
REM
REM
REM
REM ./C.cell (b20cbc046b6831c77cfcea5457e17084)
REM
REM compiler GCC version 9.2.1 20190827 (Red Hat 9.2.1-1)
REM options -cpp -mtune=generic -march=x86-64 -g -O0 -fpre-include=/usr/include/finclude/math-vector-fortran.h
REM seed 203210733 444139661 407391876 -767404168 -1489184529 1847764968 -729196388 -498545943 1662313220 1479008628 154769473 365942698 -1615534968 902587072 -1699827841 -1477195136 -600909941 2011346337 -317786693 -1423245137 -479180627 -614563725 -1348197471 1085405494 -1857733311 817060436 -871452157 1303059651 -2104337025 1276975553 1710468816 4409051 -347272861
REM
CELL 1.54180   50.00000   50.00000   50.00000   90.00000   90.00000   90.00000
LATT -1
SFAC C  
C      1  0.5304130000000  0.5445050000000  0.4978420000000 1.0
C      1  0.5449600000000  0.5420520000000  0.5238620000000 1.0
C      1  0.4928760000000  0.5469400000000  0.5311780000000 1.0
C      1  0.4646470000000  0.5358710000000  0.5350630000000 1.0
C      1  0.4780680000000  0.5460500000000  0.4832990000000 1.0
C      1  0.4918480000000  0.5421560000000  0.4524550000000 1.0
C      1  0.5174200000000  0.5310340000000  0.4693460000000 1.0
C      1  0.4823350000000  0.5914890000000  0.5418160000000 1.0
C      1  0.4571480000000  0.5911610000000  0.5205450000000 1.0
C      1  0.4610340000000  0.5807200000000  0.4936460000000 1.0
C      1  0.4855170000000  0.5908640000000  0.4733840000000 1.0
C      1  0.5195650000000  0.5889660000000  0.4740570000000 1.0
C      1  0.5380030000000  0.5860880000000  0.5002810000000 1.0
C      1  0.5275310000000  0.5992820000000  0.5292300000000 1.0
C      1  0.4924810000000  0.5510190000000  0.5837000000000 1.0
C      1  0.4230540000000  0.5569430000000  0.5506560000000 1.0
C      1  0.4202160000000  0.5460890000000  0.4787740000000 1.0
C      1  0.4660210000000  0.5384850000000  0.4144650000000 1.0
C      1  0.5374200000000  0.5624800000000  0.4238040000000 1.0
C      1  0.5829070000000  0.5571860000000  0.4905740000000 1.0
C      1  0.5702910000000  0.5507370000000  0.5632920000000 1.0
C      1  0.5775220000000  0.4827150000000  0.4506730000000 1.0
C      1  0.5810160000000  0.4847990000000  0.5202710000000 1.0
C      1  0.5332780000000  0.4896900000000  0.5729410000000 1.0
C      1  0.4560800000000  0.4908500000000  0.5904040000000 1.0
C      1  0.4043350000000  0.4817970000000  0.5226150000000 1.0
C      1  0.4385920000000  0.4910380000000  0.4399670000000 1.0
C      1  0.5147280000000  0.4898120000000  0.4047330000000 1.0
C      1  0.4753060000000  0.4505530000000  0.4698220000000 1.0
C      1  0.5065300000000  0.4489160000000  0.4758280000000 1.0
C      1  0.5402850000000  0.4469820000000  0.4731800000000 1.0
C      1  0.5335750000000  0.4473710000000  0.5218480000000 1.0
C      1  0.5062690000000  0.4522480000000  0.5349800000000 1.0
C      1  0.4774520000000  0.4496750000000  0.5205240000000 1.0
C      1  0.4595290000000  0.4545140000000  0.4962360000000 1.0
C      1  0.4985690000000  0.4479080000000  0.4036880000000 1.0
C      1  0.5697850000000  0.4397500000000  0.4331360000000 1.0
C      1  0.5815190000000  0.4386150000000  0.5043160000000 1.0
C      1  0.5478610000000  0.4414090000000  0.5756450000000 1.0
C      1  0.4571120000000  0.4414930000000  0.5799720000000 1.0
C      1  0.4186240000000  0.4353640000000  0.5130200000000 1.0
C      1  0.4390050000000  0.4397660000000  0.4422470000000 1.0
C      1  0.4376580000000  0.4616120000000  0.4261500000000 1.0
C      1  0.5231680000000  0.4629390000000  0.4032340000000 1.0
C      1  0.5889520000000  0.4543910000000  0.4470500000000 1.0
C      1  0.5842350000000  0.4551990000000  0.5272740000000 1.0
C      1  0.5402470000000  0.4635560000000  0.5906900000000 1.0
C      1  0.4459330000000  0.4694780000000  0.5755550000000 1.0
C      1  0.3982720000000  0.4591790000000  0.5022640000000 1.0
C      1  0.4400620000000  0.5134140000000  0.5420150000000 1.0
C      1  0.4360830000000  0.5097380000000  0.4836300000000 1.0
C      1  0.4830250000000  0.5108870000000  0.4424200000000 1.0
C      1  0.5341410000000  0.5138910000000  0.4451940000000 1.0
C      1  0.5640740000000  0.5108060000000  0.4808590000000 1.0
C      1  0.5477430000000  0.5111650000000  0.5363640000000 1.0
C      1  0.4948360000000  0.5126290000000  0.5674690000000 1.0
C      1  0.4978540000000  0.3994100000000  0.4750600000000 1.0
C      1  0.5163080000000  0.4066500000000  0.4955790000000 1.0
C      1  0.5315550000000  0.3958350000000  0.5173710000000 1.0
C      1  0.5161990000000  0.3977670000000  0.5409750000000 1.0
C      1  0.4872770000000  0.3964030000000  0.5402570000000 1.0
C      1  0.4651090000000  0.3988000000000  0.5144710000000 1.0
C      1  0.4705090000000  0.4011650000000  0.4841230000000 1.0
C      1  0.5224480000000  0.5471730000000  0.5935210000000 1.0
C      1  0.4383250000000  0.5563990000000  0.5781540000000 1.0
C      1  0.4008740000000  0.5485180000000  0.4997720000000 1.0
C      1  0.4400900000000  0.5215660000000  0.4250080000000 1.0
C      1  0.5230100000000  0.5478370000000  0.4025610000000 1.0
C      1  0.5851310000000  0.5615200000000  0.4590250000000 1.0
C      1  0.5946220000000  0.5466670000000  0.5424160000000 1.0
C      1  0.5092290000000  0.5659110000000  0.4354380000000 1.0
C      1  0.5510940000000  0.5623640000000  0.4797170000000 1.0
C      1  0.5580110000000  0.5616190000000  0.5381300000000 1.0
C      1  0.5101760000000  0.5501300000000  0.5557870000000 1.0
C      1  0.4521230000000  0.5655590000000  0.5419170000000 1.0
C      1  0.4484760000000  0.5507520000000  0.4919590000000 1.0
C      1  0.4602850000000  0.5515120000000  0.4444580000000 1.0
C      1  0.5556990000000  0.4722790000000  0.4745710000000 1.0
C      1  0.5490270000000  0.4735290000000  0.5229160000000 1.0
C      1  0.5095150000000  0.4774940000000  0.5560310000000 1.0
C      1  0.4739240000000  0.4754820000000  0.5385740000000 1.0
C      1  0.4347180000000  0.4650590000000  0.5169740000000 1.0
C      1  0.4650720000000  0.4773460000000  0.4539490000000 1.0
C      1  0.5132780000000  0.4645410000000  0.4496530000000 1.0
C      1  0.4393390000000  0.6155930000000  0.5225680000000 1.0
C      1  0.4573140000000  0.5767410000000  0.4603790000000 1.0
C      1  0.5033640000000  0.5924260000000  0.4457640000000 1.0
C      1  0.5517600000000  0.5925840000000  0.4637280000000 1.0
C      1  0.5566110000000  0.5864230000000  0.5270730000000 1.0
C      1  0.5079090000000  0.5817990000000  0.5436180000000 1.0
C      1  0.4581440000000  0.5937130000000  0.5603600000000 1.0
C      1  0.4729640000000  0.4206360000000  0.5605490000000 1.0
C      1  0.4352110000000  0.4145590000000  0.5209220000000 1.0
C      1  0.4536620000000  0.4175530000000  0.4636610000000 1.0
C      1  0.5023390000000  0.4122980000000  0.4489650000000 1.0
C      1  0.5535960000000  0.4193930000000  0.4477330000000 1.0
C      1  0.5602600000000  0.4126790000000  0.5099950000000 1.0
C      1  0.5305570000000  0.4148030000000  0.5657180000000 1.0
C      1  0.5552250000000  0.4206970000000  0.4783740000000 1.0
C      1  0.5480640000000  0.4247810000000  0.5393410000000 1.0
C      1  0.5039180000000  0.4314720000000  0.5602010000000 1.0
C      1  0.4630270000000  0.4263700000000  0.5320910000000 1.0
C      1  0.4360700000000  0.4446830000000  0.4741850000000 1.0
C      1  0.4774010000000  0.4289270000000  0.4435440000000 1.0
C      1  0.5255410000000  0.4227910000000  0.4383170000000 1.0
C      1  0.4606610000000  0.5155380000000  0.5690130000000 1.0
C      1  0.4329120000000  0.5280460000000  0.5121280000000 1.0
C      1  0.4565550000000  0.5214730000000  0.4608700000000 1.0
C      1  0.5177940000000  0.5186910000000  0.4156920000000 1.0
C      1  0.5561650000000  0.5341470000000  0.4613870000000 1.0
C      1  0.5722320000000  0.5150470000000  0.5130630000000 1.0
C      1  0.5273040000000  0.5215500000000  0.5626480000000 1.0
C      1  0.5267800000000  0.4953880000000  0.5147380000000 1.0
C      1  0.5041770000000  0.5025670000000  0.5362460000000 1.0
C      1  0.4740910000000  0.5055600000000  0.5226940000000 1.0
C      1  0.4497890000000  0.4928090000000  0.5055760000000 1.0
C      1  0.4862470000000  0.4970880000000  0.4718750000000 1.0
C      1  0.5153380000000  0.4916590000000  0.4627590000000 1.0
C      1  0.5367030000000  0.4941100000000  0.4857540000000 1.0
C      1  0.5497730000000  0.5402610000000  0.5799750000000 1.0
C      1  0.4647230000000  0.5439600000000  0.5812260000000 1.0
C      1  0.4106040000000  0.5454050000000  0.5288090000000 1.0
C      1  0.4257380000000  0.5337100000000  0.4533420000000 1.0
C      1  0.4921570000000  0.5386630000000  0.4039880000000 1.0
C      1  0.5603280000000  0.5584370000000  0.4398250000000 1.0
C      1  0.5871930000000  0.5414260000000  0.5144610000000 1.0
C      1  0.5853180000000  0.4568380000000  0.4798400000000 1.0
C      1  0.5657820000000  0.4497790000000  0.5503600000000 1.0
C      1  0.4833660000000  0.4585460000000  0.5667020000000 1.0
C      1  0.4436840000000  0.4798590000000  0.5462460000000 1.0
C      1  0.4131990000000  0.4644800000000  0.4773600000000 1.0
C      1  0.4848600000000  0.4601380000000  0.4323050000000 1.0
C      1  0.5389190000000  0.4538710000000  0.4310180000000 1.0
C      1  0.5888940000000  0.4888830000000  0.4886720000000 1.0
C      1  0.5584530000000  0.4835800000000  0.5531680000000 1.0
C      1  0.4839130000000  0.5001100000000  0.5971550000000 1.0
C      1  0.4078110000000  0.5030440000000  0.5390290000000 1.0
C      1  0.4196340000000  0.4899440000000  0.4659740000000 1.0
C      1  0.4891810000000  0.4911420000000  0.4200160000000 1.0
C      1  0.5508410000000  0.4851700000000  0.4370840000000 1.0
C      1  0.5256770000000  0.6266130000000  0.5336480000000 1.0
C      1  0.4862440000000  0.5154900000000  0.4939780000000 1.0
C      1  0.5149520000000  0.4339410000000  0.5005510000000 1.0
C      1  0.5012760000000  0.5425650000000  0.5040250000000 1.0
END
