TITL C-3289335-9438-242 0.00330991924336384 125000 -510.494319416538 0 0 88 (C1) n - 1
REM
REM in /nfs/bkarasulu/CARBON/AIRSS/Generating-Clusters/AIREBO/with-SteepDescent/Higher-Symm/SD-CG/HFTN-CG
REM
REM
REM
REM
REM
REM ./C.cell (b20cbc046b6831c77cfcea5457e17084)
REM
REM compiler GCC version 9.2.1 20190827 (Red Hat 9.2.1-1)
REM options -cpp -mtune=generic -march=x86-64 -g -O0 -fpre-include=/usr/include/finclude/math-vector-fortran.h
REM seed -1957592765 1795780270 -1969613753 -382201889 186184399 -1950968168 175149354 -2024951142 777080068 -1551290948 175890820 -556873392 -1683542840 -1357221309 -10876454 -1341944317 -1305342253 531938717 2016949880 203614032 -916503672 1543959243 -1994311148 -1627336750 975591268 -834099048 752738423 -1822205900 1914194844 -1271233951 351451679 -1469683875 -683127562
REM
CELL 1.54180   50.00000   50.00000   50.00000   90.00000   90.00000   90.00000
LATT -1
SFAC C  
C      1  0.5204350000000  0.4984480000000  0.5439590000000 1.0
C      1  0.5155210000000  0.5344440000000  0.5110330000000 1.0
C      1  0.5072410000000  0.5303030000000  0.4620510000000 1.0
C      1  0.5157430000000  0.4811170000000  0.4698190000000 1.0
C      1  0.5174440000000  0.4574820000000  0.5131690000000 1.0
C      1  0.5045980000000  0.5208720000000  0.5368940000000 1.0
C      1  0.4942320000000  0.5455050000000  0.4881210000000 1.0
C      1  0.4984910000000  0.5010480000000  0.4516110000000 1.0
C      1  0.5052960000000  0.4614400000000  0.4887000000000 1.0
C      1  0.5106010000000  0.4755680000000  0.5321630000000 1.0
C      1  0.5002700000000  0.5688550000000  0.4554890000000 1.0
C      1  0.5068000000000  0.4732940000000  0.4220460000000 1.0
C      1  0.5049200000000  0.4213070000000  0.4962360000000 1.0
C      1  0.5020490000000  0.4743890000000  0.5744430000000 1.0
C      1  0.5090790000000  0.5667140000000  0.5494920000000 1.0
C      1  0.4795140000000  0.5392940000000  0.5277460000000 1.0
C      1  0.4625380000000  0.5578380000000  0.4876400000000 1.0
C      1  0.4708800000000  0.4850490000000  0.4402560000000 1.0
C      1  0.4782000000000  0.4492450000000  0.4862400000000 1.0
C      1  0.4813910000000  0.4757330000000  0.5393100000000 1.0
C      1  0.5276520000000  0.5215910000000  0.4202600000000 1.0
C      1  0.5291270000000  0.4383490000000  0.4567080000000 1.0
C      1  0.5251950000000  0.4391820000000  0.5478710000000 1.0
C      1  0.5191060000000  0.5274620000000  0.5842770000000 1.0
C      1  0.5295600000000  0.5807890000000  0.4952270000000 1.0
C      1  0.4732070000000  0.5552380000000  0.4561070000000 1.0
C      1  0.4808280000000  0.4578280000000  0.4294580000000 1.0
C      1  0.4787800000000  0.4279100000000  0.5114080000000 1.0
C      1  0.4768080000000  0.4900590000000  0.5669150000000 1.0
C      1  0.4885980000000  0.5688090000000  0.5260640000000 1.0
C      1  0.5758200000000  0.4954560000000  0.4734940000000 1.0
C      1  0.5755380000000  0.4731440000000  0.4931390000000 1.0
C      1  0.5748900000000  0.4828540000000  0.5207460000000 1.0
C      1  0.5681970000000  0.5127400000000  0.5202100000000 1.0
C      1  0.5732400000000  0.5225910000000  0.4886090000000 1.0
C      1  0.5018950000000  0.4483450000000  0.5599300000000 1.0
C      1  0.5043540000000  0.5450740000000  0.5686080000000 1.0
C      1  0.5049530000000  0.5833090000000  0.4816130000000 1.0
C      1  0.5079770000000  0.5025460000000  0.4131720000000 1.0
C      1  0.5059270000000  0.4271960000000  0.4680820000000 1.0
C      1  0.4307720000000  0.4842800000000  0.4493000000000 1.0
C      1  0.4166990000000  0.4559270000000  0.5079890000000 1.0
C      1  0.4249200000000  0.4955410000000  0.5563880000000 1.0
C      1  0.4182940000000  0.5370380000000  0.5262180000000 1.0
C      1  0.4164110000000  0.5259820000000  0.4671970000000 1.0
C      1  0.4265160000000  0.5265410000000  0.5505020000000 1.0
C      1  0.4127400000000  0.5191290000000  0.4983770000000 1.0
C      1  0.4355150000000  0.5126250000000  0.4527130000000 1.0
C      1  0.4232240000000  0.4699540000000  0.4778630000000 1.0
C      1  0.4225930000000  0.4775100000000  0.5335950000000 1.0
C      1  0.5557000000000  0.4431200000000  0.5405530000000 1.0
C      1  0.5569220000000  0.5125760000000  0.5665150000000 1.0
C      1  0.5517770000000  0.5563760000000  0.4956310000000 1.0
C      1  0.5532470000000  0.5217460000000  0.4365900000000 1.0
C      1  0.5555010000000  0.4347850000000  0.4665470000000 1.0
C      1  0.4788390000000  0.5289730000000  0.5582880000000 1.0
C      1  0.4822100000000  0.5809450000000  0.5009090000000 1.0
C      1  0.4789980000000  0.5128640000000  0.4252420000000 1.0
C      1  0.4761400000000  0.4372250000000  0.4550390000000 1.0
C      1  0.4739050000000  0.4435240000000  0.5411430000000 1.0
C      1  0.5305170000000  0.5622110000000  0.5237010000000 1.0
C      1  0.5233970000000  0.5476830000000  0.4421950000000 1.0
C      1  0.5268710000000  0.4663980000000  0.4438290000000 1.0
C      1  0.5285790000000  0.4277480000000  0.5160070000000 1.0
C      1  0.5284290000000  0.4960770000000  0.5750640000000 1.0
C      1  0.4401910000000  0.5390280000000  0.5010740000000 1.0
C      1  0.4653860000000  0.5229630000000  0.4547360000000 1.0
C      1  0.4493900000000  0.4577830000000  0.4598760000000 1.0
C      1  0.4467950000000  0.4560560000000  0.5248910000000 1.0
C      1  0.4537990000000  0.5115750000000  0.5644630000000 1.0
C      1  0.4772590000000  0.5100710000000  0.4840360000000 1.0
C      1  0.4639260000000  0.4863050000000  0.4713330000000 1.0
C      1  0.4576920000000  0.4687350000000  0.4973240000000 1.0
C      1  0.4664200000000  0.4904600000000  0.5179620000000 1.0
C      1  0.4641400000000  0.5216410000000  0.5091890000000 1.0
C      1  0.5686150000000  0.5502200000000  0.4735980000000 1.0
C      1  0.5652640000000  0.4979110000000  0.4472390000000 1.0
C      1  0.5681000000000  0.4453310000000  0.4897500000000 1.0
C      1  0.5674440000000  0.4684740000000  0.5442260000000 1.0
C      1  0.5649500000000  0.5279410000000  0.5455320000000 1.0
C      1  0.5554500000000  0.4743540000000  0.4357840000000 1.0
C      1  0.5608080000000  0.4309420000000  0.5130720000000 1.0
C      1  0.5604350000000  0.4816850000000  0.5678410000000 1.0
C      1  0.5572210000000  0.5537960000000  0.5421010000000 1.0
C      1  0.5566830000000  0.5486790000000  0.4489570000000 1.0
C      1  0.4138710000000  0.4899730000000  0.5030640000000 1.0
C      1  0.5430200000000  0.5176320000000  0.5001780000000 1.0
C      1  0.5109620000000  0.5092790000000  0.4885120000000 1.0
END
