TITL C-3289329-2751-149 0.000167637770248156 125000 -269.60591805423 0 0 48 (C1) n - 1
REM
REM in /nfs/bkarasulu/CARBON/AIRSS/Generating-Clusters/AIREBO/with-SteepDescent/Higher-Symm/SD-CG/HFTN-CG
REM
REM
REM
REM
REM
REM ./C.cell (b20cbc046b6831c77cfcea5457e17084)
REM
REM compiler GCC version 9.2.1 20190827 (Red Hat 9.2.1-1)
REM options -cpp -mtune=generic -march=x86-64 -g -O0 -fpre-include=/usr/include/finclude/math-vector-fortran.h
REM seed -256366284 2112352046 -761724287 18114424 -574501419 -516754463 -1506140257 -1260628159 582366302 -1019633676 -1602284996 351583439 -287602277 1036072423 -300149544 812149870 456922344 930259869 87368731 -524404307 1887310435 106637142 177359572 -1416128542 2108656210 1766617926 2014046076 33991337 -1064736757 -1522717073 -378100581 -1165585947 268012093
REM
CELL 1.54180   50.00000   50.00000   50.00000   90.00000   90.00000   90.00000
LATT -1
SFAC C  
C      1  0.5135220000000  0.4725000000000  0.5612030000000 1.0
C      1  0.4845940000000  0.4762060000000  0.5502830000000 1.0
C      1  0.4669920000000  0.4306950000000  0.5276630000000 1.0
C      1  0.5419330000000  0.4602640000000  0.5227550000000 1.0
C      1  0.4719770000000  0.5661000000000  0.4679630000000 1.0
C      1  0.5333300000000  0.5664620000000  0.4661460000000 1.0
C      1  0.5308630000000  0.5403860000000  0.4556260000000 1.0
C      1  0.4738020000000  0.5398710000000  0.4575210000000 1.0
C      1  0.5228630000000  0.4965810000000  0.5731940000000 1.0
C      1  0.4732280000000  0.4977030000000  0.5710550000000 1.0
C      1  0.5111730000000  0.5545890000000  0.5255880000000 1.0
C      1  0.4857570000000  0.5535820000000  0.5238600000000 1.0
C      1  0.5139480000000  0.4411150000000  0.4733820000000 1.0
C      1  0.4851740000000  0.4373290000000  0.4756180000000 1.0
C      1  0.4900700000000  0.5200660000000  0.4756610000000 1.0
C      1  0.5160270000000  0.5198920000000  0.4746760000000 1.0
C      1  0.4889950000000  0.5393120000000  0.4303050000000 1.0
C      1  0.5141480000000  0.5396940000000  0.4294120000000 1.0
C      1  0.4256210000000  0.5347610000000  0.5059720000000 1.0
C      1  0.5721090000000  0.5268070000000  0.5069270000000 1.0
C      1  0.5720280000000  0.5196800000000  0.4802100000000 1.0
C      1  0.4267390000000  0.5245050000000  0.4797650000000 1.0
C      1  0.5369290000000  0.4997150000000  0.4896210000000 1.0
C      1  0.4719840000000  0.5021000000000  0.4922940000000 1.0
C      1  0.5128930000000  0.5207280000000  0.5619340000000 1.0
C      1  0.4843670000000  0.5217190000000  0.5623420000000 1.0
C      1  0.5291840000000  0.4489520000000  0.4506500000000 1.0
C      1  0.4669850000000  0.4490780000000  0.4569520000000 1.0
C      1  0.5555140000000  0.4946260000000  0.4635650000000 1.0
C      1  0.4462590000000  0.4973690000000  0.4722050000000 1.0
C      1  0.4677760000000  0.4494390000000  0.5482040000000 1.0
C      1  0.5314290000000  0.4550680000000  0.5484190000000 1.0
C      1  0.4830680000000  0.4980010000000  0.5241960000000 1.0
C      1  0.5150830000000  0.5060760000000  0.5148880000000 1.0
C      1  0.5487220000000  0.4682220000000  0.4501410000000 1.0
C      1  0.4490770000000  0.4696430000000  0.4592330000000 1.0
C      1  0.5254620000000  0.5284950000000  0.5348980000000 1.0
C      1  0.4713090000000  0.5281710000000  0.5346960000000 1.0
C      1  0.4453000000000  0.4947500000000  0.5120480000000 1.0
C      1  0.5497040000000  0.4864520000000  0.5178500000000 1.0
C      1  0.5528980000000  0.5152060000000  0.5239680000000 1.0
C      1  0.4425250000000  0.5207530000000  0.5240950000000 1.0
C      1  0.5268310000000  0.4507090000000  0.4976890000000 1.0
C      1  0.4756220000000  0.4413020000000  0.5027750000000 1.0
C      1  0.5575030000000  0.5262020000000  0.4529490000000 1.0
C      1  0.4468050000000  0.5264620000000  0.4554840000000 1.0
C      1  0.5095680000000  0.4751490000000  0.5049610000000 1.0
C      1  0.4823060000000  0.4675130000000  0.5091570000000 1.0
END
