TITL C-3289323-3850-310 -0.00117448077006747 125000 -200.935176717243 0 0 38 (Ci) n - 1
REM
REM in /nfs/bkarasulu/CARBON/AIRSS/Generating-Clusters/AIREBO/with-SteepDescent/Higher-Symm/SD-CG/HFTN-CG
REM
REM
REM
REM
REM
REM ./C.cell (b20cbc046b6831c77cfcea5457e17084)
REM
REM compiler GCC version 9.2.1 20190827 (Red Hat 9.2.1-1)
REM options -cpp -mtune=generic -march=x86-64 -g -O0 -fpre-include=/usr/include/finclude/math-vector-fortran.h
REM seed 638355356 1156371065 -1802333685 742184192 503785525 777881209 -1037626395 -1007701226 -1695403210 1603446063 2043354378 -346877088 1878535091 1924699649 462032830 -58789191 -1416649191 -2015851534 669853693 1087437490 771081467 1745462534 -262151950 678714283 521023501 266360012 550504717 -1060683843 446375089 -8486746 -522294027 -1945199698 -1539352104
REM
CELL 1.54180   50.00000   50.00000   50.00000   90.00000   90.00000   90.00000
LATT -1
SFAC C  
C      1  0.4517390000000  0.5442180000000  0.5447170000000 1.0
C      1  0.4490850000000  0.4532300000000  0.4562130000000 1.0
C      1  0.5532210000000  0.5467700000000  0.5437870000000 1.0
C      1  0.5505670000000  0.4557820000000  0.4552830000000 1.0
C      1  0.4483180000000  0.4733390000000  0.5040950000000 1.0
C      1  0.4506820000000  0.5243250000000  0.4957960000000 1.0
C      1  0.5516240000000  0.4756750000000  0.5042040000000 1.0
C      1  0.5539880000000  0.5266610000000  0.4959050000000 1.0
C      1  0.4783960000000  0.5699570000000  0.5118580000000 1.0
C      1  0.4776030000000  0.4289110000000  0.4884890000000 1.0
C      1  0.5247030000000  0.5710890000000  0.5115110000000 1.0
C      1  0.5239100000000  0.4300430000000  0.4881420000000 1.0
C      1  0.4774270000000  0.4350250000000  0.5166470000000 1.0
C      1  0.4782110000000  0.5637260000000  0.4837670000000 1.0
C      1  0.5240950000000  0.4362740000000  0.5162330000000 1.0
C      1  0.5248790000000  0.5649750000000  0.4833530000000 1.0
C      1  0.5275400000000  0.4571200000000  0.4716590000000 1.0
C      1  0.5299460000000  0.5442830000000  0.5278890000000 1.0
C      1  0.4723600000000  0.4557170000000  0.4721110000000 1.0
C      1  0.4747660000000  0.5428800000000  0.5283410000000 1.0
C      1  0.5281500000000  0.5336620000000  0.4872100000000 1.0
C      1  0.5259630000000  0.4676880000000  0.5126020000000 1.0
C      1  0.4763430000000  0.5323120000000  0.4873980000000 1.0
C      1  0.4741560000000  0.4663380000000  0.5127900000000 1.0
C      1  0.4841390000000  0.4845410000000  0.5342910000000 1.0
C      1  0.4872630000000  0.5142700000000  0.4660500000000 1.0
C      1  0.5150430000000  0.4857300000000  0.5339500000000 1.0
C      1  0.5181670000000  0.5154590000000  0.4657090000000 1.0
C      1  0.4878570000000  0.5145000000000  0.5373460000000 1.0
C      1  0.4842190000000  0.4841420000000  0.4622430000000 1.0
C      1  0.5180870000000  0.5158580000000  0.5377570000000 1.0
C      1  0.5144490000000  0.4855000000000  0.4626540000000 1.0
C      1  0.5011060000000  0.4273630000000  0.5301130000000 1.0
C      1  0.5012650000000  0.5847360000000  0.5198140000000 1.0
C      1  0.5012000000000  0.5726370000000  0.4698870000000 1.0
C      1  0.5010410000000  0.4152640000000  0.4801860000000 1.0
C      1  0.4999890000000  0.4618830000000  0.4910580000000 1.0
C      1  0.5023170000000  0.5381170000000  0.5089420000000 1.0
END
