TITL C-3289329-2751-670 -0.00156395149929995 125000 -734.253101734738 0 0 134 (C1) n - 1
REM
REM in /nfs/bkarasulu/CARBON/AIRSS/Generating-Clusters/AIREBO/with-SteepDescent/Higher-Symm/SD-CG/HFTN-CG
REM
REM
REM
REM
REM
REM ./C.cell (b20cbc046b6831c77cfcea5457e17084)
REM
REM compiler GCC version 9.2.1 20190827 (Red Hat 9.2.1-1)
REM options -cpp -mtune=generic -march=x86-64 -g -O0 -fpre-include=/usr/include/finclude/math-vector-fortran.h
REM seed -899195066 -1265979367 -2080862689 2032843658 237744137 515893919 469909957 -1783966320 -1995066450 -1720182963 -1281880422 -1349946690 -1204832022 448386691 -435974057 99825751 1245123529 1687905743 1226044098 -1585343693 -603501434 -1836536868 1002701576 -455654673 1071458076 -158677297 -2071895938 2093831299 -160346428 1948686413 -1692740817 1899967940 -1029531527
REM
CELL 1.54180   50.00000   50.00000   50.00000   90.00000   90.00000   90.00000
LATT -1
SFAC C  
C      1  0.4687850000000  0.4898820000000  0.5861810000000 1.0
C      1  0.5140240000000  0.5087950000000  0.5815260000000 1.0
C      1  0.5318820000000  0.4908650000000  0.4189620000000 1.0
C      1  0.4825140000000  0.5038540000000  0.4167160000000 1.0
C      1  0.4965140000000  0.4868390000000  0.5860740000000 1.0
C      1  0.5055470000000  0.5352580000000  0.5821110000000 1.0
C      1  0.4904860000000  0.5328320000000  0.4241770000000 1.0
C      1  0.5062230000000  0.4852560000000  0.4084300000000 1.0
C      1  0.4839180000000  0.4682300000000  0.5474150000000 1.0
C      1  0.5190770000000  0.5476480000000  0.5281450000000 1.0
C      1  0.5110780000000  0.4581270000000  0.4689430000000 1.0
C      1  0.4832070000000  0.5398760000000  0.4642970000000 1.0
C      1  0.4590850000000  0.4900730000000  0.5394350000000 1.0
C      1  0.5344440000000  0.5180260000000  0.5351880000000 1.0
C      1  0.4573810000000  0.5209820000000  0.4760400000000 1.0
C      1  0.5370450000000  0.4801420000000  0.4687880000000 1.0
C      1  0.5661490000000  0.4499700000000  0.4244790000000 1.0
C      1  0.4442580000000  0.5279430000000  0.4475220000000 1.0
C      1  0.4302710000000  0.4624890000000  0.5516440000000 1.0
C      1  0.5731730000000  0.5505220000000  0.5624680000000 1.0
C      1  0.4535520000000  0.5555790000000  0.4421790000000 1.0
C      1  0.5514560000000  0.4293350000000  0.4398510000000 1.0
C      1  0.4584260000000  0.4474700000000  0.5555180000000 1.0
C      1  0.5472690000000  0.5682510000000  0.5575780000000 1.0
C      1  0.4509370000000  0.4100070000000  0.4688120000000 1.0
C      1  0.5440890000000  0.5839610000000  0.4594370000000 1.0
C      1  0.5364680000000  0.4113830000000  0.5340600000000 1.0
C      1  0.4558530000000  0.5923360000000  0.5272130000000 1.0
C      1  0.4096760000000  0.4427640000000  0.4664240000000 1.0
C      1  0.5921050000000  0.5490260000000  0.4688430000000 1.0
C      1  0.4145580000000  0.5396500000000  0.5332840000000 1.0
C      1  0.5942000000000  0.4580750000000  0.5333530000000 1.0
C      1  0.4930900000000  0.4670930000000  0.4414820000000 1.0
C      1  0.5109800000000  0.5304230000000  0.4470210000000 1.0
C      1  0.5039750000000  0.4594790000000  0.5734620000000 1.0
C      1  0.4767220000000  0.5390320000000  0.5749660000000 1.0
C      1  0.4675220000000  0.4873390000000  0.4418210000000 1.0
C      1  0.5314800000000  0.5045620000000  0.4457910000000 1.0
C      1  0.4587180000000  0.5117190000000  0.5656720000000 1.0
C      1  0.5395920000000  0.5058010000000  0.5649500000000 1.0
C      1  0.5640650000000  0.5689950000000  0.5282360000000 1.0
C      1  0.4465660000000  0.4365430000000  0.5275040000000 1.0
C      1  0.4570320000000  0.5729420000000  0.4687390000000 1.0
C      1  0.5543420000000  0.4347540000000  0.4679820000000 1.0
C      1  0.5866280000000  0.5582890000000  0.5161970000000 1.0
C      1  0.4256910000000  0.4615490000000  0.5177550000000 1.0
C      1  0.5709900000000  0.4566630000000  0.4713750000000 1.0
C      1  0.4320700000000  0.5619590000000  0.4841050000000 1.0
C      1  0.4770180000000  0.4169590000000  0.4862200000000 1.0
C      1  0.5292320000000  0.5856650000000  0.4894410000000 1.0
C      1  0.5229290000000  0.4078020000000  0.5045310000000 1.0
C      1  0.4837750000000  0.5848850000000  0.5121740000000 1.0
C      1  0.4094430000000  0.4654680000000  0.4915490000000 1.0
C      1  0.5802690000000  0.5321110000000  0.4954430000000 1.0
C      1  0.4173710000000  0.5152300000000  0.5108290000000 1.0
C      1  0.5912700000000  0.4820510000000  0.5097580000000 1.0
C      1  0.4918100000000  0.4029580000000  0.5416510000000 1.0
C      1  0.5281830000000  0.5904500000000  0.5399600000000 1.0
C      1  0.5275890000000  0.4178100000000  0.4307850000000 1.0
C      1  0.4702830000000  0.5988390000000  0.4511330000000 1.0
C      1  0.4009870000000  0.4793600000000  0.5479080000000 1.0
C      1  0.5926270000000  0.5301910000000  0.5452450000000 1.0
C      1  0.4185310000000  0.5096200000000  0.4476710000000 1.0
C      1  0.5817230000000  0.4651910000000  0.4468110000000 1.0
C      1  0.5427370000000  0.4304940000000  0.5513270000000 1.0
C      1  0.4471760000000  0.5734080000000  0.5452470000000 1.0
C      1  0.4535960000000  0.4210480000000  0.4368290000000 1.0
C      1  0.5514030000000  0.5676050000000  0.4358920000000 1.0
C      1  0.4273110000000  0.5542320000000  0.5558180000000 1.0
C      1  0.5676990000000  0.4528760000000  0.5498410000000 1.0
C      1  0.4234800000000  0.4346630000000  0.4448400000000 1.0
C      1  0.5729970000000  0.5448840000000  0.4443590000000 1.0
C      1  0.4933470000000  0.4703230000000  0.4934150000000 1.0
C      1  0.5036000000000  0.5279830000000  0.4861750000000 1.0
C      1  0.5056600000000  0.4728300000000  0.5216720000000 1.0
C      1  0.4981200000000  0.5303430000000  0.5146120000000 1.0
C      1  0.4668140000000  0.4895950000000  0.4844120000000 1.0
C      1  0.5320460000000  0.5093620000000  0.4854540000000 1.0
C      1  0.4697210000000  0.5186370000000  0.5248530000000 1.0
C      1  0.5320530000000  0.4934170000000  0.5154840000000 1.0
C      1  0.4487670000000  0.5060680000000  0.4221290000000 1.0
C      1  0.5578730000000  0.4800600000000  0.4188890000000 1.0
C      1  0.5653700000000  0.5234180000000  0.5733450000000 1.0
C      1  0.4423060000000  0.4780430000000  0.5795530000000 1.0
C      1  0.4977650000000  0.4543430000000  0.4103100000000 1.0
C      1  0.4779240000000  0.5575860000000  0.4276480000000 1.0
C      1  0.5221430000000  0.5573740000000  0.5778110000000 1.0
C      1  0.4821670000000  0.4367490000000  0.5718980000000 1.0
C      1  0.5632580000000  0.4811760000000  0.4904950000000 1.0
C      1  0.4375230000000  0.5359110000000  0.4951880000000 1.0
C      1  0.4577090000000  0.4709390000000  0.5113500000000 1.0
C      1  0.5478630000000  0.5315380000000  0.5058170000000 1.0
C      1  0.4833400000000  0.5639180000000  0.4883520000000 1.0
C      1  0.5298620000000  0.4349590000000  0.4852770000000 1.0
C      1  0.4713510000000  0.4398200000000  0.5081970000000 1.0
C      1  0.5395300000000  0.5636880000000  0.5100310000000 1.0
C      1  0.5522540000000  0.5253370000000  0.4629160000000 1.0
C      1  0.4520250000000  0.4709670000000  0.4626990000000 1.0
C      1  0.4478600000000  0.5387560000000  0.5253570000000 1.0
C      1  0.5442470000000  0.4653180000000  0.5287750000000 1.0
C      1  0.5354300000000  0.5525460000000  0.4691410000000 1.0
C      1  0.4583530000000  0.4428740000000  0.4624720000000 1.0
C      1  0.5235310000000  0.4452150000000  0.5171670000000 1.0
C      1  0.4704690000000  0.5517280000000  0.5472190000000 1.0
C      1  0.5772020000000  0.4967130000000  0.4414180000000 1.0
C      1  0.4269210000000  0.4816270000000  0.4312450000000 1.0
C      1  0.4201800000000  0.4965100000000  0.5691340000000 1.0
C      1  0.5773610000000  0.5027890000000  0.5524950000000 1.0
C      1  0.4911140000000  0.5795830000000  0.4422850000000 1.0
C      1  0.5031890000000  0.4295670000000  0.4322090000000 1.0
C      1  0.4878540000000  0.4107720000000  0.5675860000000 1.0
C      1  0.5097340000000  0.5802850000000  0.5628420000000 1.0
C      1  0.4976660000000  0.4249270000000  0.5195360000000 1.0
C      1  0.4956140000000  0.5666760000000  0.5375700000000 1.0
C      1  0.4906070000000  0.4322620000000  0.4606610000000 1.0
C      1  0.5072920000000  0.5715520000000  0.4673610000000 1.0
C      1  0.4264410000000  0.4989070000000  0.5358010000000 1.0
C      1  0.5679990000000  0.4881280000000  0.5315860000000 1.0
C      1  0.4220690000000  0.4806780000000  0.4649520000000 1.0
C      1  0.5771610000000  0.5056470000000  0.4743050000000 1.0
C      1  0.4371470000000  0.5361250000000  0.5756280000000 1.0
C      1  0.5501860000000  0.4768460000000  0.5664800000000 1.0
C      1  0.5616740000000  0.5198400000000  0.4245150000000 1.0
C      1  0.4363870000000  0.4545800000000  0.4252460000000 1.0
C      1  0.5325390000000  0.4528110000000  0.5687680000000 1.0
C      1  0.4536060000000  0.5475380000000  0.5984090000000 1.0
C      1  0.5370260000000  0.5402690000000  0.4287560000000 1.0
C      1  0.4680840000000  0.4492400000000  0.4243730000000 1.0
C      1  0.3995990000000  0.4967490000000  0.4935270000000 1.0
C      1  0.5951990000000  0.5142640000000  0.5185890000000 1.0
C      1  0.4957860000000  0.3937640000000  0.4947640000000 1.0
C      1  0.5145180000000  0.5942840000000  0.5156980000000 1.0
C      1  0.5005040000000  0.4972840000000  0.4770490000000 1.0
C      1  0.4965030000000  0.5025760000000  0.5314620000000 1.0
END
