TITL C-3289323-3850-584 -0.00266174935146145 125000 -348.797912515347 0 0 64 (C1) n - 1
REM
REM in /nfs/bkarasulu/CARBON/AIRSS/Generating-Clusters/AIREBO/with-SteepDescent/Higher-Symm/SD-CG/HFTN-CG
REM
REM
REM
REM
REM
REM ./C.cell (b20cbc046b6831c77cfcea5457e17084)
REM
REM compiler GCC version 9.2.1 20190827 (Red Hat 9.2.1-1)
REM options -cpp -mtune=generic -march=x86-64 -g -O0 -fpre-include=/usr/include/finclude/math-vector-fortran.h
REM seed -1536432297 -405208219 210426649 425558797 -273627471 1506181549 -139778582 -852502025 -1363026526 1827845582 1356192487 1812327584 789364642 1806124944 1913107156 -354665942 -588449725 -676937581 1329435454 2073790263 -445912245 1072405730 -483090254 -561363528 -1904231840 273299491 399066524 -1356137073 1043335329 -492808783 -1646317269 306510974 -244310072
REM
CELL 1.54180   50.00000   50.00000   50.00000   90.00000   90.00000   90.00000
LATT -1
SFAC C  
C      1  0.5368040000000  0.4712920000000  0.4510370000000 1.0
C      1  0.4678340000000  0.5356040000000  0.5511010000000 1.0
C      1  0.4666280000000  0.5699760000000  0.4858030000000 1.0
C      1  0.5268930000000  0.4484200000000  0.5075020000000 1.0
C      1  0.5468330000000  0.5096130000000  0.4513560000000 1.0
C      1  0.4561610000000  0.4932980000000  0.5430440000000 1.0
C      1  0.4957150000000  0.5455540000000  0.5496600000000 1.0
C      1  0.5121400000000  0.4524890000000  0.4471570000000 1.0
C      1  0.5254920000000  0.4939640000000  0.4306210000000 1.0
C      1  0.4682340000000  0.5108040000000  0.5661840000000 1.0
C      1  0.5486650000000  0.5483330000000  0.4851430000000 1.0
C      1  0.4532610000000  0.4487570000000  0.5183230000000 1.0
C      1  0.4672190000000  0.4407720000000  0.5405640000000 1.0
C      1  0.5287100000000  0.5525280000000  0.4628030000000 1.0
C      1  0.4359740000000  0.5029510000000  0.4679410000000 1.0
C      1  0.5651820000000  0.4927380000000  0.5271080000000 1.0
C      1  0.4964550000000  0.5481470000000  0.4529540000000 1.0
C      1  0.4977440000000  0.4526990000000  0.5478750000000 1.0
C      1  0.4579990000000  0.4972960000000  0.4473920000000 1.0
C      1  0.5632010000000  0.4949840000000  0.5590040000000 1.0
C      1  0.4303420000000  0.5337550000000  0.5005290000000 1.0
C      1  0.5711680000000  0.4756090000000  0.4919660000000 1.0
C      1  0.5457470000000  0.5159650000000  0.5658190000000 1.0
C      1  0.4525150000000  0.4661320000000  0.4380700000000 1.0
C      1  0.5646620000000  0.5128650000000  0.5048370000000 1.0
C      1  0.4403570000000  0.4882250000000  0.4903950000000 1.0
C      1  0.4698130000000  0.5376530000000  0.4959120000000 1.0
C      1  0.5363940000000  0.4768190000000  0.5184250000000 1.0
C      1  0.5043980000000  0.5001300000000  0.4809170000000 1.0
C      1  0.4913870000000  0.5042020000000  0.5120300000000 1.0
C      1  0.5091080000000  0.5546870000000  0.5001680000000 1.0
C      1  0.4957020000000  0.4427470000000  0.4951360000000 1.0
C      1  0.4942860000000  0.5644780000000  0.4792020000000 1.0
C      1  0.5050210000000  0.4328780000000  0.5249830000000 1.0
C      1  0.4857350000000  0.4689110000000  0.4426130000000 1.0
C      1  0.5145610000000  0.5290000000000  0.5697080000000 1.0
C      1  0.4742580000000  0.5132170000000  0.4726910000000 1.0
C      1  0.5185370000000  0.4910800000000  0.5379150000000 1.0
C      1  0.5275740000000  0.4591200000000  0.5601720000000 1.0
C      1  0.4714290000000  0.5416920000000  0.4381900000000 1.0
C      1  0.4933190000000  0.5346710000000  0.5202980000000 1.0
C      1  0.5073510000000  0.4663730000000  0.4776140000000 1.0
C      1  0.4749740000000  0.5152070000000  0.4278850000000 1.0
C      1  0.5094820000000  0.4840540000000  0.5692020000000 1.0
C      1  0.5160640000000  0.5217340000000  0.4573830000000 1.0
C      1  0.4857440000000  0.4821940000000  0.5364590000000 1.0
C      1  0.4969000000000  0.4947330000000  0.4290280000000 1.0
C      1  0.4937470000000  0.5061050000000  0.5777230000000 1.0
C      1  0.4708530000000  0.4830030000000  0.4977860000000 1.0
C      1  0.5348530000000  0.5114420000000  0.4909600000000 1.0
C      1  0.4656120000000  0.4437670000000  0.4934490000000 1.0
C      1  0.5327810000000  0.5357270000000  0.5124620000000 1.0
C      1  0.5716870000000  0.4597400000000  0.5220360000000 1.0
C      1  0.4328470000000  0.5305220000000  0.4724510000000 1.0
C      1  0.4389790000000  0.4752250000000  0.5206450000000 1.0
C      1  0.5681580000000  0.5245960000000  0.4731720000000 1.0
C      1  0.4322970000000  0.5084320000000  0.5236630000000 1.0
C      1  0.5713490000000  0.4911170000000  0.4659490000000 1.0
C      1  0.4652700000000  0.4648820000000  0.4695640000000 1.0
C      1  0.5269920000000  0.5233290000000  0.5385720000000 1.0
C      1  0.4536730000000  0.5336280000000  0.5252620000000 1.0
C      1  0.5381570000000  0.4789920000000  0.4845330000000 1.0
C      1  0.5545060000000  0.4638890000000  0.5516370000000 1.0
C      1  0.4442710000000  0.5472580000000  0.4500180000000 1.0
END
