TITL C-3289328-6581-180 0.00163720932458643 125000 -584.664173962801 0 0 106 (C1) n - 1
REM
REM in /nfs/bkarasulu/CARBON/AIRSS/Generating-Clusters/AIREBO/with-SteepDescent/Higher-Symm/SD-CG/HFTN-CG
REM
REM
REM
REM
REM
REM ./C.cell (b20cbc046b6831c77cfcea5457e17084)
REM
REM compiler GCC version 9.2.1 20190827 (Red Hat 9.2.1-1)
REM options -cpp -mtune=generic -march=x86-64 -g -O0 -fpre-include=/usr/include/finclude/math-vector-fortran.h
REM seed -347201274 -816330918 -2092343851 665593354 1022710006 -2093816899 1818444557 -1135618959 -410440377 -1060763905 1164512235 1704896640 961784484 -1862654242 508629417 351136060 -413145458 -1589943619 1027558918 -1299943952 -1925565631 1080425439 -1658664290 -431601609 -1880087991 1346153655 768430096 2035273425 1528774623 664840028 987833106 -1698264631 1702569605
REM
CELL 1.54180   50.00000   50.00000   50.00000   90.00000   90.00000   90.00000
LATT -1
SFAC C  
C      1  0.5039550000000  0.4111980000000  0.4627830000000 1.0
C      1  0.5089950000000  0.5036900000000  0.4090720000000 1.0
C      1  0.5128630000000  0.5825410000000  0.4793340000000 1.0
C      1  0.5100850000000  0.5471790000000  0.5672290000000 1.0
C      1  0.5107120000000  0.4476800000000  0.5625710000000 1.0
C      1  0.5097900000000  0.4189500000000  0.4953730000000 1.0
C      1  0.4858430000000  0.4804710000000  0.4187210000000 1.0
C      1  0.4907040000000  0.5752480000000  0.4595660000000 1.0
C      1  0.4817740000000  0.5640160000000  0.5587970000000 1.0
C      1  0.4894030000000  0.4660990000000  0.5671870000000 1.0
C      1  0.5003360000000  0.5232750000000  0.4762850000000 1.0
C      1  0.4996180000000  0.5227510000000  0.5180930000000 1.0
C      1  0.5087440000000  0.4914990000000  0.5247680000000 1.0
C      1  0.5030850000000  0.4716460000000  0.4977980000000 1.0
C      1  0.4896830000000  0.4933520000000  0.4782750000000 1.0
C      1  0.5584890000000  0.4763490000000  0.4173580000000 1.0
C      1  0.5689760000000  0.5677280000000  0.4846060000000 1.0
C      1  0.5638890000000  0.5431800000000  0.5544110000000 1.0
C      1  0.5694390000000  0.4651080000000  0.5664030000000 1.0
C      1  0.5783150000000  0.4241830000000  0.5014690000000 1.0
C      1  0.5393740000000  0.4610280000000  0.5642420000000 1.0
C      1  0.5513920000000  0.4207960000000  0.5035110000000 1.0
C      1  0.5351520000000  0.4902750000000  0.4161230000000 1.0
C      1  0.5431870000000  0.5632080000000  0.4628620000000 1.0
C      1  0.5335010000000  0.5538110000000  0.5484740000000 1.0
C      1  0.4430590000000  0.5694370000000  0.4840530000000 1.0
C      1  0.4293590000000  0.5408050000000  0.5413260000000 1.0
C      1  0.4497160000000  0.4626570000000  0.5512300000000 1.0
C      1  0.4511160000000  0.4371310000000  0.4772600000000 1.0
C      1  0.4534870000000  0.5049160000000  0.4447430000000 1.0
C      1  0.5314040000000  0.5587590000000  0.4944530000000 1.0
C      1  0.5345430000000  0.5230200000000  0.5368060000000 1.0
C      1  0.5348980000000  0.4567870000000  0.5320730000000 1.0
C      1  0.5351270000000  0.4386120000000  0.4840110000000 1.0
C      1  0.5210560000000  0.4971410000000  0.4462570000000 1.0
C      1  0.4034940000000  0.4940960000000  0.5202770000000 1.0
C      1  0.4123160000000  0.4683830000000  0.5056460000000 1.0
C      1  0.4179660000000  0.4810580000000  0.4766220000000 1.0
C      1  0.4088750000000  0.5138410000000  0.4751270000000 1.0
C      1  0.4047790000000  0.5175580000000  0.5056000000000 1.0
C      1  0.5621390000000  0.5214360000000  0.5730660000000 1.0
C      1  0.5527010000000  0.4071790000000  0.5499350000000 1.0
C      1  0.5606910000000  0.4496700000000  0.4349880000000 1.0
C      1  0.5654480000000  0.5517960000000  0.4385440000000 1.0
C      1  0.5658330000000  0.5683290000000  0.5122880000000 1.0
C      1  0.5681480000000  0.4880410000000  0.4706380000000 1.0
C      1  0.5643750000000  0.5189670000000  0.4761170000000 1.0
C      1  0.5634050000000  0.5213280000000  0.5092350000000 1.0
C      1  0.5670710000000  0.4935020000000  0.5222320000000 1.0
C      1  0.5700770000000  0.4736970000000  0.4984150000000 1.0
C      1  0.4567980000000  0.5137730000000  0.5310060000000 1.0
C      1  0.4598450000000  0.4851380000000  0.5198750000000 1.0
C      1  0.4612990000000  0.4856750000000  0.4890580000000 1.0
C      1  0.4567440000000  0.5151630000000  0.4836100000000 1.0
C      1  0.4697680000000  0.5333890000000  0.5057640000000 1.0
C      1  0.5388660000000  0.4229130000000  0.5311980000000 1.0
C      1  0.5358910000000  0.4443180000000  0.4534260000000 1.0
C      1  0.5330010000000  0.5416610000000  0.4386020000000 1.0
C      1  0.5359090000000  0.5738990000000  0.5245620000000 1.0
C      1  0.5402480000000  0.5042510000000  0.5712500000000 1.0
C      1  0.4485030000000  0.5581370000000  0.5084150000000 1.0
C      1  0.4348780000000  0.5118640000000  0.5554810000000 1.0
C      1  0.4394790000000  0.4593410000000  0.5192200000000 1.0
C      1  0.4468050000000  0.4670830000000  0.4693570000000 1.0
C      1  0.4358170000000  0.5255000000000  0.4638670000000 1.0
C      1  0.4769120000000  0.4413420000000  0.4648510000000 1.0
C      1  0.4840440000000  0.5340360000000  0.4358510000000 1.0
C      1  0.4789810000000  0.5811140000000  0.4970190000000 1.0
C      1  0.4822480000000  0.5294320000000  0.5779540000000 1.0
C      1  0.4722610000000  0.4444220000000  0.5393150000000 1.0
C      1  0.5088170000000  0.5300210000000  0.4213430000000 1.0
C      1  0.5088810000000  0.5859150000000  0.5130950000000 1.0
C      1  0.5135450000000  0.5151050000000  0.5780730000000 1.0
C      1  0.5085200000000  0.4284160000000  0.5409950000000 1.0
C      1  0.5099500000000  0.4319810000000  0.4445600000000 1.0
C      1  0.4602050000000  0.4726050000000  0.4407870000000 1.0
C      1  0.4454810000000  0.5541090000000  0.4600030000000 1.0
C      1  0.4524770000000  0.5615310000000  0.5411640000000 1.0
C      1  0.4564030000000  0.4879540000000  0.5614640000000 1.0
C      1  0.4534580000000  0.4344230000000  0.5057460000000 1.0
C      1  0.4844620000000  0.4255430000000  0.5170820000000 1.0
C      1  0.4853300000000  0.4504670000000  0.4348750000000 1.0
C      1  0.4712590000000  0.5554700000000  0.4476720000000 1.0
C      1  0.4814170000000  0.5715820000000  0.5271130000000 1.0
C      1  0.4853420000000  0.4973650000000  0.5729790000000 1.0
C      1  0.4959170000000  0.4457000000000  0.4845940000000 1.0
C      1  0.4873260000000  0.5015510000000  0.4453600000000 1.0
C      1  0.4883050000000  0.5513000000000  0.4835840000000 1.0
C      1  0.4805850000000  0.5333200000000  0.5442120000000 1.0
C      1  0.4841830000000  0.4754950000000  0.5355530000000 1.0
C      1  0.3909370000000  0.4466560000000  0.5055510000000 1.0
C      1  0.4248970000000  0.4911630000000  0.4465050000000 1.0
C      1  0.3843510000000  0.5195090000000  0.4581520000000 1.0
C      1  0.4103440000000  0.5401270000000  0.5215900000000 1.0
C      1  0.4080230000000  0.4968430000000  0.5471020000000 1.0
C      1  0.5887720000000  0.4495670000000  0.5018620000000 1.0
C      1  0.5778300000000  0.4753750000000  0.4432680000000 1.0
C      1  0.5780340000000  0.5446320000000  0.4662470000000 1.0
C      1  0.5734650000000  0.5443330000000  0.5265370000000 1.0
C      1  0.5796290000000  0.4821540000000  0.5501760000000 1.0
C      1  0.5407290000000  0.4758100000000  0.4574970000000 1.0
C      1  0.5323770000000  0.5219200000000  0.4649800000000 1.0
C      1  0.5303570000000  0.5278350000000  0.5044450000000 1.0
C      1  0.5387620000000  0.4894880000000  0.5406440000000 1.0
C      1  0.5367260000000  0.4673890000000  0.5004190000000 1.0
C      1  0.5310580000000  0.4981950000000  0.4892900000000 1.0
END
