TITL C-3289326-3776-510 0.00107367815163812 125000 -621.754277000055 0 0 114 (C1) n - 1
REM
REM in /nfs/bkarasulu/CARBON/AIRSS/Generating-Clusters/AIREBO/with-SteepDescent/Higher-Symm/SD-CG/HFTN-CG
REM
REM
REM
REM
REM
REM ./C.cell (b20cbc046b6831c77cfcea5457e17084)
REM
REM compiler GCC version 9.2.1 20190827 (Red Hat 9.2.1-1)
REM options -cpp -mtune=generic -march=x86-64 -g -O0 -fpre-include=/usr/include/finclude/math-vector-fortran.h
REM seed -2118066793 -1258401903 -1868690474 946404507 1329925823 -444824966 -962904724 -820331744 523226855 -430617576 1432618454 984923223 703089842 192518531 -1295429309 -793247141 -714006519 -208613736 -1893587552 1647374791 -1924542861 1878133301 596365347 255098335 1564054056 2059619265 375891271 -1663956013 547352081 -1114771330 -3646482 691526170 127550193
REM
CELL 1.54180   50.00000   50.00000   50.00000   90.00000   90.00000   90.00000
LATT -1
SFAC C  
C      1  0.4593270000000  0.5691640000000  0.4485260000000 1.0
C      1  0.5321940000000  0.5617760000000  0.5472760000000 1.0
C      1  0.4544930000000  0.5553600000000  0.5540320000000 1.0
C      1  0.5416440000000  0.5690520000000  0.4529770000000 1.0
C      1  0.5852890000000  0.4771870000000  0.4627290000000 1.0
C      1  0.4174570000000  0.4828360000000  0.5376740000000 1.0
C      1  0.5988180000000  0.4914450000000  0.5325120000000 1.0
C      1  0.4085640000000  0.4775490000000  0.4519770000000 1.0
C      1  0.5143860000000  0.4883390000000  0.6027630000000 1.0
C      1  0.4828080000000  0.4946760000000  0.3930330000000 1.0
C      1  0.5056450000000  0.4794460000000  0.3999880000000 1.0
C      1  0.4897920000000  0.4749320000000  0.5955130000000 1.0
C      1  0.5417310000000  0.5144050000000  0.4600940000000 1.0
C      1  0.4640010000000  0.5166790000000  0.5569550000000 1.0
C      1  0.5447010000000  0.5247020000000  0.5406050000000 1.0
C      1  0.4615160000000  0.5191660000000  0.4551180000000 1.0
C      1  0.4681410000000  0.5188170000000  0.5294610000000 1.0
C      1  0.5115340000000  0.5179340000000  0.4880260000000 1.0
C      1  0.4817990000000  0.5151400000000  0.4805590000000 1.0
C      1  0.5252670000000  0.5114020000000  0.5181610000000 1.0
C      1  0.5403790000000  0.5550300000000  0.5149570000000 1.0
C      1  0.4473180000000  0.5616030000000  0.4731260000000 1.0
C      1  0.5520140000000  0.5584970000000  0.4836000000000 1.0
C      1  0.4444290000000  0.5594220000000  0.5261820000000 1.0
C      1  0.5174760000000  0.5183170000000  0.4370740000000 1.0
C      1  0.4883650000000  0.5079340000000  0.5733310000000 1.0
C      1  0.5192730000000  0.5142850000000  0.5606670000000 1.0
C      1  0.4883010000000  0.5046160000000  0.4400210000000 1.0
C      1  0.5776430000000  0.4532380000000  0.4758950000000 1.0
C      1  0.4059110000000  0.4599870000000  0.5150070000000 1.0
C      1  0.5845750000000  0.4541530000000  0.5087440000000 1.0
C      1  0.4171310000000  0.4662610000000  0.4834210000000 1.0
C      1  0.5539030000000  0.5410240000000  0.4452910000000 1.0
C      1  0.4411540000000  0.5329660000000  0.5682430000000 1.0
C      1  0.5610220000000  0.5505410000000  0.5555040000000 1.0
C      1  0.4650690000000  0.5421080000000  0.4335790000000 1.0
C      1  0.5750320000000  0.4967780000000  0.5446970000000 1.0
C      1  0.4414110000000  0.4849790000000  0.4573930000000 1.0
C      1  0.5749130000000  0.4881530000000  0.4406020000000 1.0
C      1  0.4483220000000  0.4805590000000  0.5474720000000 1.0
C      1  0.4199090000000  0.5521640000000  0.5104870000000 1.0
C      1  0.5817940000000  0.5505100000000  0.4842760000000 1.0
C      1  0.4208160000000  0.5551510000000  0.4815640000000 1.0
C      1  0.5882670000000  0.5421780000000  0.5150190000000 1.0
C      1  0.4542120000000  0.4989340000000  0.5125410000000 1.0
C      1  0.5337520000000  0.4926550000000  0.4839180000000 1.0
C      1  0.4635350000000  0.4865630000000  0.4831860000000 1.0
C      1  0.5460360000000  0.4869010000000  0.5296900000000 1.0
C      1  0.5761170000000  0.5215150000000  0.5647610000000 1.0
C      1  0.4212150000000  0.5074090000000  0.4417380000000 1.0
C      1  0.5771260000000  0.5208660000000  0.4377510000000 1.0
C      1  0.4211340000000  0.5068930000000  0.5599970000000 1.0
C      1  0.5953740000000  0.5366090000000  0.5410740000000 1.0
C      1  0.4101580000000  0.5334670000000  0.4606090000000 1.0
C      1  0.5913400000000  0.5432140000000  0.4590830000000 1.0
C      1  0.4187360000000  0.5304180000000  0.5355520000000 1.0
C      1  0.4429200000000  0.5122080000000  0.4194390000000 1.0
C      1  0.5594380000000  0.5121940000000  0.5900490000000 1.0
C      1  0.4392570000000  0.4980370000000  0.5873680000000 1.0
C      1  0.5615300000000  0.5010490000000  0.4147790000000 1.0
C      1  0.4769320000000  0.5842680000000  0.5188310000000 1.0
C      1  0.5113930000000  0.5713220000000  0.4883100000000 1.0
C      1  0.4814900000000  0.5733510000000  0.4893470000000 1.0
C      1  0.5073580000000  0.5757130000000  0.5192230000000 1.0
C      1  0.4636460000000  0.4686180000000  0.5203630000000 1.0
C      1  0.5486170000000  0.4433560000000  0.4712000000000 1.0
C      1  0.4491700000000  0.4557320000000  0.4833830000000 1.0
C      1  0.5606760000000  0.4561280000000  0.5304180000000 1.0
C      1  0.5597200000000  0.5299690000000  0.5104230000000 1.0
C      1  0.4357370000000  0.5185210000000  0.4772960000000 1.0
C      1  0.5611730000000  0.5105780000000  0.4878680000000 1.0
C      1  0.4270680000000  0.5129250000000  0.5098370000000 1.0
C      1  0.4894320000000  0.5616950000000  0.4365830000000 1.0
C      1  0.5108260000000  0.5472220000000  0.5604600000000 1.0
C      1  0.4845470000000  0.5534070000000  0.5543950000000 1.0
C      1  0.5148900000000  0.5492680000000  0.4448610000000 1.0
C      1  0.4086140000000  0.4980320000000  0.4782230000000 1.0
C      1  0.5975930000000  0.4810500000000  0.5067950000000 1.0
C      1  0.4014780000000  0.4924080000000  0.5092300000000 1.0
C      1  0.5872900000000  0.4948570000000  0.4849420000000 1.0
C      1  0.4687350000000  0.5061750000000  0.4147700000000 1.0
C      1  0.5331890000000  0.5048090000000  0.5886030000000 1.0
C      1  0.4650380000000  0.4923050000000  0.5925130000000 1.0
C      1  0.5309950000000  0.4961010000000  0.4157840000000 1.0
C      1  0.5235640000000  0.4683770000000  0.4329830000000 1.0
C      1  0.4787000000000  0.4794980000000  0.5573810000000 1.0
C      1  0.5115150000000  0.4831830000000  0.5492750000000 1.0
C      1  0.4936810000000  0.4754340000000  0.4465730000000 1.0
C      1  0.4817610000000  0.4302040000000  0.5193870000000 1.0
C      1  0.5162020000000  0.4294480000000  0.4886410000000 1.0
C      1  0.4712500000000  0.4308130000000  0.4903000000000 1.0
C      1  0.5131170000000  0.4187850000000  0.5170210000000 1.0
C      1  0.5248610000000  0.4541480000000  0.5609330000000 1.0
C      1  0.4845910000000  0.4427530000000  0.4441440000000 1.0
C      1  0.5008310000000  0.4517000000000  0.4156380000000 1.0
C      1  0.4938840000000  0.4531420000000  0.5725730000000 1.0
C      1  0.5217010000000  0.5446580000000  0.4768350000000 1.0
C      1  0.4769730000000  0.5499830000000  0.5214200000000 1.0
C      1  0.5099690000000  0.5418050000000  0.5200780000000 1.0
C      1  0.4683470000000  0.5435160000000  0.4891690000000 1.0
C      1  0.4543110000000  0.4379790000000  0.4548240000000 1.0
C      1  0.5516290000000  0.4487590000000  0.5568030000000 1.0
C      1  0.4410470000000  0.4459640000000  0.5279740000000 1.0
C      1  0.5469880000000  0.4106540000000  0.4616400000000 1.0
C      1  0.4332030000000  0.4260140000000  0.4790310000000 1.0
C      1  0.5700090000000  0.4256070000000  0.5123870000000 1.0
C      1  0.4244990000000  0.4346470000000  0.5066790000000 1.0
C      1  0.5554620000000  0.4176490000000  0.4910120000000 1.0
C      1  0.5171770000000  0.4725190000000  0.5189010000000 1.0
C      1  0.4912830000000  0.4688690000000  0.4768070000000 1.0
C      1  0.5268720000000  0.4617510000000  0.4885160000000 1.0
C      1  0.4904810000000  0.4609870000000  0.5078780000000 1.0
C      1  0.5025650000000  0.4369850000000  0.5438910000000 1.0
C      1  0.4925040000000  0.4281130000000  0.4719830000000 1.0
END
