TITL C-3289327-5623-565 0.000251048038820896 125000 -948.799174571033 0 0 173 (C1) n - 1
REM
REM in /nfs/bkarasulu/CARBON/AIRSS/Generating-Clusters/AIREBO/with-SteepDescent/Higher-Symm/SD-CG/HFTN-CG
REM
REM
REM
REM
REM
REM ./C.cell (b20cbc046b6831c77cfcea5457e17084)
REM
REM compiler GCC version 9.2.1 20190827 (Red Hat 9.2.1-1)
REM options -cpp -mtune=generic -march=x86-64 -g -O0 -fpre-include=/usr/include/finclude/math-vector-fortran.h
REM seed -420665209 -627740319 -948323423 -148284065 -323840184 1154482268 1353129850 275913419 -1356578578 -1325907466 776983029 -1583971502 1906353126 1634319357 -68229363 -382404597 -475166343 1704582937 -434515838 882978943 -757653168 1543357869 420983332 -915739995 107787429 -616853071 602293968 890223478 1582205557 -1080847444 -1336142143 426473002 -809049498
REM
CELL 1.54180   50.00000   50.00000   50.00000   90.00000   90.00000   90.00000
LATT -1
SFAC C  
C      1  0.3973250000000  0.4731130000000  0.5028150000000 1.0
C      1  0.4568550000000  0.4072200000000  0.5022020000000 1.0
C      1  0.5488770000000  0.4080730000000  0.5028550000000 1.0
C      1  0.6010300000000  0.4810870000000  0.4975260000000 1.0
C      1  0.5733830000000  0.5619930000000  0.5058910000000 1.0
C      1  0.4924230000000  0.6032220000000  0.5024420000000 1.0
C      1  0.4151120000000  0.5562360000000  0.5039490000000 1.0
C      1  0.5136610000000  0.4722610000000  0.6006610000000 1.0
C      1  0.5397100000000  0.4912590000000  0.6020610000000 1.0
C      1  0.5365300000000  0.5193810000000  0.6041060000000 1.0
C      1  0.5108400000000  0.5364870000000  0.5929660000000 1.0
C      1  0.4804220000000  0.5305930000000  0.6016780000000 1.0
C      1  0.4654360000000  0.5030520000000  0.5995920000000 1.0
C      1  0.4812990000000  0.4767980000000  0.6041960000000 1.0
C      1  0.4170020000000  0.4969360000000  0.5755660000000 1.0
C      1  0.4552890000000  0.4412760000000  0.5776730000000 1.0
C      1  0.5169290000000  0.4270020000000  0.5732710000000 1.0
C      1  0.5730020000000  0.4613620000000  0.5745800000000 1.0
C      1  0.5758250000000  0.5302170000000  0.5754940000000 1.0
C      1  0.5226540000000  0.5823060000000  0.5721160000000 1.0
C      1  0.4423940000000  0.5683650000000  0.5737810000000 1.0
C      1  0.4992140000000  0.5655070000000  0.5838020000000 1.0
C      1  0.4611570000000  0.5528430000000  0.5937170000000 1.0
C      1  0.4320900000000  0.4964210000000  0.5987920000000 1.0
C      1  0.4663800000000  0.4542490000000  0.5994030000000 1.0
C      1  0.5204290000000  0.4400310000000  0.5969710000000 1.0
C      1  0.5669320000000  0.4844560000000  0.5917340000000 1.0
C      1  0.5616500000000  0.5325690000000  0.5999720000000 1.0
C      1  0.4968310000000  0.5615740000000  0.4243110000000 1.0
C      1  0.4449180000000  0.5423510000000  0.4160410000000 1.0
C      1  0.4387270000000  0.4874370000000  0.4213960000000 1.0
C      1  0.4766480000000  0.4415860000000  0.4238760000000 1.0
C      1  0.5359100000000  0.4464550000000  0.4276980000000 1.0
C      1  0.5692280000000  0.4916020000000  0.4252040000000 1.0
C      1  0.5529770000000  0.5452430000000  0.4219170000000 1.0
C      1  0.5059800000000  0.4676810000000  0.3899590000000 1.0
C      1  0.5315830000000  0.4815890000000  0.3897280000000 1.0
C      1  0.5362080000000  0.5099700000000  0.3887570000000 1.0
C      1  0.5160990000000  0.5308900000000  0.3889240000000 1.0
C      1  0.4872480000000  0.5301780000000  0.3862510000000 1.0
C      1  0.4707460000000  0.5070170000000  0.3869200000000 1.0
C      1  0.4785790000000  0.4791680000000  0.3879800000000 1.0
C      1  0.5603110000000  0.5170170000000  0.4044250000000 1.0
C      1  0.5241280000000  0.5534700000000  0.4057110000000 1.0
C      1  0.4741060000000  0.5520840000000  0.4010650000000 1.0
C      1  0.4466590000000  0.5121260000000  0.4021250000000 1.0
C      1  0.4601550000000  0.4655580000000  0.4063580000000 1.0
C      1  0.5068060000000  0.4462890000000  0.4100850000000 1.0
C      1  0.5513010000000  0.4688800000000  0.4072790000000 1.0
C      1  0.4040560000000  0.5197270000000  0.5314440000000 1.0
C      1  0.4234380000000  0.4454790000000  0.5285130000000 1.0
C      1  0.4943930000000  0.4142580000000  0.5325240000000 1.0
C      1  0.5719010000000  0.4400790000000  0.5271430000000 1.0
C      1  0.5925300000000  0.5133150000000  0.5353780000000 1.0
C      1  0.5414710000000  0.5861680000000  0.5328240000000 1.0
C      1  0.4605960000000  0.5824300000000  0.5318380000000 1.0
C      1  0.4645830000000  0.5610460000000  0.5059560000000 1.0
C      1  0.4347190000000  0.5053880000000  0.5105530000000 1.0
C      1  0.4447860000000  0.4549690000000  0.5038060000000 1.0
C      1  0.5005590000000  0.4318950000000  0.5041130000000 1.0
C      1  0.5525200000000  0.4624280000000  0.5003100000000 1.0
C      1  0.5612650000000  0.5099850000000  0.5097800000000 1.0
C      1  0.5202750000000  0.5587660000000  0.5133790000000 1.0
C      1  0.4733600000000  0.4737960000000  0.5319490000000 1.0
C      1  0.5041700000000  0.4650020000000  0.5376640000000 1.0
C      1  0.5320380000000  0.4792500000000  0.5333510000000 1.0
C      1  0.5410020000000  0.5120470000000  0.5339000000000 1.0
C      1  0.5223230000000  0.5379970000000  0.5350380000000 1.0
C      1  0.4747440000000  0.5249080000000  0.5378650000000 1.0
C      1  0.4549730000000  0.5001480000000  0.5349260000000 1.0
C      1  0.4599280000000  0.5265830000000  0.4651590000000 1.0
C      1  0.4513960000000  0.4942480000000  0.4696810000000 1.0
C      1  0.4851020000000  0.4596400000000  0.4702470000000 1.0
C      1  0.5179660000000  0.4547540000000  0.4624630000000 1.0
C      1  0.5368210000000  0.4998430000000  0.4693770000000 1.0
C      1  0.5263160000000  0.5302540000000  0.4690150000000 1.0
C      1  0.4924030000000  0.5288510000000  0.4669050000000 1.0
C      1  0.3976730000000  0.5383490000000  0.4566500000000 1.0
C      1  0.4087630000000  0.4529740000000  0.4535660000000 1.0
C      1  0.4825550000000  0.3941330000000  0.4563350000000 1.0
C      1  0.5810090000000  0.4310240000000  0.4532930000000 1.0
C      1  0.6056540000000  0.5123780000000  0.4538090000000 1.0
C      1  0.5605350000000  0.5865280000000  0.4585950000000 1.0
C      1  0.4580810000000  0.5882850000000  0.4559020000000 1.0
C      1  0.5301000000000  0.5223240000000  0.4298080000000 1.0
C      1  0.5034680000000  0.5305780000000  0.4362860000000 1.0
C      1  0.4695120000000  0.5307240000000  0.4344410000000 1.0
C      1  0.4661470000000  0.4968610000000  0.4391570000000 1.0
C      1  0.4676970000000  0.4634700000000  0.4454430000000 1.0
C      1  0.5193220000000  0.4747390000000  0.4366920000000 1.0
C      1  0.5396610000000  0.4959410000000  0.4391900000000 1.0
C      1  0.5883570000000  0.4337960000000  0.4820830000000 1.0
C      1  0.5980630000000  0.5270750000000  0.4800590000000 1.0
C      1  0.5443810000000  0.5951740000000  0.4845860000000 1.0
C      1  0.4475610000000  0.5883260000000  0.4821870000000 1.0
C      1  0.3930040000000  0.5204900000000  0.4815000000000 1.0
C      1  0.4176680000000  0.4358700000000  0.4777520000000 1.0
C      1  0.5003550000000  0.3942710000000  0.4827260000000 1.0
C      1  0.4215550000000  0.5156000000000  0.4540790000000 1.0
C      1  0.4406750000000  0.4572390000000  0.4536340000000 1.0
C      1  0.5006920000000  0.4201560000000  0.4522660000000 1.0
C      1  0.5587310000000  0.4565860000000  0.4507920000000 1.0
C      1  0.5731810000000  0.5128540000000  0.4524920000000 1.0
C      1  0.5340950000000  0.5682210000000  0.4574330000000 1.0
C      1  0.4736750000000  0.5613770000000  0.4492080000000 1.0
C      1  0.4301240000000  0.5596800000000  0.4763010000000 1.0
C      1  0.4005440000000  0.4898650000000  0.4760000000000 1.0
C      1  0.4475040000000  0.4218380000000  0.4744800000000 1.0
C      1  0.5295760000000  0.4110310000000  0.4780570000000 1.0
C      1  0.5841530000000  0.4660480000000  0.4721030000000 1.0
C      1  0.5725580000000  0.5493410000000  0.4766900000000 1.0
C      1  0.5109750000000  0.5926990000000  0.4785970000000 1.0
C      1  0.4543660000000  0.5084480000000  0.5678920000000 1.0
C      1  0.4677200000000  0.4770760000000  0.5648930000000 1.0
C      1  0.4995130000000  0.4650790000000  0.5705720000000 1.0
C      1  0.5328810000000  0.4691700000000  0.5647640000000 1.0
C      1  0.5442690000000  0.5012490000000  0.5636860000000 1.0
C      1  0.5322510000000  0.5329280000000  0.5667920000000 1.0
C      1  0.4686950000000  0.5396830000000  0.5632850000000 1.0
C      1  0.5010620000000  0.5909200000000  0.5530320000000 1.0
C      1  0.4279700000000  0.5534540000000  0.5538860000000 1.0
C      1  0.4159700000000  0.4770800000000  0.5541680000000 1.0
C      1  0.4608450000000  0.4240520000000  0.5517280000000 1.0
C      1  0.5357410000000  0.4228210000000  0.5526180000000 1.0
C      1  0.5873310000000  0.4701890000000  0.5480630000000 1.0
C      1  0.5691980000000  0.5474790000000  0.5543010000000 1.0
C      1  0.4263890000000  0.5507930000000  0.4433360000000 1.0
C      1  0.4146420000000  0.4856360000000  0.4453170000000 1.0
C      1  0.4626440000000  0.4181380000000  0.4441800000000 1.0
C      1  0.5292990000000  0.4205720000000  0.4452770000000 1.0
C      1  0.5956620000000  0.4816160000000  0.4441390000000 1.0
C      1  0.5698990000000  0.5585090000000  0.4440450000000 1.0
C      1  0.5104640000000  0.5821420000000  0.4460950000000 1.0
C      1  0.4657950000000  0.5038390000000  0.4968440000000 1.0
C      1  0.4719880000000  0.4726460000000  0.4988040000000 1.0
C      1  0.5029240000000  0.4611710000000  0.5070480000000 1.0
C      1  0.5350440000000  0.4893270000000  0.5017050000000 1.0
C      1  0.5198010000000  0.5196520000000  0.4996370000000 1.0
C      1  0.4988540000000  0.5445040000000  0.4941530000000 1.0
C      1  0.4727160000000  0.5310760000000  0.5086850000000 1.0
C      1  0.5737040000000  0.5380000000000  0.5245420000000 1.0
C      1  0.5101440000000  0.5885440000000  0.5240530000000 1.0
C      1  0.4360490000000  0.5619000000000  0.5249050000000 1.0
C      1  0.4095060000000  0.4888620000000  0.5262820000000 1.0
C      1  0.4500110000000  0.4278470000000  0.5238950000000 1.0
C      1  0.5253930000000  0.4164260000000  0.5218730000000 1.0
C      1  0.5813670000000  0.4674660000000  0.5165040000000 1.0
C      1  0.4738640000000  0.5736130000000  0.5620210000000 1.0
C      1  0.4249190000000  0.5225790000000  0.5583100000000 1.0
C      1  0.4410690000000  0.4586990000000  0.5544280000000 1.0
C      1  0.4903730000000  0.4340810000000  0.5598960000000 1.0
C      1  0.5547790000000  0.4461740000000  0.5523890000000 1.0
C      1  0.5782080000000  0.4992830000000  0.5631120000000 1.0
C      1  0.5433100000000  0.5637090000000  0.5573530000000 1.0
C      1  0.4633180000000  0.6005610000000  0.5037890000000 1.0
C      1  0.4007100000000  0.5326850000000  0.5066210000000 1.0
C      1  0.4061250000000  0.4456730000000  0.5017000000000 1.0
C      1  0.4832900000000  0.3961530000000  0.5059720000000 1.0
C      1  0.5718150000000  0.4237940000000  0.5042310000000 1.0
C      1  0.6006860000000  0.5094560000000  0.5037060000000 1.0
C      1  0.5561240000000  0.5840000000000  0.5088450000000 1.0
C      1  0.5400270000000  0.5534180000000  0.4860140000000 1.0
C      1  0.4848020000000  0.5709550000000  0.4799230000000 1.0
C      1  0.4331690000000  0.5266940000000  0.4840470000000 1.0
C      1  0.4302040000000  0.4737500000000  0.4801350000000 1.0
C      1  0.4806480000000  0.4285680000000  0.4783010000000 1.0
C      1  0.5429600000000  0.4423580000000  0.4771070000000 1.0
C      1  0.5680920000000  0.4949870000000  0.4799600000000 1.0
C      1  0.4959920000000  0.4896440000000  0.4350960000000 1.0
C      1  0.5026930000000  0.4948960000000  0.5113640000000 1.0
C      1  0.5047850000000  0.4972820000000  0.5610230000000 1.0
C      1  0.5073330000000  0.4851940000000  0.4732530000000 1.0
C      1  0.5013520000000  0.5126250000000  0.5377190000000 1.0
END
