TITL C-3289323-3850-627 0.000651704029834847 125000 -156.926931307459 0 0 29 (C1) n - 1
REM
REM in /nfs/bkarasulu/CARBON/AIRSS/Generating-Clusters/AIREBO/with-SteepDescent/Higher-Symm/SD-CG/HFTN-CG
REM
REM
REM
REM
REM
REM ./C.cell (b20cbc046b6831c77cfcea5457e17084)
REM
REM compiler GCC version 9.2.1 20190827 (Red Hat 9.2.1-1)
REM options -cpp -mtune=generic -march=x86-64 -g -O0 -fpre-include=/usr/include/finclude/math-vector-fortran.h
REM seed 1468651537 -1833485759 1386120682 1906054274 -786544102 -58955925 -18412296 -1757684322 284152334 317761015 -1786851655 1686137214 640188566 -1830095919 669803605 -797859011 1398163972 -1323985762 -1164867156 2146828357 755352355 -325035646 1305789650 1950566805 -419496182 -1281449844 1357322508 818058577 -982909830 -567052041 338682179 -1850694385 -1114877206
REM
CELL 1.54180   50.00000   50.00000   50.00000   90.00000   90.00000   90.00000
LATT -1
SFAC C  
C      1  0.4805970000000  0.5091770000000  0.4758830000000 1.0
C      1  0.4903040000000  0.5054690000000  0.5278930000000 1.0
C      1  0.5292040000000  0.5068580000000  0.4926390000000 1.0
C      1  0.5095370000000  0.5746890000000  0.5172380000000 1.0
C      1  0.5033440000000  0.5761240000000  0.4857560000000 1.0
C      1  0.5007360000000  0.5478100000000  0.5013630000000 1.0
C      1  0.5068300000000  0.4660530000000  0.4726080000000 1.0
C      1  0.4694870000000  0.4684210000000  0.4997590000000 1.0
C      1  0.5198070000000  0.4649080000000  0.5174570000000 1.0
C      1  0.5398410000000  0.5179550000000  0.4665870000000 1.0
C      1  0.4527880000000  0.5202830000000  0.4810120000000 1.0
C      1  0.5087960000000  0.5147640000000  0.5501220000000 1.0
C      1  0.5249090000000  0.4356790000000  0.5200130000000 1.0
C      1  0.5054920000000  0.4370530000000  0.4750850000000 1.0
C      1  0.4793170000000  0.4429980000000  0.5147680000000 1.0
C      1  0.4810580000000  0.4787100000000  0.4763630000000 1.0
C      1  0.4898960000000  0.4747850000000  0.5255410000000 1.0
C      1  0.5256230000000  0.4767350000000  0.4920300000000 1.0
C      1  0.5666800000000  0.5219230000000  0.4631060000000 1.0
C      1  0.4360090000000  0.5258380000000  0.4601330000000 1.0
C      1  0.4993280000000  0.5182290000000  0.5755450000000 1.0
C      1  0.5461770000000  0.5161390000000  0.5173650000000 1.0
C      1  0.4934240000000  0.5207630000000  0.4498630000000 1.0
C      1  0.4614180000000  0.5177090000000  0.5300960000000 1.0
C      1  0.5205080000000  0.5203360000000  0.4465400000000 1.0
C      1  0.4456170000000  0.5209460000000  0.5080640000000 1.0
C      1  0.5357110000000  0.5160620000000  0.5425830000000 1.0
C      1  0.5014400000000  0.4288960000000  0.5027290000000 1.0
C      1  0.5003020000000  0.5184610000000  0.4994700000000 1.0
END
