TITL C-3289322-3858-234 -1.39037236785058e-05 125000 -315.894219531806 0 0 62 (C1) n - 1
REM
REM in /nfs/bkarasulu/CARBON/AIRSS/Generating-Clusters/AIREBO/with-SteepDescent/Higher-Symm/SD-CG/HFTN-CG
REM
REM
REM
REM
REM
REM ./C.cell (b20cbc046b6831c77cfcea5457e17084)
REM
REM compiler GCC version 9.2.1 20190827 (Red Hat 9.2.1-1)
REM options -cpp -mtune=generic -march=x86-64 -g -O0 -fpre-include=/usr/include/finclude/math-vector-fortran.h
REM seed 1083674424 -131329865 -194395600 1766579567 -873386151 615646722 176948836 1065757496 -805207531 -1647893447 939574241 -1591697204 -154539658 -170999721 -1530680872 1961650009 -426533081 2133883071 1461230939 -529805388 -566507785 -1801496108 -1579936932 25618232 -1144129210 2085737770 444175259 -328575425 1783121347 1277106038 32559532 1593006042 2007562129
REM
CELL 1.54180   50.00000   50.00000   50.00000   90.00000   90.00000   90.00000
LATT -1
SFAC C  
C      1  0.5721360000000  0.5306830000000  0.4833940000000 1.0
C      1  0.5431090000000  0.4473390000000  0.5007000000000 1.0
C      1  0.4671450000000  0.4401170000000  0.4857810000000 1.0
C      1  0.4344770000000  0.5090970000000  0.4687240000000 1.0
C      1  0.4947880000000  0.5567600000000  0.4739830000000 1.0
C      1  0.5317890000000  0.4833230000000  0.5152510000000 1.0
C      1  0.4833660000000  0.4607680000000  0.5177130000000 1.0
C      1  0.4668260000000  0.4989330000000  0.5086640000000 1.0
C      1  0.4894740000000  0.5318640000000  0.5144310000000 1.0
C      1  0.5273750000000  0.5216900000000  0.5041730000000 1.0
C      1  0.5411760000000  0.5068650000000  0.5641810000000 1.0
C      1  0.4888380000000  0.4718970000000  0.5578670000000 1.0
C      1  0.4623610000000  0.4862580000000  0.5566360000000 1.0
C      1  0.4644360000000  0.5153530000000  0.5632030000000 1.0
C      1  0.5197250000000  0.5213910000000  0.5552040000000 1.0
C      1  0.5320810000000  0.4589770000000  0.5372240000000 1.0
C      1  0.4520680000000  0.4490690000000  0.5216540000000 1.0
C      1  0.4412220000000  0.5190450000000  0.5184750000000 1.0
C      1  0.5060440000000  0.5612370000000  0.5187770000000 1.0
C      1  0.5569940000000  0.5143190000000  0.5165210000000 1.0
C      1  0.4706070000000  0.4235020000000  0.5111630000000 1.0
C      1  0.4280380000000  0.4989300000000  0.4989480000000 1.0
C      1  0.4784860000000  0.5674740000000  0.5005160000000 1.0
C      1  0.5578520000000  0.5469970000000  0.5096570000000 1.0
C      1  0.5611540000000  0.4574820000000  0.5234670000000 1.0
C      1  0.5753570000000  0.4967910000000  0.4857510000000 1.0
C      1  0.5171150000000  0.4392440000000  0.5034760000000 1.0
C      1  0.4469650000000  0.4598440000000  0.4835470000000 1.0
C      1  0.4526500000000  0.5312250000000  0.4824390000000 1.0
C      1  0.5243030000000  0.5609680000000  0.4748260000000 1.0
C      1  0.4540280000000  0.4943440000000  0.4443230000000 1.0
C      1  0.4830280000000  0.5359260000000  0.4493240000000 1.0
C      1  0.5566780000000  0.5102060000000  0.4607050000000 1.0
C      1  0.5346780000000  0.4768340000000  0.4598600000000 1.0
C      1  0.5052100000000  0.4498670000000  0.4581890000000 1.0
C      1  0.5752620000000  0.4851370000000  0.5163850000000 1.0
C      1  0.4971610000000  0.4235410000000  0.5214260000000 1.0
C      1  0.4269150000000  0.4679080000000  0.5086730000000 1.0
C      1  0.4539230000000  0.5494720000000  0.5101520000000 1.0
C      1  0.5351250000000  0.5632180000000  0.5037310000000 1.0
C      1  0.5387820000000  0.5334250000000  0.4773780000000 1.0
C      1  0.5485340000000  0.4775040000000  0.4876750000000 1.0
C      1  0.4953920000000  0.4583990000000  0.4859870000000 1.0
C      1  0.4597720000000  0.4880180000000  0.4772430000000 1.0
C      1  0.4856460000000  0.5248460000000  0.4813770000000 1.0
C      1  0.5526850000000  0.4926100000000  0.5404360000000 1.0
C      1  0.5042380000000  0.4500320000000  0.5411860000000 1.0
C      1  0.4506600000000  0.4811000000000  0.5299980000000 1.0
C      1  0.4646460000000  0.5309720000000  0.5372920000000 1.0
C      1  0.5242030000000  0.5383380000000  0.5329600000000 1.0
C      1  0.4855310000000  0.5259130000000  0.3873680000000 1.0
C      1  0.4770450000000  0.5398710000000  0.3668710000000 1.0
C      1  0.4910430000000  0.5061370000000  0.5783670000000 1.0
C      1  0.4971840000000  0.5020410000000  0.5451730000000 1.0
C      1  0.5023130000000  0.4999210000000  0.5116200000000 1.0
C      1  0.4934760000000  0.4917890000000  0.4797960000000 1.0
C      1  0.5119890000000  0.4903460000000  0.4545700000000 1.0
C      1  0.5135870000000  0.4985240000000  0.6261040000000 1.0
C      1  0.5260990000000  0.4937950000000  0.6486430000000 1.0
C      1  0.5018610000000  0.5010880000000  0.6023270000000 1.0
C      1  0.4955290000000  0.5138220000000  0.4088940000000 1.0
C      1  0.5030480000000  0.5011030000000  0.4310480000000 1.0
END
