TITL C-3289333-7213-248 -0.000220711637178543 125000 -531.972390812352 0 0 99 (C1) n - 1
REM
REM in /nfs/bkarasulu/CARBON/AIRSS/Generating-Clusters/AIREBO/with-SteepDescent/Higher-Symm/SD-CG/HFTN-CG
REM
REM
REM
REM
REM
REM ./C.cell (b20cbc046b6831c77cfcea5457e17084)
REM
REM compiler GCC version 9.2.1 20190827 (Red Hat 9.2.1-1)
REM options -cpp -mtune=generic -march=x86-64 -g -O0 -fpre-include=/usr/include/finclude/math-vector-fortran.h
REM seed -847765184 1044325470 1200735886 1431300759 1107051744 2046664030 1207003561 -627096498 -633791862 -342972261 1798060403 2132941125 -1186545698 1499119003 -787715875 -1939146209 -332286734 50146271 1712054701 -479531051 1353378576 -896947033 1480136415 -334993900 147225826 1002008647 -1794798705 -1779849388 2037880785 1617597095 -897256628 1050025365 -212745959
REM
CELL 1.54180   50.00000   50.00000   50.00000   90.00000   90.00000   90.00000
LATT -1
SFAC C  
C      1  0.5200360000000  0.5249250000000  0.5791810000000 1.0
C      1  0.4355740000000  0.5222470000000  0.5445900000000 1.0
C      1  0.4403070000000  0.5236440000000  0.4439580000000 1.0
C      1  0.5329070000000  0.5198640000000  0.4221360000000 1.0
C      1  0.5822850000000  0.5252240000000  0.5069380000000 1.0
C      1  0.5194670000000  0.4790320000000  0.5755990000000 1.0
C      1  0.4333320000000  0.4754670000000  0.5452940000000 1.0
C      1  0.4358510000000  0.4797180000000  0.4423300000000 1.0
C      1  0.5306510000000  0.4726130000000  0.4215720000000 1.0
C      1  0.5803480000000  0.4768460000000  0.5107700000000 1.0
C      1  0.4855740000000  0.5133600000000  0.5463430000000 1.0
C      1  0.4519880000000  0.5211390000000  0.5026040000000 1.0
C      1  0.4843290000000  0.5193320000000  0.4563850000000 1.0
C      1  0.5314350000000  0.5187150000000  0.4796280000000 1.0
C      1  0.5457160000000  0.5233270000000  0.5334880000000 1.0
C      1  0.4820510000000  0.4826440000000  0.5321330000000 1.0
C      1  0.4514850000000  0.4814680000000  0.4983790000000 1.0
C      1  0.4883140000000  0.4799160000000  0.4530650000000 1.0
C      1  0.5383650000000  0.4877260000000  0.4674530000000 1.0
C      1  0.5400890000000  0.4843430000000  0.5286620000000 1.0
C      1  0.4266080000000  0.4421650000000  0.4835030000000 1.0
C      1  0.4961830000000  0.4318240000000  0.4447700000000 1.0
C      1  0.5545190000000  0.4408370000000  0.4726480000000 1.0
C      1  0.5380410000000  0.4357560000000  0.5392250000000 1.0
C      1  0.4749210000000  0.4403100000000  0.5544960000000 1.0
C      1  0.4413650000000  0.5630620000000  0.4915830000000 1.0
C      1  0.4929760000000  0.5653950000000  0.4420160000000 1.0
C      1  0.5460140000000  0.5551190000000  0.4669930000000 1.0
C      1  0.5411630000000  0.5699070000000  0.5475110000000 1.0
C      1  0.4737030000000  0.5623190000000  0.5577780000000 1.0
C      1  0.4599220000000  0.4218240000000  0.5341430000000 1.0
C      1  0.4538450000000  0.4310420000000  0.4732480000000 1.0
C      1  0.5245120000000  0.4189300000000  0.4450930000000 1.0
C      1  0.5541170000000  0.4290420000000  0.5013770000000 1.0
C      1  0.5169440000000  0.4239310000000  0.5591770000000 1.0
C      1  0.4454220000000  0.5730210000000  0.5542090000000 1.0
C      1  0.4589800000000  0.5731430000000  0.4677150000000 1.0
C      1  0.5172870000000  0.5733170000000  0.4307420000000 1.0
C      1  0.5553340000000  0.5746820000000  0.4924620000000 1.0
C      1  0.5112730000000  0.5766390000000  0.5560780000000 1.0
C      1  0.4989570000000  0.4339910000000  0.5312740000000 1.0
C      1  0.4766040000000  0.4308770000000  0.5058260000000 1.0
C      1  0.4877590000000  0.4311510000000  0.4757340000000 1.0
C      1  0.5220320000000  0.4315210000000  0.4765860000000 1.0
C      1  0.5239970000000  0.4242870000000  0.5104050000000 1.0
C      1  0.4908890000000  0.5716300000000  0.5300760000000 1.0
C      1  0.4733690000000  0.5637410000000  0.5035610000000 1.0
C      1  0.4912690000000  0.5710640000000  0.4755640000000 1.0
C      1  0.5221290000000  0.5715780000000  0.4847510000000 1.0
C      1  0.5230240000000  0.5697060000000  0.5187210000000 1.0
C      1  0.4720570000000  0.5366620000000  0.5241010000000 1.0
C      1  0.4632670000000  0.5343590000000  0.4746770000000 1.0
C      1  0.5158220000000  0.5321960000000  0.4554410000000 1.0
C      1  0.5344910000000  0.5402380000000  0.5062200000000 1.0
C      1  0.5148130000000  0.5285330000000  0.5388610000000 1.0
C      1  0.4624160000000  0.4581080000000  0.5185770000000 1.0
C      1  0.4635260000000  0.4694190000000  0.4689530000000 1.0
C      1  0.5152320000000  0.4629290000000  0.4649200000000 1.0
C      1  0.5348040000000  0.4739320000000  0.4984910000000 1.0
C      1  0.5115840000000  0.4655450000000  0.5299750000000 1.0
C      1  0.5847950000000  0.4837690000000  0.4828620000000 1.0
C      1  0.5480240000000  0.4869340000000  0.5687620000000 1.0
C      1  0.4486230000000  0.4856510000000  0.5699040000000 1.0
C      1  0.4174850000000  0.4892050000000  0.4632500000000 1.0
C      1  0.5018680000000  0.4846360000000  0.4158240000000 1.0
C      1  0.5839080000000  0.5127560000000  0.4806320000000 1.0
C      1  0.5485250000000  0.5168250000000  0.5727330000000 1.0
C      1  0.4514060000000  0.5143820000000  0.5671080000000 1.0
C      1  0.4204830000000  0.5185090000000  0.4646630000000 1.0
C      1  0.5036700000000  0.5149990000000  0.4187320000000 1.0
C      1  0.4235310000000  0.4709900000000  0.4851210000000 1.0
C      1  0.4927460000000  0.4562730000000  0.4314260000000 1.0
C      1  0.5645400000000  0.4675120000000  0.4687150000000 1.0
C      1  0.5485710000000  0.4602230000000  0.5477210000000 1.0
C      1  0.4699750000000  0.4673680000000  0.5589390000000 1.0
C      1  0.4260020000000  0.5359200000000  0.4878330000000 1.0
C      1  0.4858850000000  0.5396920000000  0.4300810000000 1.0
C      1  0.5624130000000  0.5255290000000  0.4673780000000 1.0
C      1  0.5527300000000  0.5452030000000  0.5556790000000 1.0
C      1  0.4736730000000  0.5359350000000  0.5688160000000 1.0
C      1  0.4449730000000  0.4514160000000  0.4493400000000 1.0
C      1  0.5314220000000  0.4493750000000  0.4382680000000 1.0
C      1  0.5605550000000  0.4565610000000  0.5088760000000 1.0
C      1  0.5117370000000  0.4555130000000  0.5624450000000 1.0
C      1  0.4388680000000  0.4473750000000  0.5387180000000 1.0
C      1  0.4517920000000  0.5512450000000  0.4474810000000 1.0
C      1  0.5377430000000  0.5491810000000  0.4357610000000 1.0
C      1  0.5670370000000  0.5485600000000  0.5049990000000 1.0
C      1  0.5118390000000  0.5486810000000  0.5644640000000 1.0
C      1  0.4427820000000  0.5487500000000  0.5364860000000 1.0
C      1  0.5026020000000  0.5023460000000  0.5736520000000 1.0
C      1  0.4622080000000  0.4983080000000  0.4413740000000 1.0
C      1  0.5687340000000  0.5025810000000  0.5266920000000 1.0
C      1  0.4355500000000  0.4991480000000  0.5226600000000 1.0
C      1  0.5431190000000  0.4961200000000  0.4347360000000 1.0
C      1  0.5038890000000  0.4656790000000  0.4968560000000 1.0
C      1  0.5016180000000  0.5317270000000  0.5080430000000 1.0
C      1  0.4989970000000  0.5105810000000  0.4857870000000 1.0
C      1  0.4845000000000  0.4895740000000  0.4989350000000 1.0
END
