TITL C-3289323-3850-237 -0.000544259741837126 125000 -943.574206956519 0 0 196 (C1) n - 1
REM
REM in /nfs/bkarasulu/CARBON/AIRSS/Generating-Clusters/AIREBO/with-SteepDescent/Higher-Symm/SD-CG/HFTN-CG
REM
REM
REM
REM
REM
REM ./C.cell (b20cbc046b6831c77cfcea5457e17084)
REM
REM compiler GCC version 9.2.1 20190827 (Red Hat 9.2.1-1)
REM options -cpp -mtune=generic -march=x86-64 -g -O0 -fpre-include=/usr/include/finclude/math-vector-fortran.h
REM seed 196509950 1309425823 659153953 1059561939 1369612452 211246306 -1133533870 1457747126 1819309935 -1832680731 -682852085 1753263763 1771076643 1234660458 1946310879 -1081406126 -765749538 908161457 115946459 -1057070320 -1827229836 -780986316 -362903207 427290677 328382947 409083827 -500335419 1446787308 1423768732 -1985735658 -1130996291 434065538 -722230583
REM
CELL 1.54180   50.00000   50.00000   50.00000   90.00000   90.00000   90.00000
LATT -1
SFAC C  
C      1  0.4836730000000  0.6069040000000  0.4539230000000 1.0
C      1  0.6036710000000  0.4464320000000  0.4926110000000 1.0
C      1  0.4581300000000  0.4769750000000  0.6104510000000 1.0
C      1  0.4892160000000  0.3926150000000  0.5457480000000 1.0
C      1  0.5296100000000  0.6083820000000  0.5344000000000 1.0
C      1  0.5164240000000  0.3990340000000  0.4602070000000 1.0
C      1  0.6071640000000  0.5441440000000  0.5200940000000 1.0
C      1  0.4015370000000  0.4537970000000  0.5107900000000 1.0
C      1  0.3956410000000  0.5391710000000  0.4905230000000 1.0
C      1  0.4546210000000  0.5239680000000  0.3936610000000 1.0
C      1  0.5408040000000  0.4701560000000  0.3923720000000 1.0
C      1  0.5381390000000  0.5189490000000  0.6101060000000 1.0
C      1  0.4830240000000  0.4533490000000  0.6054260000000 1.0
C      1  0.5954000000000  0.4558960000000  0.4610050000000 1.0
C      1  0.4566650000000  0.6037860000000  0.4745460000000 1.0
C      1  0.4836370000000  0.5419730000000  0.3994700000000 1.0
C      1  0.5141670000000  0.5436970000000  0.6042560000000 1.0
C      1  0.5136920000000  0.4520590000000  0.3923630000000 1.0
C      1  0.6033770000000  0.5188620000000  0.5442570000000 1.0
C      1  0.3934520000000  0.5178710000000  0.4627560000000 1.0
C      1  0.3965510000000  0.4715470000000  0.5377280000000 1.0
C      1  0.4653570000000  0.3892660000000  0.5216550000000 1.0
C      1  0.5385260000000  0.3917250000000  0.4863310000000 1.0
C      1  0.5485190000000  0.6036570000000  0.5078640000000 1.0
C      1  0.5479810000000  0.6067790000000  0.4729460000000 1.0
C      1  0.6075380000000  0.4840110000000  0.5459410000000 1.0
C      1  0.4793310000000  0.5411410000000  0.6095670000000 1.0
C      1  0.5436650000000  0.3959130000000  0.5205390000000 1.0
C      1  0.4804090000000  0.6226870000000  0.5117490000000 1.0
C      1  0.4692090000000  0.3809030000000  0.4876530000000 1.0
C      1  0.6120340000000  0.5183410000000  0.4674260000000 1.0
C      1  0.3937160000000  0.4842040000000  0.4575320000000 1.0
C      1  0.3796680000000  0.5015500000000  0.5324470000000 1.0
C      1  0.4806510000000  0.4441020000000  0.3913650000000 1.0
C      1  0.5130240000000  0.5543670000000  0.3928750000000 1.0
C      1  0.5175790000000  0.4567720000000  0.6109840000000 1.0
C      1  0.5383050000000  0.4840620000000  0.6078860000000 1.0
C      1  0.6101420000000  0.5470070000000  0.4856120000000 1.0
C      1  0.5030730000000  0.6148250000000  0.5297060000000 1.0
C      1  0.5366370000000  0.5338520000000  0.3884600000000 1.0
C      1  0.4599470000000  0.5117360000000  0.6148710000000 1.0
C      1  0.4420320000000  0.4922200000000  0.3899340000000 1.0
C      1  0.6011330000000  0.4558780000000  0.5261970000000 1.0
C      1  0.3901880000000  0.4575040000000  0.4783380000000 1.0
C      1  0.3894080000000  0.5338660000000  0.5252470000000 1.0
C      1  0.4817040000000  0.3953780000000  0.4587360000000 1.0
C      1  0.5241140000000  0.3934130000000  0.5489750000000 1.0
C      1  0.5177240000000  0.6022440000000  0.4561110000000 1.0
C      1  0.5005140000000  0.5448040000000  0.5220820000000 1.0
C      1  0.5513070000000  0.5204860000000  0.4970880000000 1.0
C      1  0.5226240000000  0.5054730000000  0.5440600000000 1.0
C      1  0.4998220000000  0.4576580000000  0.4710410000000 1.0
C      1  0.5026180000000  0.5289510000000  0.4854760000000 1.0
C      1  0.4984150000000  0.4649660000000  0.5227370000000 1.0
C      1  0.5416350000000  0.4780860000000  0.4970610000000 1.0
C      1  0.4545140000000  0.5246330000000  0.4986380000000 1.0
C      1  0.4546760000000  0.4833000000000  0.4958030000000 1.0
C      1  0.5256840000000  0.4980240000000  0.4540510000000 1.0
C      1  0.4845400000000  0.4999320000000  0.4524140000000 1.0
C      1  0.4755790000000  0.5010350000000  0.5402200000000 1.0
C      1  0.4964100000000  0.5256710000000  0.5466060000000 1.0
C      1  0.5420600000000  0.5007560000000  0.5224120000000 1.0
C      1  0.5251490000000  0.5367610000000  0.5032060000000 1.0
C      1  0.5037940000000  0.4738140000000  0.4442530000000 1.0
C      1  0.5012010000000  0.4819230000000  0.5494220000000 1.0
C      1  0.5059660000000  0.5239460000000  0.4558780000000 1.0
C      1  0.5469580000000  0.4995750000000  0.4747340000000 1.0
C      1  0.4518340000000  0.5027480000000  0.5225890000000 1.0
C      1  0.4630980000000  0.5064320000000  0.4738090000000 1.0
C      1  0.5139110000000  0.4690960000000  0.4953870000000 1.0
C      1  0.4847900000000  0.4811290000000  0.4995450000000 1.0
C      1  0.4795790000000  0.5427340000000  0.5004180000000 1.0
C      1  0.5680560000000  0.4834600000000  0.5471700000000 1.0
C      1  0.4693470000000  0.5309320000000  0.5660060000000 1.0
C      1  0.5538030000000  0.5664980000000  0.4722630000000 1.0
C      1  0.5891260000000  0.5195710000000  0.4444120000000 1.0
C      1  0.4335050000000  0.4850810000000  0.4558890000000 1.0
C      1  0.4176780000000  0.5136190000000  0.5639500000000 1.0
C      1  0.4787940000000  0.4565560000000  0.4288580000000 1.0
C      1  0.5284650000000  0.5360610000000  0.4334280000000 1.0
C      1  0.5209540000000  0.4625640000000  0.5692150000000 1.0
C      1  0.5481070000000  0.4356290000000  0.5201560000000 1.0
C      1  0.4363370000000  0.5775370000000  0.5220640000000 1.0
C      1  0.4500950000000  0.4312010000000  0.4767940000000 1.0
C      1  0.5715870000000  0.5401260000000  0.4781830000000 1.0
C      1  0.4615370000000  0.5765980000000  0.5531080000000 1.0
C      1  0.5486470000000  0.4852460000000  0.5699200000000 1.0
C      1  0.5630590000000  0.4661730000000  0.5198060000000 1.0
C      1  0.4412220000000  0.4596820000000  0.4753760000000 1.0
C      1  0.4385160000000  0.5440530000000  0.5213200000000 1.0
C      1  0.4807800000000  0.4340780000000  0.4674130000000 1.0
C      1  0.5251410000000  0.4331490000000  0.5526850000000 1.0
C      1  0.5271030000000  0.5632910000000  0.4537580000000 1.0
C      1  0.5559170000000  0.5208090000000  0.4203640000000 1.0
C      1  0.4449480000000  0.5152070000000  0.5780260000000 1.0
C      1  0.4513880000000  0.4843930000000  0.4202970000000 1.0
C      1  0.4091660000000  0.4476420000000  0.4518640000000 1.0
C      1  0.4326270000000  0.4624970000000  0.4060710000000 1.0
C      1  0.4640710000000  0.4196810000000  0.4414760000000 1.0
C      1  0.4043110000000  0.5493020000000  0.5518700000000 1.0
C      1  0.5864620000000  0.4349110000000  0.5485260000000 1.0
C      1  0.5914890000000  0.5609480000000  0.4601060000000 1.0
C      1  0.4403020000000  0.5367980000000  0.6020670000000 1.0
C      1  0.5635970000000  0.4654200000000  0.5919860000000 1.0
C      1  0.5650840000000  0.5479890000000  0.4028640000000 1.0
C      1  0.4410370000000  0.5808610000000  0.5758100000000 1.0
C      1  0.5420130000000  0.4128260000000  0.5709760000000 1.0
C      1  0.5435920000000  0.5879740000000  0.4380160000000 1.0
C      1  0.4145480000000  0.4733660000000  0.4326950000000 1.0
C      1  0.4323950000000  0.4292600000000  0.4509650000000 1.0
C      1  0.4559580000000  0.4387400000000  0.4143220000000 1.0
C      1  0.4124780000000  0.5380910000000  0.5819550000000 1.0
C      1  0.5861070000000  0.5479840000000  0.4290290000000 1.0
C      1  0.5858330000000  0.4644200000000  0.5654910000000 1.0
C      1  0.4220820000000  0.5728950000000  0.5487280000000 1.0
C      1  0.5721640000000  0.5892160000000  0.4565340000000 1.0
C      1  0.5604540000000  0.4166620000000  0.5426350000000 1.0
C      1  0.4587690000000  0.5620490000000  0.5923100000000 1.0
C      1  0.5370680000000  0.5634380000000  0.4151720000000 1.0
C      1  0.5392250000000  0.4418670000000  0.5890800000000 1.0
C      1  0.5186920000000  0.4387150000000  0.4561770000000 1.0
C      1  0.4439240000000  0.4574700000000  0.5151230000000 1.0
C      1  0.4584560000000  0.5229630000000  0.4332230000000 1.0
C      1  0.5080240000000  0.5742580000000  0.5373170000000 1.0
C      1  0.4861520000000  0.4389450000000  0.5314550000000 1.0
C      1  0.4777900000000  0.5676240000000  0.4574130000000 1.0
C      1  0.4435680000000  0.5515440000000  0.4807760000000 1.0
C      1  0.5592640000000  0.4560280000000  0.4781470000000 1.0
C      1  0.5616120000000  0.5466820000000  0.5163010000000 1.0
C      1  0.4630780000000  0.4781140000000  0.5608480000000 1.0
C      1  0.5321630000000  0.5291100000000  0.5640320000000 1.0
C      1  0.5395210000000  0.4843740000000  0.4297120000000 1.0
C      1  0.5281680000000  0.4547340000000  0.4293280000000 1.0
C      1  0.4396920000000  0.5249940000000  0.4615060000000 1.0
C      1  0.4604960000000  0.4327480000000  0.5209810000000 1.0
C      1  0.5098160000000  0.5524750000000  0.5633670000000 1.0
C      1  0.4829070000000  0.5413440000000  0.4417910000000 1.0
C      1  0.4835820000000  0.4539930000000  0.5581890000000 1.0
C      1  0.4370120000000  0.4771220000000  0.5395460000000 1.0
C      1  0.5635440000000  0.4786050000000  0.4530840000000 1.0
C      1  0.5648370000000  0.5212810000000  0.5345870000000 1.0
C      1  0.4688550000000  0.5681890000000  0.4881010000000 1.0
C      1  0.5342150000000  0.5664650000000  0.5170840000000 1.0
C      1  0.5402170000000  0.4307980000000  0.4755440000000 1.0
C      1  0.4801110000000  0.5905640000000  0.5352100000000 1.0
C      1  0.5910350000000  0.5233990000000  0.5005170000000 1.0
C      1  0.5232970000000  0.5030370000000  0.5839720000000 1.0
C      1  0.4965750000000  0.4105000000000  0.4853360000000 1.0
C      1  0.5034230000000  0.5770160000000  0.4707710000000 1.0
C      1  0.5073620000000  0.4176280000000  0.5319550000000 1.0
C      1  0.5888910000000  0.4737050000000  0.5007160000000 1.0
C      1  0.4165840000000  0.5206660000000  0.5098980000000 1.0
C      1  0.4163310000000  0.4736050000000  0.4900080000000 1.0
C      1  0.5346140000000  0.5024030000000  0.4012940000000 1.0
C      1  0.4765240000000  0.5044270000000  0.4108400000000 1.0
C      1  0.4723220000000  0.4969390000000  0.5868630000000 1.0
C      1  0.4951860000000  0.5221000000000  0.5862730000000 1.0
C      1  0.5868690000000  0.4981540000000  0.5229130000000 1.0
C      1  0.5300330000000  0.5825430000000  0.4886520000000 1.0
C      1  0.4914140000000  0.4744390000000  0.4044060000000 1.0
C      1  0.5006840000000  0.4787030000000  0.5912350000000 1.0
C      1  0.5064870000000  0.5204910000000  0.4126590000000 1.0
C      1  0.5952640000000  0.4898370000000  0.4589090000000 1.0
C      1  0.4132840000000  0.5011520000000  0.5375520000000 1.0
C      1  0.4195980000000  0.5047250000000  0.4799990000000 1.0
C      1  0.5246890000000  0.4179810000000  0.5029410000000 1.0
C      1  0.4647210000000  0.4131510000000  0.4974600000000 1.0
C      1  0.4618340000000  0.5942060000000  0.5067630000000 1.0
C      1  0.4357780000000  0.5414670000000  0.4159230000000 1.0
C      1  0.5357880000000  0.4165730000000  0.4383680000000 1.0
C      1  0.4228540000000  0.4389750000000  0.5328760000000 1.0
C      1  0.4446360000000  0.4604190000000  0.5832770000000 1.0
C      1  0.5556550000000  0.5368990000000  0.5863800000000 1.0
C      1  0.5629170000000  0.4538300000000  0.4084100000000 1.0
C      1  0.5343850000000  0.5832540000000  0.5568360000000 1.0
C      1  0.4645150000000  0.4091130000000  0.5623880000000 1.0
C      1  0.4602040000000  0.5874040000000  0.4387810000000 1.0
C      1  0.4149930000000  0.5565770000000  0.4681980000000 1.0
C      1  0.5798490000000  0.4290760000000  0.4756520000000 1.0
C      1  0.5827360000000  0.5580290000000  0.5393010000000 1.0
C      1  0.4418930000000  0.4107190000000  0.5370360000000 1.0
C      1  0.5366020000000  0.4323010000000  0.4080150000000 1.0
C      1  0.4140910000000  0.5353140000000  0.4416470000000 1.0
C      1  0.4336310000000  0.5838420000000  0.4597830000000 1.0
C      1  0.5593060000000  0.5823760000000  0.5336470000000 1.0
C      1  0.5580860000000  0.4064250000000  0.4622260000000 1.0
C      1  0.5339550000000  0.5632520000000  0.5845390000000 1.0
C      1  0.4641080000000  0.5601670000000  0.4206000000000 1.0
C      1  0.4684940000000  0.4360470000000  0.5799430000000 1.0
C      1  0.4187160000000  0.4580590000000  0.5609580000000 1.0
C      1  0.5767380000000  0.4558000000000  0.4325720000000 1.0
C      1  0.5778920000000  0.5331460000000  0.5622170000000 1.0
C      1  0.5349920000000  0.4617210000000  0.5381780000000 1.0
C      1  0.4586200000000  0.5496540000000  0.5450300000000 1.0
C      1  0.5577730000000  0.5294610000000  0.4509080000000 1.0
C      1  0.4637770000000  0.4768660000000  0.4475290000000 1.0
END
