TITL C-3289325-7307-289 -0.000399923290112418 125000 -358.755278091922 0 0 69 (C1) n - 1
REM
REM in /nfs/bkarasulu/CARBON/AIRSS/Generating-Clusters/AIREBO/with-SteepDescent/Higher-Symm/SD-CG/HFTN-CG
REM
REM
REM
REM
REM
REM ./C.cell (b20cbc046b6831c77cfcea5457e17084)
REM
REM compiler GCC version 9.2.1 20190827 (Red Hat 9.2.1-1)
REM options -cpp -mtune=generic -march=x86-64 -g -O0 -fpre-include=/usr/include/finclude/math-vector-fortran.h
REM seed 1504435362 1469919730 1468185120 349161920 -1230205673 149245153 451140506 471479691 -1478400986 258090971 365319531 -322228432 -392885610 123638005 -1545239094 -2016820927 280802567 1140304109 -1134992684 1272673511 -499821491 -1325890698 -1470250330 643566106 279434822 -1603008172 109969939 -705386779 -1537153899 620814702 1578583743 -1536535746 1642996406
REM
CELL 1.54180   50.00000   50.00000   50.00000   90.00000   90.00000   90.00000
LATT -1
SFAC C  
C      1  0.5154420000000  0.5727270000000  0.5151930000000 1.0
C      1  0.4349810000000  0.4768510000000  0.5098640000000 1.0
C      1  0.5503350000000  0.4482160000000  0.5078220000000 1.0
C      1  0.5110000000000  0.5432780000000  0.4758810000000 1.0
C      1  0.4617230000000  0.4937550000000  0.4703070000000 1.0
C      1  0.5221580000000  0.4792570000000  0.4780540000000 1.0
C      1  0.4085650000000  0.4901720000000  0.4967810000000 1.0
C      1  0.5543530000000  0.4172330000000  0.4997700000000 1.0
C      1  0.5425150000000  0.5844450000000  0.4978390000000 1.0
C      1  0.4587110000000  0.4319790000000  0.4250850000000 1.0
C      1  0.5649120000000  0.4887890000000  0.4243620000000 1.0
C      1  0.4722980000000  0.5700870000000  0.4261240000000 1.0
C      1  0.4713010000000  0.5793300000000  0.4016210000000 1.0
C      1  0.4571530000000  0.4179810000000  0.4029830000000 1.0
C      1  0.5701390000000  0.4877800000000  0.3987010000000 1.0
C      1  0.4605200000000  0.5240980000000  0.5560830000000 1.0
C      1  0.4955970000000  0.4554620000000  0.5524960000000 1.0
C      1  0.5409490000000  0.5216650000000  0.5554340000000 1.0
C      1  0.5192420000000  0.4494050000000  0.4940770000000 1.0
C      1  0.5354900000000  0.5511660000000  0.4981480000000 1.0
C      1  0.4449700000000  0.5066820000000  0.4969260000000 1.0
C      1  0.5694600000000  0.4683080000000  0.4962980000000 1.0
C      1  0.4885920000000  0.5763370000000  0.5032790000000 1.0
C      1  0.4475620000000  0.4517480000000  0.4974050000000 1.0
C      1  0.5630630000000  0.5158850000000  0.5679420000000 1.0
C      1  0.4528850000000  0.5454220000000  0.5689230000000 1.0
C      1  0.4795330000000  0.4392240000000  0.5650260000000 1.0
C      1  0.4454090000000  0.5579690000000  0.4884820000000 1.0
C      1  0.4805820000000  0.4159330000000  0.4932850000000 1.0
C      1  0.5765220000000  0.5174490000000  0.4875390000000 1.0
C      1  0.5149770000000  0.5643530000000  0.5446690000000 1.0
C      1  0.4398160000000  0.4794280000000  0.5403840000000 1.0
C      1  0.5447610000000  0.4546110000000  0.5382340000000 1.0
C      1  0.5673560000000  0.5426670000000  0.4881440000000 1.0
C      1  0.4293980000000  0.5358330000000  0.4889090000000 1.0
C      1  0.5082140000000  0.4186500000000  0.4883160000000 1.0
C      1  0.4600250000000  0.5823120000000  0.4997420000000 1.0
C      1  0.4567860000000  0.4265190000000  0.5034160000000 1.0
C      1  0.5898450000000  0.4903840000000  0.4959480000000 1.0
C      1  0.5679190000000  0.5727870000000  0.4894530000000 1.0
C      1  0.4069270000000  0.5164640000000  0.4894400000000 1.0
C      1  0.5324510000000  0.4036160000000  0.4894190000000 1.0
C      1  0.4556620000000  0.4845560000000  0.5584420000000 1.0
C      1  0.5335190000000  0.4675970000000  0.5557570000000 1.0
C      1  0.5103040000000  0.5466180000000  0.5609920000000 1.0
C      1  0.5062680000000  0.4822160000000  0.5651500000000 1.0
C      1  0.5120330000000  0.5147890000000  0.5664600000000 1.0
C      1  0.4808890000000  0.5031680000000  0.5676510000000 1.0
C      1  0.5081090000000  0.5230190000000  0.4522650000000 1.0
C      1  0.4810940000000  0.5052040000000  0.4507030000000 1.0
C      1  0.5096500000000  0.4909510000000  0.4531890000000 1.0
C      1  0.4867240000000  0.4588970000000  0.4985230000000 1.0
C      1  0.5434410000000  0.5102950000000  0.5103360000000 1.0
C      1  0.4718570000000  0.5262750000000  0.5039680000000 1.0
C      1  0.4802490000000  0.4879290000000  0.4973610000000 1.0
C      1  0.5179740000000  0.5009790000000  0.5003690000000 1.0
C      1  0.5007060000000  0.5220500000000  0.4973530000000 1.0
C      1  0.5392130000000  0.5356040000000  0.5281630000000 1.0
C      1  0.4526090000000  0.5163140000000  0.5288100000000 1.0
C      1  0.5062920000000  0.4518510000000  0.5254290000000 1.0
C      1  0.4781910000000  0.5514020000000  0.4822540000000 1.0
C      1  0.4644410000000  0.4612500000000  0.4728640000000 1.0
C      1  0.5526790000000  0.4937170000000  0.4819870000000 1.0
C      1  0.5597930000000  0.4923690000000  0.4500110000000 1.0
C      1  0.4743940000000  0.5630080000000  0.4514720000000 1.0
C      1  0.4627180000000  0.4452660000000  0.4475370000000 1.0
C      1  0.5529530000000  0.5620970000000  0.5323530000000 1.0
C      1  0.4205310000000  0.5121510000000  0.5279780000000 1.0
C      1  0.5232690000000  0.4241700000000  0.5248210000000 1.0
END
