TITL C-3289320-4661-556 -0.150643803373409 125000 -235.708070930127 0 0 41 (C1) n - 1
REM
REM in /nfs/bkarasulu/CARBON/AIRSS/Generating-Clusters/AIREBO/with-SteepDescent/Higher-Symm/SD-CG/HFTN-CG
REM
REM
REM
REM
REM
REM ./C.cell (b20cbc046b6831c77cfcea5457e17084)
REM
REM compiler GCC version 9.2.1 20190827 (Red Hat 9.2.1-1)
REM options -cpp -mtune=generic -march=x86-64 -g -O0 -fpre-include=/usr/include/finclude/math-vector-fortran.h
REM seed 112001251 -1216459338 -2137894976 203731953 1216626926 -429000111 1920261310 195978437 -1529991003 -714324116 2135803900 743279392 -935296408 -1590800415 1967352040 -724784162 868063045 -1908689764 1347265935 95828150 1985824061 1400764884 -895974863 125560558 1666270093 1182782498 2061565791 -1621244073 -507399537 925920498 -1953739962 -2108875543 -977863034
REM
CELL 1.54180   50.00000   50.00000   50.00000   90.00000   90.00000   90.00000
LATT -1
SFAC C  
C      1  0.5147670000000  0.4797110000000  0.5909440000000 1.0
C      1  0.4910130000000  0.4374570000000  0.6086990000000 1.0
C      1  0.4423850000000  0.4468300000000  0.6196620000000 1.0
C      1  0.4385090000000  0.4961440000000  0.6084490000000 1.0
C      1  0.4832160000000  0.5149720000000  0.5907950000000 1.0
C      1  0.4309120000000  0.4704390000000  0.6126070000000 1.0
C      1  0.4646070000000  0.4327770000000  0.6127670000000 1.0
C      1  0.5079050000000  0.4540280000000  0.5956040000000 1.0
C      1  0.5073110000000  0.5047450000000  0.5809400000000 1.0
C      1  0.4569100000000  0.5110290000000  0.5953620000000 1.0
C      1  0.5129600000000  0.5111870000000  0.4662520000000 1.0
C      1  0.4728900000000  0.5604220000000  0.4872750000000 1.0
C      1  0.5443710000000  0.5742420000000  0.5234420000000 1.0
C      1  0.5813980000000  0.5334580000000  0.5251060000000 1.0
C      1  0.5587410000000  0.4663280000000  0.4854600000000 1.0
C      1  0.5744440000000  0.4743940000000  0.5438300000000 1.0
C      1  0.5225280000000  0.5182560000000  0.5622800000000 1.0
C      1  0.4855530000000  0.5748830000000  0.5447960000000 1.0
C      1  0.4639650000000  0.5040160000000  0.5176420000000 1.0
C      1  0.5021180000000  0.4619430000000  0.5170420000000 1.0
C      1  0.4646240000000  0.4724440000000  0.3605840000000 1.0
C      1  0.4693280000000  0.4473380000000  0.4044020000000 1.0
C      1  0.4850700000000  0.4786370000000  0.4422980000000 1.0
C      1  0.4900800000000  0.5220950000000  0.4241470000000 1.0
C      1  0.4776190000000  0.5195780000000  0.3741120000000 1.0
C      1  0.4887550000000  0.5269500000000  0.3976310000000 1.0
C      1  0.4963590000000  0.5041200000000  0.4446320000000 1.0
C      1  0.4806970000000  0.4568120000000  0.4270410000000 1.0
C      1  0.4683710000000  0.4516080000000  0.3776320000000 1.0
C      1  0.4736890000000  0.4979590000000  0.3582110000000 1.0
C      1  0.5600950000000  0.4902500000000  0.5273070000000 1.0
C      1  0.5171570000000  0.4810170000000  0.5051960000000 1.0
C      1  0.4842960000000  0.5172460000000  0.5057450000000 1.0
C      1  0.4989340000000  0.5586940000000  0.5277860000000 1.0
C      1  0.5363390000000  0.5304850000000  0.5416160000000 1.0
C      1  0.5049890000000  0.5031850000000  0.4924750000000 1.0
C      1  0.5456940000000  0.4790610000000  0.5054080000000 1.0
C      1  0.5596910000000  0.5185580000000  0.5311490000000 1.0
C      1  0.5270940000000  0.5547900000000  0.5307160000000 1.0
C      1  0.4852890000000  0.5458310000000  0.5063470000000 1.0
C      1  0.5356540000000  0.5252900000000  0.4622870000000 1.0
END
