TITL C-3289329-2751-4 -0.000337502183515252 125000 -887.467011379821 0 0 169 (C1) n - 1
REM
REM in /nfs/bkarasulu/CARBON/AIRSS/Generating-Clusters/AIREBO/with-SteepDescent/Higher-Symm/SD-CG/HFTN-CG
REM
REM
REM
REM
REM
REM ./C.cell (b20cbc046b6831c77cfcea5457e17084)
REM
REM compiler GCC version 9.2.1 20190827 (Red Hat 9.2.1-1)
REM options -cpp -mtune=generic -march=x86-64 -g -O0 -fpre-include=/usr/include/finclude/math-vector-fortran.h
REM seed 1438446290 -2021857486 -537529879 -906508530 -2022782651 1033608412 -705221609 1272825063 1588482333 1210129688 95546569 985460185 2040393318 921109424 1497394290 -1144518756 -1042186338 1179929510 1849094939 -212295240 1504335249 -1809327401 1423980352 -291686526 -1829186373 244487941 -62819032 1990752862 2075388005 -1796492889 -1082572740 -669467782 -1541557130
REM
CELL 1.54180   50.00000   50.00000   50.00000   90.00000   90.00000   90.00000
LATT -1
SFAC C  
C      1  0.5498260000000  0.4676890000000  0.5858840000000 1.0
C      1  0.5629870000000  0.4061290000000  0.4964420000000 1.0
C      1  0.5478410000000  0.4699970000000  0.4134100000000 1.0
C      1  0.5566030000000  0.5738980000000  0.4495010000000 1.0
C      1  0.5472380000000  0.5682300000000  0.5560010000000 1.0
C      1  0.5394840000000  0.4954940000000  0.4323250000000 1.0
C      1  0.5617140000000  0.5729850000000  0.4767040000000 1.0
C      1  0.5384480000000  0.5359690000000  0.5551430000000 1.0
C      1  0.5569990000000  0.4548360000000  0.5592210000000 1.0
C      1  0.5696900000000  0.4229070000000  0.4754680000000 1.0
C      1  0.4208320000000  0.4776060000000  0.4586880000000 1.0
C      1  0.4156280000000  0.5263900000000  0.4603930000000 1.0
C      1  0.4180810000000  0.5439420000000  0.5113100000000 1.0
C      1  0.4157210000000  0.5004120000000  0.5429830000000 1.0
C      1  0.4131460000000  0.4590000000000  0.5122850000000 1.0
C      1  0.5391120000000  0.5957620000000  0.4440610000000 1.0
C      1  0.5325650000000  0.5795030000000  0.5762340000000 1.0
C      1  0.5347040000000  0.4474950000000  0.6013180000000 1.0
C      1  0.5409040000000  0.3894390000000  0.4903050000000 1.0
C      1  0.5303470000000  0.4733450000000  0.3921340000000 1.0
C      1  0.5014470000000  0.4234190000000  0.4177780000000 1.0
C      1  0.5078190000000  0.5580070000000  0.4095240000000 1.0
C      1  0.5060400000000  0.6101190000000  0.5206420000000 1.0
C      1  0.5027000000000  0.5064210000000  0.6035280000000 1.0
C      1  0.5082330000000  0.4002180000000  0.5445380000000 1.0
C      1  0.5097630000000  0.4347750000000  0.5850700000000 1.0
C      1  0.5181040000000  0.3983330000000  0.4780220000000 1.0
C      1  0.5071740000000  0.4893120000000  0.3975710000000 1.0
C      1  0.5160220000000  0.6016850000000  0.4603950000000 1.0
C      1  0.5090610000000  0.5644810000000  0.5826380000000 1.0
C      1  0.4595970000000  0.5569910000000  0.5710060000000 1.0
C      1  0.4593440000000  0.4510910000000  0.5799210000000 1.0
C      1  0.4619470000000  0.4148810000000  0.4896190000000 1.0
C      1  0.4595490000000  0.4959350000000  0.4084120000000 1.0
C      1  0.4615620000000  0.5823710000000  0.4603280000000 1.0
C      1  0.4573680000000  0.5388280000000  0.4104910000000 1.0
C      1  0.4492260000000  0.5953950000000  0.5089790000000 1.0
C      1  0.4507750000000  0.5205690000000  0.5896890000000 1.0
C      1  0.4540520000000  0.4218080000000  0.5540430000000 1.0
C      1  0.4534570000000  0.4175190000000  0.4506980000000 1.0
C      1  0.5139250000000  0.5187070000000  0.4127980000000 1.0
C      1  0.5200550000000  0.5990280000000  0.4915420000000 1.0
C      1  0.5170170000000  0.5333080000000  0.5884730000000 1.0
C      1  0.5274150000000  0.4161000000000  0.5657100000000 1.0
C      1  0.5223430000000  0.4188030000000  0.4557110000000 1.0
C      1  0.4322250000000  0.4229130000000  0.4775850000000 1.0
C      1  0.4340830000000  0.5150350000000  0.4139330000000 1.0
C      1  0.4299000000000  0.5741080000000  0.4703800000000 1.0
C      1  0.4297050000000  0.5409860000000  0.5741180000000 1.0
C      1  0.4297250000000  0.4437700000000  0.5648980000000 1.0
C      1  0.4680810000000  0.4949730000000  0.4583020000000 1.0
C      1  0.4632070000000  0.5436910000000  0.4795980000000 1.0
C      1  0.4686190000000  0.5331180000000  0.5287970000000 1.0
C      1  0.4617750000000  0.4786060000000  0.5372210000000 1.0
C      1  0.4672080000000  0.4595510000000  0.4959480000000 1.0
C      1  0.5489390000000  0.5353090000000  0.5167060000000 1.0
C      1  0.5523570000000  0.4896540000000  0.5323200000000 1.0
C      1  0.5483630000000  0.4591950000000  0.5006060000000 1.0
C      1  0.5562340000000  0.4786080000000  0.4657260000000 1.0
C      1  0.5407440000000  0.5285760000000  0.4784570000000 1.0
C      1  0.5349360000000  0.5021570000000  0.5564960000000 1.0
C      1  0.5398560000000  0.4505290000000  0.5301680000000 1.0
C      1  0.5328530000000  0.4622630000000  0.4533840000000 1.0
C      1  0.5332170000000  0.5243020000000  0.4492740000000 1.0
C      1  0.5284080000000  0.5616260000000  0.5142840000000 1.0
C      1  0.4949020000000  0.5778330000000  0.5003130000000 1.0
C      1  0.4988840000000  0.5167550000000  0.5648800000000 1.0
C      1  0.4970750000000  0.4507760000000  0.5383720000000 1.0
C      1  0.4983220000000  0.4429300000000  0.4565200000000 1.0
C      1  0.4950110000000  0.5305800000000  0.4385900000000 1.0
C      1  0.5193990000000  0.4634800000000  0.4834270000000 1.0
C      1  0.5135450000000  0.5033990000000  0.4636890000000 1.0
C      1  0.5173470000000  0.5476770000000  0.4872450000000 1.0
C      1  0.5196120000000  0.5205480000000  0.5160950000000 1.0
C      1  0.5216000000000  0.4783660000000  0.5231880000000 1.0
C      1  0.4882240000000  0.4713060000000  0.4723240000000 1.0
C      1  0.4854640000000  0.5200060000000  0.4695180000000 1.0
C      1  0.4873930000000  0.5452920000000  0.5031800000000 1.0
C      1  0.4916360000000  0.5122030000000  0.5335240000000 1.0
C      1  0.4881880000000  0.4758710000000  0.5171980000000 1.0
C      1  0.5866810000000  0.4591660000000  0.4489100000000 1.0
C      1  0.5792260000000  0.5247840000000  0.4487830000000 1.0
C      1  0.5834980000000  0.5599680000000  0.5167920000000 1.0
C      1  0.5803750000000  0.5013190000000  0.5582630000000 1.0
C      1  0.5817730000000  0.4446600000000  0.5182750000000 1.0
C      1  0.5741570000000  0.4534860000000  0.4800140000000 1.0
C      1  0.5719430000000  0.4956590000000  0.4424600000000 1.0
C      1  0.5674270000000  0.5460420000000  0.4902560000000 1.0
C      1  0.5674730000000  0.5188680000000  0.5336980000000 1.0
C      1  0.5750500000000  0.4680990000000  0.5369280000000 1.0
C      1  0.4257250000000  0.4237320000000  0.5259530000000 1.0
C      1  0.4273490000000  0.4764630000000  0.4199310000000 1.0
C      1  0.4290970000000  0.5587540000000  0.4267120000000 1.0
C      1  0.4305270000000  0.5647890000000  0.5428380000000 1.0
C      1  0.4304410000000  0.4851690000000  0.5695740000000 1.0
C      1  0.4508780000000  0.4516710000000  0.5395130000000 1.0
C      1  0.4530500000000  0.4469730000000  0.4677000000000 1.0
C      1  0.4563730000000  0.5207330000000  0.4392680000000 1.0
C      1  0.4436420000000  0.5631860000000  0.4994990000000 1.0
C      1  0.4512400000000  0.5212470000000  0.5556880000000 1.0
C      1  0.4121180000000  0.4289350000000  0.4989660000000 1.0
C      1  0.4151340000000  0.5031940000000  0.4370280000000 1.0
C      1  0.4157550000000  0.5558450000000  0.4530200000000 1.0
C      1  0.4154490000000  0.5345760000000  0.5439140000000 1.0
C      1  0.4141540000000  0.4664820000000  0.5448910000000 1.0
C      1  0.4573330000000  0.5630100000000  0.5306360000000 1.0
C      1  0.4618640000000  0.4909820000000  0.5654060000000 1.0
C      1  0.4559890000000  0.4330820000000  0.5141100000000 1.0
C      1  0.4476120000000  0.4651160000000  0.4416390000000 1.0
C      1  0.4550530000000  0.5528060000000  0.4478680000000 1.0
C      1  0.5489820000000  0.5262660000000  0.5852880000000 1.0
C      1  0.5602780000000  0.4217140000000  0.5584770000000 1.0
C      1  0.5551830000000  0.4209960000000  0.4511940000000 1.0
C      1  0.5470630000000  0.5218580000000  0.4122130000000 1.0
C      1  0.5505820000000  0.5902280000000  0.4968200000000 1.0
C      1  0.4409690000000  0.5180670000000  0.4773720000000 1.0
C      1  0.4439010000000  0.5242380000000  0.5085940000000 1.0
C      1  0.4413600000000  0.4983420000000  0.5238990000000 1.0
C      1  0.4391830000000  0.4749770000000  0.5044430000000 1.0
C      1  0.4438330000000  0.4865410000000  0.4763840000000 1.0
C      1  0.5287420000000  0.4928180000000  0.5877530000000 1.0
C      1  0.5317080000000  0.4206540000000  0.5314550000000 1.0
C      1  0.5282080000000  0.4390160000000  0.4290070000000 1.0
C      1  0.5286440000000  0.5513750000000  0.4302780000000 1.0
C      1  0.5282210000000  0.5907100000000  0.5294340000000 1.0
C      1  0.3933420000000  0.5248290000000  0.5034640000000 1.0
C      1  0.3913310000000  0.5014490000000  0.5199960000000 1.0
C      1  0.3916780000000  0.4783580000000  0.5026380000000 1.0
C      1  0.3936320000000  0.4867720000000  0.4751750000000 1.0
C      1  0.3926390000000  0.5158720000000  0.4765600000000 1.0
C      1  0.5873520000000  0.5264550000000  0.4760230000000 1.0
C      1  0.5928040000000  0.5283300000000  0.5154830000000 1.0
C      1  0.5960630000000  0.4916330000000  0.5295570000000 1.0
C      1  0.5964700000000  0.4664240000000  0.4990920000000 1.0
C      1  0.5951450000000  0.4875970000000  0.4656190000000 1.0
C      1  0.5620970000000  0.5454490000000  0.4316650000000 1.0
C      1  0.5606700000000  0.5806670000000  0.5278680000000 1.0
C      1  0.5642000000000  0.4984100000000  0.5833950000000 1.0
C      1  0.5644150000000  0.4195570000000  0.5242390000000 1.0
C      1  0.5613680000000  0.4466480000000  0.4302310000000 1.0
C      1  0.4916970000000  0.4014250000000  0.4946170000000 1.0
C      1  0.4825430000000  0.4779140000000  0.4044590000000 1.0
C      1  0.4910120000000  0.5934070000000  0.4506010000000 1.0
C      1  0.4857880000000  0.5708500000000  0.5670940000000 1.0
C      1  0.4863930000000  0.4581760000000  0.5930020000000 1.0
C      1  0.4914490000000  0.5643510000000  0.4369020000000 1.0
C      1  0.4901870000000  0.5713510000000  0.5333780000000 1.0
C      1  0.4903750000000  0.4868340000000  0.5786150000000 1.0
C      1  0.4929760000000  0.4210300000000  0.5223810000000 1.0
C      1  0.4811690000000  0.4620520000000  0.4342160000000 1.0
C      1  0.4806920000000  0.5578670000000  0.3989530000000 1.0
C      1  0.4770090000000  0.6019550000000  0.5265500000000 1.0
C      1  0.4730130000000  0.5079460000000  0.6106200000000 1.0
C      1  0.4740230000000  0.4009140000000  0.5422100000000 1.0
C      1  0.4749680000000  0.4293640000000  0.4271690000000 1.0
C      1  0.5125510000000  0.5459300000000  0.5376380000000 1.0
C      1  0.5116300000000  0.4772040000000  0.5553450000000 1.0
C      1  0.5111850000000  0.4380960000000  0.5012220000000 1.0
C      1  0.5090780000000  0.4807590000000  0.4397070000000 1.0
C      1  0.5076600000000  0.5591630000000  0.4632970000000 1.0
C      1  0.4705520000000  0.5906360000000  0.4885080000000 1.0
C      1  0.4784880000000  0.5344440000000  0.5814260000000 1.0
C      1  0.4847160000000  0.4338810000000  0.5620860000000 1.0
C      1  0.4836580000000  0.4175150000000  0.4655070000000 1.0
C      1  0.4825730000000  0.5185410000000  0.4093150000000 1.0
C      1  0.5247040000000  0.4953900000000  0.4939190000000 1.0
C      1  0.5903750000000  0.4998460000000  0.4970180000000 1.0
C      1  0.4865940000000  0.5055030000000  0.5005580000000 1.0
C      1  0.5572170000000  0.5007710000000  0.4894950000000 1.0
END
