TITL C-3289331-6719-127 -0.00156130389462703 125000 -600.186685424619 0 0 112 (C1) n - 1
REM
REM in /nfs/bkarasulu/CARBON/AIRSS/Generating-Clusters/AIREBO/with-SteepDescent/Higher-Symm/SD-CG/HFTN-CG
REM
REM
REM
REM
REM
REM ./C.cell (b20cbc046b6831c77cfcea5457e17084)
REM
REM compiler GCC version 9.2.1 20190827 (Red Hat 9.2.1-1)
REM options -cpp -mtune=generic -march=x86-64 -g -O0 -fpre-include=/usr/include/finclude/math-vector-fortran.h
REM seed -310653187 1213825943 -794980263 -1638048653 559739760 -1519490135 364358279 937277679 -565283847 -691963831 -496159519 -609431660 -718947781 550101378 478550811 852755666 279026537 438223379 -223094782 -1752169017 2113449755 112154648 840179513 1399851470 665887289 -1076865921 1019190716 1596401358 1119336406 549258147 -1958108632 1329235727 2021052354
REM
CELL 1.54180   50.00000   50.00000   50.00000   90.00000   90.00000   90.00000
LATT -1
SFAC C  
C      1  0.4637860000000  0.4842490000000  0.5002950000000 1.0
C      1  0.4897080000000  0.5465940000000  0.5102170000000 1.0
C      1  0.5412180000000  0.4813750000000  0.5024390000000 1.0
C      1  0.4764480000000  0.4724960000000  0.3913120000000 1.0
C      1  0.5027540000000  0.5322590000000  0.4000620000000 1.0
C      1  0.5408610000000  0.4795160000000  0.3926900000000 1.0
C      1  0.4577970000000  0.5222350000000  0.4496670000000 1.0
C      1  0.5285010000000  0.5256820000000  0.4493480000000 1.0
C      1  0.5106200000000  0.4449440000000  0.4535420000000 1.0
C      1  0.5165830000000  0.5250050000000  0.4811950000000 1.0
C      1  0.5094440000000  0.4666120000000  0.4785670000000 1.0
C      1  0.4667450000000  0.5119810000000  0.4808320000000 1.0
C      1  0.5163660000000  0.5596520000000  0.5501740000000 1.0
C      1  0.5457100000000  0.4518690000000  0.5413090000000 1.0
C      1  0.4423630000000  0.4816840000000  0.5389060000000 1.0
C      1  0.5163860000000  0.4161030000000  0.4911180000000 1.0
C      1  0.4196600000000  0.5335640000000  0.4810330000000 1.0
C      1  0.5531490000000  0.5576300000000  0.4859770000000 1.0
C      1  0.5534500000000  0.5035150000000  0.5208420000000 1.0
C      1  0.4744050000000  0.4599960000000  0.5216490000000 1.0
C      1  0.4685630000000  0.5323530000000  0.5307420000000 1.0
C      1  0.5457780000000  0.5538440000000  0.5639540000000 1.0
C      1  0.5192420000000  0.4358490000000  0.5556250000000 1.0
C      1  0.4412860000000  0.5122090000000  0.5538700000000 1.0
C      1  0.5392380000000  0.4495190000000  0.5798110000000 1.0
C      1  0.4442110000000  0.4909880000000  0.5777350000000 1.0
C      1  0.5246530000000  0.5680640000000  0.5865250000000 1.0
C      1  0.5176700000000  0.5874080000000  0.5342530000000 1.0
C      1  0.5540660000000  0.4117740000000  0.5191050000000 1.0
C      1  0.4140810000000  0.4686520000000  0.5252450000000 1.0
C      1  0.4678780000000  0.5507130000000  0.5593930000000 1.0
C      1  0.5608890000000  0.5011850000000  0.5535620000000 1.0
C      1  0.4701120000000  0.4521600000000  0.5544920000000 1.0
C      1  0.4895310000000  0.5339310000000  0.4465670000000 1.0
C      1  0.5116630000000  0.4961590000000  0.4449000000000 1.0
C      1  0.4825130000000  0.4909440000000  0.4493360000000 1.0
C      1  0.5152450000000  0.4755240000000  0.5170320000000 1.0
C      1  0.4705490000000  0.4986810000000  0.5303510000000 1.0
C      1  0.5086960000000  0.5255410000000  0.5222140000000 1.0
C      1  0.5215620000000  0.4648460000000  0.4065990000000 1.0
C      1  0.4681770000000  0.4970920000000  0.4020570000000 1.0
C      1  0.5266560000000  0.5246010000000  0.3873930000000 1.0
C      1  0.5515010000000  0.5120950000000  0.4283020000000 1.0
C      1  0.4868370000000  0.4440170000000  0.4306400000000 1.0
C      1  0.4599200000000  0.5390970000000  0.4202040000000 1.0
C      1  0.4755330000000  0.4879580000000  0.5833070000000 1.0
C      1  0.5178220000000  0.5325410000000  0.5824640000000 1.0
C      1  0.5233690000000  0.4783910000000  0.5811690000000 1.0
C      1  0.4265160000000  0.5005230000000  0.4377040000000 1.0
C      1  0.5307390000000  0.5636090000000  0.4364380000000 1.0
C      1  0.5490630000000  0.4469860000000  0.4471310000000 1.0
C      1  0.5751660000000  0.5398900000000  0.5247630000000 1.0
C      1  0.4814100000000  0.4158440000000  0.5253740000000 1.0
C      1  0.4384610000000  0.5593480000000  0.5239600000000 1.0
C      1  0.5263860000000  0.4065860000000  0.5158810000000 1.0
C      1  0.4233630000000  0.5133840000000  0.5065770000000 1.0
C      1  0.5358440000000  0.5707500000000  0.5103420000000 1.0
C      1  0.4525840000000  0.5285040000000  0.5029460000000 1.0
C      1  0.5366210000000  0.5292550000000  0.5085160000000 1.0
C      1  0.4996590000000  0.4495300000000  0.5052710000000 1.0
C      1  0.4695590000000  0.4468540000000  0.4558900000000 1.0
C      1  0.4571350000000  0.5607180000000  0.4389480000000 1.0
C      1  0.5578150000000  0.4997070000000  0.4571300000000 1.0
C      1  0.4946040000000  0.4557650000000  0.4055580000000 1.0
C      1  0.4751110000000  0.5249990000000  0.4002440000000 1.0
C      1  0.5440570000000  0.5065470000000  0.4012510000000 1.0
C      1  0.5261150000000  0.4691330000000  0.4358050000000 1.0
C      1  0.4580390000000  0.4942250000000  0.4302960000000 1.0
C      1  0.5095790000000  0.5428570000000  0.4264320000000 1.0
C      1  0.4376540000000  0.4484260000000  0.5321890000000 1.0
C      1  0.4848400000000  0.5826150000000  0.5268230000000 1.0
C      1  0.5594520000000  0.4385580000000  0.5194880000000 1.0
C      1  0.4834680000000  0.4608700000000  0.6009140000000 1.0
C      1  0.4896950000000  0.5281830000000  0.5941180000000 1.0
C      1  0.5390080000000  0.5008200000000  0.5939060000000 1.0
C      1  0.4782590000000  0.4713970000000  0.4723360000000 1.0
C      1  0.4863470000000  0.5403900000000  0.4785960000000 1.0
C      1  0.5288610000000  0.4941440000000  0.4738950000000 1.0
C      1  0.5078140000000  0.4140240000000  0.5369090000000 1.0
C      1  0.4286300000000  0.5324070000000  0.5342840000000 1.0
C      1  0.5566350000000  0.5591820000000  0.5343170000000 1.0
C      1  0.6057060000000  0.5173290000000  0.4679780000000 1.0
C      1  0.4443610000000  0.4039420000000  0.4713160000000 1.0
C      1  0.4518450000000  0.5955980000000  0.4704110000000 1.0
C      1  0.4914050000000  0.4857910000000  0.5540580000000 1.0
C      1  0.5014670000000  0.5292300000000  0.5531490000000 1.0
C      1  0.5232940000000  0.4760720000000  0.5472440000000 1.0
C      1  0.4935750000000  0.5845040000000  0.4743390000000 1.0
C      1  0.5745200000000  0.4777320000000  0.4813900000000 1.0
C      1  0.4422290000000  0.4550920000000  0.4836550000000 1.0
C      1  0.5590860000000  0.4725730000000  0.5641610000000 1.0
C      1  0.4467840000000  0.4620320000000  0.5733210000000 1.0
C      1  0.4932970000000  0.5627930000000  0.5744610000000 1.0
C      1  0.4250750000000  0.5236130000000  0.4558620000000 1.0
C      1  0.5427370000000  0.5544390000000  0.4606180000000 1.0
C      1  0.5350110000000  0.4360070000000  0.4755130000000 1.0
C      1  0.5483310000000  0.5221610000000  0.5739320000000 1.0
C      1  0.4983820000000  0.4573020000000  0.5718020000000 1.0
C      1  0.4722690000000  0.5180690000000  0.5678440000000 1.0
C      1  0.5044710000000  0.5731840000000  0.5007140000000 1.0
C      1  0.5552490000000  0.4540040000000  0.4937930000000 1.0
C      1  0.4298680000000  0.4820240000000  0.5003890000000 1.0
C      1  0.5681410000000  0.5310860000000  0.4959000000000 1.0
C      1  0.4845710000000  0.4224580000000  0.4941560000000 1.0
C      1  0.4404590000000  0.5570790000000  0.4915920000000 1.0
C      1  0.4594530000000  0.4264320000000  0.4774160000000 1.0
C      1  0.4653220000000  0.5659500000000  0.4706610000000 1.0
C      1  0.5802030000000  0.5110460000000  0.4776000000000 1.0
C      1  0.4591510000000  0.4270850000000  0.5378430000000 1.0
C      1  0.4614510000000  0.5711170000000  0.5364200000000 1.0
C      1  0.5837630000000  0.5199980000000  0.5410310000000 1.0
C      1  0.4984260000000  0.4992160000000  0.5135320000000 1.0
END
