TITL C-3289335-9438-578 -0.00112704066908805 125000 -837.053083613801 0 0 147 (C1) n - 1
REM
REM in /nfs/bkarasulu/CARBON/AIRSS/Generating-Clusters/AIREBO/with-SteepDescent/Higher-Symm/SD-CG/HFTN-CG
REM
REM
REM
REM
REM
REM ./C.cell (b20cbc046b6831c77cfcea5457e17084)
REM
REM compiler GCC version 9.2.1 20190827 (Red Hat 9.2.1-1)
REM options -cpp -mtune=generic -march=x86-64 -g -O0 -fpre-include=/usr/include/finclude/math-vector-fortran.h
REM seed -2085968857 1913565181 -850845440 -1762123228 719151904 -1363029631 -1235091348 347619980 -123425627 1261948957 471651909 -1479215174 -1574394256 -1133934154 -49532710 1645774450 -1128459170 388996232 -7014159 -107142973 -1260642613 1264028976 -537701551 -1252306693 614442253 -1433454666 2088469202 1037487125 -304409738 -352055803 1635153794 169299334 -1957901329
REM
CELL 1.54180   50.00000   50.00000   50.00000   90.00000   90.00000   90.00000
LATT -1
SFAC C  
C      1  0.5434760000000  0.4094550000000  0.5229030000000 1.0
C      1  0.4180850000000  0.4362580000000  0.5211060000000 1.0
C      1  0.4133450000000  0.5563040000000  0.5252850000000 1.0
C      1  0.5308540000000  0.6011510000000  0.5271950000000 1.0
C      1  0.6004910000000  0.5073980000000  0.5237520000000 1.0
C      1  0.4550150000000  0.4668530000000  0.4066560000000 1.0
C      1  0.4664390000000  0.5296780000000  0.4222460000000 1.0
C      1  0.5220860000000  0.5533650000000  0.4142390000000 1.0
C      1  0.5575720000000  0.4941690000000  0.4090480000000 1.0
C      1  0.5131490000000  0.4538140000000  0.4145620000000 1.0
C      1  0.4063070000000  0.4495140000000  0.4920880000000 1.0
C      1  0.4221390000000  0.5730970000000  0.4970590000000 1.0
C      1  0.5483670000000  0.5971440000000  0.4983270000000 1.0
C      1  0.6016330000000  0.4859730000000  0.4946220000000 1.0
C      1  0.5142170000000  0.3958200000000  0.4880260000000 1.0
C      1  0.4818160000000  0.5478400000000  0.4413750000000 1.0
C      1  0.5441850000000  0.5359740000000  0.4258430000000 1.0
C      1  0.5473350000000  0.4786130000000  0.4358960000000 1.0
C      1  0.4880190000000  0.4510020000000  0.4359950000000 1.0
C      1  0.4403390000000  0.4871950000000  0.4272380000000 1.0
C      1  0.4435270000000  0.4252850000000  0.4364450000000 1.0
C      1  0.4191010000000  0.5284520000000  0.4447810000000 1.0
C      1  0.5120670000000  0.5883850000000  0.4480370000000 1.0
C      1  0.5883640000000  0.5248000000000  0.4419390000000 1.0
C      1  0.5370140000000  0.4308080000000  0.4508690000000 1.0
C      1  0.4811240000000  0.4831430000000  0.6057890000000 1.0
C      1  0.4788130000000  0.5131560000000  0.6033500000000 1.0
C      1  0.5063390000000  0.5243580000000  0.6016240000000 1.0
C      1  0.5254660000000  0.5021100000000  0.6044890000000 1.0
C      1  0.5106700000000  0.4764750000000  0.6063620000000 1.0
C      1  0.5603630000000  0.5109620000000  0.5054550000000 1.0
C      1  0.5320400000000  0.4480860000000  0.4992600000000 1.0
C      1  0.4592460000000  0.4535460000000  0.5032020000000 1.0
C      1  0.4408100000000  0.5232200000000  0.5043990000000 1.0
C      1  0.5014720000000  0.5659760000000  0.4958630000000 1.0
C      1  0.4690490000000  0.6061500000000  0.4775750000000 1.0
C      1  0.5852310000000  0.5627810000000  0.4728930000000 1.0
C      1  0.5809650000000  0.4324360000000  0.4782350000000 1.0
C      1  0.4639820000000  0.4090770000000  0.4780750000000 1.0
C      1  0.3963830000000  0.4991390000000  0.4772590000000 1.0
C      1  0.4816320000000  0.4352090000000  0.4862220000000 1.0
C      1  0.4308260000000  0.4946240000000  0.4889380000000 1.0
C      1  0.4733910000000  0.5734570000000  0.4858440000000 1.0
C      1  0.5525400000000  0.5607310000000  0.4820190000000 1.0
C      1  0.5591470000000  0.4568480000000  0.4874910000000 1.0
C      1  0.4623800000000  0.4672710000000  0.5864020000000 1.0
C      1  0.4605940000000  0.5242520000000  0.5827530000000 1.0
C      1  0.5118390000000  0.5418860000000  0.5794140000000 1.0
C      1  0.5478590000000  0.5024190000000  0.5847310000000 1.0
C      1  0.5204950000000  0.4553790000000  0.5854880000000 1.0
C      1  0.4817390000000  0.5207200000000  0.5587560000000 1.0
C      1  0.5149500000000  0.5224750000000  0.5516710000000 1.0
C      1  0.5262300000000  0.4943440000000  0.5629170000000 1.0
C      1  0.5019320000000  0.4743730000000  0.5675320000000 1.0
C      1  0.4744610000000  0.4902270000000  0.5670910000000 1.0
C      1  0.4805810000000  0.5421960000000  0.5361750000000 1.0
C      1  0.5414340000000  0.5377360000000  0.5422480000000 1.0
C      1  0.5392630000000  0.4777500000000  0.5400400000000 1.0
C      1  0.4843130000000  0.4548340000000  0.5515150000000 1.0
C      1  0.4503000000000  0.4979830000000  0.5499090000000 1.0
C      1  0.5369910000000  0.4513910000000  0.4292710000000 1.0
C      1  0.4604890000000  0.4412910000000  0.4203610000000 1.0
C      1  0.4412570000000  0.5187720000000  0.4293240000000 1.0
C      1  0.5041640000000  0.5679550000000  0.4304740000000 1.0
C      1  0.5683050000000  0.5189390000000  0.4224240000000 1.0
C      1  0.4348370000000  0.4329110000000  0.4915830000000 1.0
C      1  0.4151280000000  0.5407870000000  0.4948260000000 1.0
C      1  0.5155060000000  0.5948050000000  0.4982150000000 1.0
C      1  0.5899970000000  0.5172640000000  0.4929450000000 1.0
C      1  0.5424660000000  0.4059010000000  0.4951630000000 1.0
C      1  0.5254840000000  0.4213150000000  0.5492450000000 1.0
C      1  0.4294670000000  0.4516790000000  0.5492980000000 1.0
C      1  0.4325230000000  0.5501880000000  0.5513610000000 1.0
C      1  0.5319890000000  0.5779650000000  0.5496970000000 1.0
C      1  0.5846340000000  0.4995230000000  0.5520660000000 1.0
C      1  0.5649540000000  0.4897610000000  0.5279460000000 1.0
C      1  0.5115230000000  0.4334280000000  0.5220720000000 1.0
C      1  0.4379810000000  0.4705120000000  0.5236030000000 1.0
C      1  0.4521870000000  0.5468920000000  0.5253800000000 1.0
C      1  0.5427550000000  0.5636370000000  0.5206960000000 1.0
C      1  0.5707670000000  0.5939060000000  0.4728930000000 1.0
C      1  0.6024270000000  0.4588350000000  0.4795740000000 1.0
C      1  0.4859100000000  0.3836050000000  0.4783730000000 1.0
C      1  0.4057390000000  0.4719280000000  0.4670540000000 1.0
C      1  0.4363650000000  0.5970910000000  0.4804870000000 1.0
C      1  0.5476060000000  0.4955630000000  0.4827190000000 1.0
C      1  0.5125100000000  0.4289400000000  0.4823740000000 1.0
C      1  0.4556640000000  0.4771110000000  0.4799580000000 1.0
C      1  0.4613750000000  0.5288980000000  0.4810560000000 1.0
C      1  0.5216960000000  0.5589530000000  0.4731900000000 1.0
C      1  0.4788310000000  0.4896740000000  0.5004050000000 1.0
C      1  0.4864340000000  0.5170060000000  0.4912880000000 1.0
C      1  0.5163190000000  0.5202370000000  0.4809920000000 1.0
C      1  0.5184300000000  0.4893980000000  0.4876450000000 1.0
C      1  0.4939790000000  0.4662630000000  0.4832630000000 1.0
C      1  0.5918500000000  0.5336050000000  0.4675920000000 1.0
C      1  0.5526290000000  0.4203490000000  0.4727030000000 1.0
C      1  0.4399770000000  0.4188400000000  0.4623610000000 1.0
C      1  0.4069820000000  0.5265210000000  0.4693540000000 1.0
C      1  0.4991420000000  0.6001740000000  0.4710460000000 1.0
C      1  0.5994950000000  0.5764750000000  0.5008930000000 1.0
C      1  0.5865740000000  0.4396750000000  0.5108220000000 1.0
C      1  0.4713820000000  0.4042550000000  0.5093840000000 1.0
C      1  0.3843550000000  0.4949220000000  0.5079110000000 1.0
C      1  0.4619130000000  0.6024300000000  0.5106740000000 1.0
C      1  0.5700430000000  0.5743640000000  0.5077850000000 1.0
C      1  0.5790670000000  0.4694430000000  0.5102390000000 1.0
C      1  0.4984480000000  0.4073600000000  0.5128980000000 1.0
C      1  0.4106800000000  0.4773860000000  0.5074150000000 1.0
C      1  0.4516320000000  0.5732480000000  0.5096240000000 1.0
C      1  0.5564580000000  0.4573540000000  0.5559290000000 1.0
C      1  0.4754560000000  0.4284440000000  0.5624650000000 1.0
C      1  0.4236350000000  0.5005690000000  0.5628140000000 1.0
C      1  0.4821270000000  0.5678200000000  0.5532760000000 1.0
C      1  0.5623860000000  0.5411240000000  0.5637420000000 1.0
C      1  0.5159160000000  0.4727660000000  0.5164690000000 1.0
C      1  0.4873040000000  0.4570950000000  0.5221170000000 1.0
C      1  0.4552660000000  0.4969740000000  0.5204690000000 1.0
C      1  0.5016740000000  0.5372110000000  0.5139960000000 1.0
C      1  0.5348190000000  0.5333720000000  0.5073650000000 1.0
C      1  0.4738420000000  0.4911140000000  0.4319510000000 1.0
C      1  0.5111620000000  0.5361730000000  0.4535950000000 1.0
C      1  0.5283590000000  0.5067140000000  0.4328850000000 1.0
C      1  0.5029000000000  0.4748980000000  0.4541190000000 1.0
C      1  0.4638470000000  0.4678920000000  0.4529800000000 1.0
C      1  0.4106120000000  0.4754110000000  0.5616500000000 1.0
C      1  0.4554840000000  0.5740980000000  0.5584280000000 1.0
C      1  0.5579380000000  0.5689720000000  0.5666980000000 1.0
C      1  0.5816800000000  0.4675060000000  0.5587050000000 1.0
C      1  0.4970500000000  0.4099420000000  0.5609310000000 1.0
C      1  0.5073850000000  0.5677540000000  0.5658150000000 1.0
C      1  0.5697620000000  0.5159740000000  0.5730550000000 1.0
C      1  0.5382160000000  0.4405430000000  0.5691970000000 1.0
C      1  0.4515800000000  0.4451290000000  0.5719450000000 1.0
C      1  0.4344820000000  0.5273250000000  0.5718790000000 1.0
C      1  0.4831090000000  0.5171150000000  0.4031380000000 1.0
C      1  0.5132520000000  0.5216200000000  0.4058580000000 1.0
C      1  0.5305600000000  0.4956590000000  0.3947250000000 1.0
C      1  0.5098690000000  0.4745450000000  0.3963860000000 1.0
C      1  0.4812690000000  0.4855450000000  0.3992420000000 1.0
C      1  0.5409800000000  0.5838590000000  0.4599380000000 1.0
C      1  0.5606440000000  0.4774340000000  0.4620150000000 1.0
C      1  0.5057300000000  0.4276760000000  0.4510140000000 1.0
C      1  0.4165220000000  0.4730420000000  0.4417310000000 1.0
C      1  0.4655690000000  0.5533150000000  0.4656570000000 1.0
C      1  0.4989170000000  0.5052840000000  0.4463740000000 1.0
C      1  0.5098690000000  0.5055310000000  0.5232790000000 1.0
END
