TITL C-3289331-6719-336 -8.19238684862674e-05 125000 -304.072849727613 0 0 64 (C1) n - 1
REM
REM in /nfs/bkarasulu/CARBON/AIRSS/Generating-Clusters/AIREBO/with-SteepDescent/Higher-Symm/SD-CG/HFTN-CG
REM
REM
REM
REM
REM
REM ./C.cell (b20cbc046b6831c77cfcea5457e17084)
REM
REM compiler GCC version 9.2.1 20190827 (Red Hat 9.2.1-1)
REM options -cpp -mtune=generic -march=x86-64 -g -O0 -fpre-include=/usr/include/finclude/math-vector-fortran.h
REM seed -1830916625 -1867640934 -1741080085 373912790 40945562 -1894823731 1376798185 -2001219248 -597161048 112197700 1588524553 -910938062 1917185486 -825630506 -401880319 527677423 -126926677 -1862939206 964839922 392092784 946896091 261208739 1661560541 -302682928 1203251194 -1197533606 -91372668 -1847266536 -119166041 1751304240 1907439282 -1270329508 1023587918
REM
CELL 1.54180   50.00000   50.00000   50.00000   90.00000   90.00000   90.00000
LATT -1
SFAC C  
C      1  0.5085830000000  0.5367680000000  0.5388290000000 1.0
C      1  0.4461440000000  0.4858230000000  0.5300390000000 1.0
C      1  0.5298160000000  0.4729530000000  0.5388050000000 1.0
C      1  0.4918970000000  0.5365540000000  0.4570940000000 1.0
C      1  0.5541490000000  0.4860020000000  0.4657890000000 1.0
C      1  0.4705910000000  0.4728680000000  0.4570830000000 1.0
C      1  0.5002670000000  0.4706690000000  0.4585790000000 1.0
C      1  0.5392210000000  0.5138060000000  0.4550120000000 1.0
C      1  0.4632320000000  0.5315300000000  0.4585410000000 1.0
C      1  0.5001570000000  0.4706010000000  0.5373210000000 1.0
C      1  0.4610550000000  0.5135950000000  0.5408450000000 1.0
C      1  0.5372150000000  0.5316350000000  0.5373710000000 1.0
C      1  0.5299830000000  0.4646100000000  0.4149040000000 1.0
C      1  0.5203560000000  0.5742110000000  0.4406650000000 1.0
C      1  0.4399530000000  0.4750850000000  0.4316310000000 1.0
C      1  0.4703440000000  0.4645440000000  0.5809740000000 1.0
C      1  0.4802880000000  0.5745070000000  0.5553530000000 1.0
C      1  0.5604540000000  0.4751520000000  0.5642560000000 1.0
C      1  0.4784470000000  0.5341780000000  0.5828520000000 1.0
C      1  0.4938170000000  0.4271550000000  0.5647520000000 1.0
C      1  0.5479940000000  0.5204150000000  0.5741030000000 1.0
C      1  0.5224040000000  0.5340230000000  0.4132390000000 1.0
C      1  0.5065960000000  0.4271960000000  0.4312000000000 1.0
C      1  0.4523500000000  0.5203760000000  0.4218190000000 1.0
C      1  0.5456720000000  0.4530470000000  0.5572760000000 1.0
C      1  0.4962540000000  0.5676880000000  0.5309010000000 1.0
C      1  0.4232900000000  0.4782350000000  0.5403520000000 1.0
C      1  0.4547660000000  0.4529850000000  0.4385650000000 1.0
C      1  0.5040740000000  0.5675120000000  0.4648930000000 1.0
C      1  0.5769920000000  0.4784440000000  0.4554200000000 1.0
C      1  0.4457090000000  0.5554300000000  0.4516420000000 1.0
C      1  0.5274330000000  0.4326520000000  0.4859570000000 1.0
C      1  0.5652200000000  0.5220670000000  0.4402670000000 1.0
C      1  0.5548190000000  0.5554860000000  0.5442480000000 1.0
C      1  0.4730680000000  0.4325620000000  0.5099320000000 1.0
C      1  0.4350290000000  0.5219060000000  0.5555760000000 1.0
C      1  0.4913140000000  0.4614810000000  0.5096540000000 1.0
C      1  0.5455840000000  0.5161880000000  0.5114780000000 1.0
C      1  0.4642460000000  0.5269380000000  0.5097280000000 1.0
C      1  0.5091090000000  0.4615240000000  0.4862460000000 1.0
C      1  0.4548050000000  0.5161000000000  0.4844410000000 1.0
C      1  0.5361330000000  0.5270250000000  0.4861910000000 1.0
C      1  0.5082740000000  0.5418550000000  0.4858260000000 1.0
C      1  0.4553890000000  0.4835970000000  0.4814130000000 1.0
C      1  0.5401260000000  0.4703320000000  0.4889590000000 1.0
C      1  0.4921160000000  0.5418900000000  0.5101150000000 1.0
C      1  0.5450020000000  0.4836970000000  0.5144720000000 1.0
C      1  0.4602690000000  0.4702040000000  0.5069100000000 1.0
C      1  0.5730910000000  0.5004840000000  0.5205310000000 1.0
C      1  0.4273060000000  0.5004050000000  0.4753540000000 1.0
C      1  0.5383760000000  0.4496290000000  0.4620380000000 1.0
C      1  0.4582480000000  0.5516460000000  0.5290150000000 1.0
C      1  0.4620590000000  0.4495180000000  0.5338410000000 1.0
C      1  0.5429730000000  0.5517270000000  0.4670370000000 1.0
C      1  0.4784090000000  0.5405580000000  0.5540580000000 1.0
C      1  0.5221910000000  0.5402640000000  0.4420830000000 1.0
C      1  0.5188990000000  0.4519220000000  0.4373410000000 1.0
C      1  0.4814940000000  0.4518620000000  0.5585680000000 1.0
C      1  0.5494780000000  0.5023500000000  0.5495520000000 1.0
C      1  0.4509320000000  0.5022670000000  0.4463410000000 1.0
C      1  0.5076370000000  0.4975900000000  0.4171640000000 1.0
C      1  0.4926260000000  0.4975700000000  0.5787670000000 1.0
C      1  0.5150710000000  0.4936870000000  0.4422580000000 1.0
C      1  0.4851860000000  0.4934540000000  0.5537020000000 1.0
END
