TITL C-3289332-8317-345 -0.000335979689452625 125000 -932.59014654766 0 0 179 (C1) n - 1
REM
REM in /nfs/bkarasulu/CARBON/AIRSS/Generating-Clusters/AIREBO/with-SteepDescent/Higher-Symm/SD-CG/HFTN-CG
REM
REM
REM
REM
REM
REM ./C.cell (b20cbc046b6831c77cfcea5457e17084)
REM
REM compiler GCC version 9.2.1 20190827 (Red Hat 9.2.1-1)
REM options -cpp -mtune=generic -march=x86-64 -g -O0 -fpre-include=/usr/include/finclude/math-vector-fortran.h
REM seed -542402448 -598062823 993665220 -702224034 -706626854 1242176636 -1349420520 2068421599 -1099889912 -1552171093 1888536527 -1195604343 1718469738 -1292868414 -108052666 750796477 922008803 -1825580524 -1751700934 -1391887452 -705602061 -1452243997 1426715664 388116095 -1337353758 -5271197 739963560 -1863624908 -698297187 1673917816 1587423419 1950359568 1072418133
REM
CELL 1.54180   50.00000   50.00000   50.00000   90.00000   90.00000   90.00000
LATT -1
SFAC C  
C      1  0.4431660000000  0.4233960000000  0.5572380000000 1.0
C      1  0.5715850000000  0.5122320000000  0.4212150000000 1.0
C      1  0.5718140000000  0.5589500000000  0.4450950000000 1.0
C      1  0.4697450000000  0.4745060000000  0.4320670000000 1.0
C      1  0.4265600000000  0.4480130000000  0.5435870000000 1.0
C      1  0.5729810000000  0.5656170000000  0.4841990000000 1.0
C      1  0.4647150000000  0.5636050000000  0.5939070000000 1.0
C      1  0.5140060000000  0.5111260000000  0.6134760000000 1.0
C      1  0.3915700000000  0.4834180000000  0.5553700000000 1.0
C      1  0.4622230000000  0.5800620000000  0.5433400000000 1.0
C      1  0.5830810000000  0.5611840000000  0.5169560000000 1.0
C      1  0.4956450000000  0.4904040000000  0.6095840000000 1.0
C      1  0.4706850000000  0.5693140000000  0.5021170000000 1.0
C      1  0.4314350000000  0.5226800000000  0.4757710000000 1.0
C      1  0.4564830000000  0.4218490000000  0.4452810000000 1.0
C      1  0.4640200000000  0.5222600000000  0.4214840000000 1.0
C      1  0.4264140000000  0.5095400000000  0.4207470000000 1.0
C      1  0.4395690000000  0.4100570000000  0.4723850000000 1.0
C      1  0.5125550000000  0.3925930000000  0.4846320000000 1.0
C      1  0.5669970000000  0.4469910000000  0.5467710000000 1.0
C      1  0.4405790000000  0.5069170000000  0.6072020000000 1.0
C      1  0.4336010000000  0.4173130000000  0.5051430000000 1.0
C      1  0.4652030000000  0.6026090000000  0.5062860000000 1.0
C      1  0.5890500000000  0.4798060000000  0.5505730000000 1.0
C      1  0.5412920000000  0.5833620000000  0.5215800000000 1.0
C      1  0.4835550000000  0.5430400000000  0.3937180000000 1.0
C      1  0.5554050000000  0.4770790000000  0.5904580000000 1.0
C      1  0.4921830000000  0.4720690000000  0.3918490000000 1.0
C      1  0.5198250000000  0.4380850000000  0.5690680000000 1.0
C      1  0.4366680000000  0.4485010000000  0.5752180000000 1.0
C      1  0.5781580000000  0.4625890000000  0.5748850000000 1.0
C      1  0.6019010000000  0.5477210000000  0.4834450000000 1.0
C      1  0.5297930000000  0.4437400000000  0.4305580000000 1.0
C      1  0.5079620000000  0.5571660000000  0.4220330000000 1.0
C      1  0.5215590000000  0.5254840000000  0.5745170000000 1.0
C      1  0.5110580000000  0.5018660000000  0.5124600000000 1.0
C      1  0.4823670000000  0.5793600000000  0.5707800000000 1.0
C      1  0.4563890000000  0.4807160000000  0.4609240000000 1.0
C      1  0.4815720000000  0.4676830000000  0.4763420000000 1.0
C      1  0.5735540000000  0.4135920000000  0.4796310000000 1.0
C      1  0.6214540000000  0.5132770000000  0.5134710000000 1.0
C      1  0.4918160000000  0.3922590000000  0.5276080000000 1.0
C      1  0.4511160000000  0.5366180000000  0.5949620000000 1.0
C      1  0.5182420000000  0.4670900000000  0.5512940000000 1.0
C      1  0.5327020000000  0.4659800000000  0.4566070000000 1.0
C      1  0.3904990000000  0.5066150000000  0.4459050000000 1.0
C      1  0.4594250000000  0.5570220000000  0.4616220000000 1.0
C      1  0.4536560000000  0.4690350000000  0.5816950000000 1.0
C      1  0.4702750000000  0.4212040000000  0.5448560000000 1.0
C      1  0.4734270000000  0.4678320000000  0.6055770000000 1.0
C      1  0.5111470000000  0.4686150000000  0.5196030000000 1.0
C      1  0.5499640000000  0.5784060000000  0.4624520000000 1.0
C      1  0.4480760000000  0.5047550000000  0.4000740000000 1.0
C      1  0.4666490000000  0.5850240000000  0.4214430000000 1.0
C      1  0.5918400000000  0.5135580000000  0.5291690000000 1.0
C      1  0.5476190000000  0.4254720000000  0.4612180000000 1.0
C      1  0.5476750000000  0.5379080000000  0.5924060000000 1.0
C      1  0.5627690000000  0.5483960000000  0.5635970000000 1.0
C      1  0.5745890000000  0.4888620000000  0.5130680000000 1.0
C      1  0.5085150000000  0.4198180000000  0.4284990000000 1.0
C      1  0.4854570000000  0.4455270000000  0.5872270000000 1.0
C      1  0.5149520000000  0.5442650000000  0.4606310000000 1.0
C      1  0.4920220000000  0.4209460000000  0.5688850000000 1.0
C      1  0.5041660000000  0.5372830000000  0.6103270000000 1.0
C      1  0.4063130000000  0.5528810000000  0.5038580000000 1.0
C      1  0.5074540000000  0.5121800000000  0.4561930000000 1.0
C      1  0.4485830000000  0.5368130000000  0.5553980000000 1.0
C      1  0.4971220000000  0.4057950000000  0.4573560000000 1.0
C      1  0.4539610000000  0.5404000000000  0.5058980000000 1.0
C      1  0.3950180000000  0.4702060000000  0.5253810000000 1.0
C      1  0.5684440000000  0.4460970000000  0.4772090000000 1.0
C      1  0.4787090000000  0.4417890000000  0.4944490000000 1.0
C      1  0.5306390000000  0.4400910000000  0.5168470000000 1.0
C      1  0.5072960000000  0.5314140000000  0.4973280000000 1.0
C      1  0.5217130000000  0.4682330000000  0.4083630000000 1.0
C      1  0.4313410000000  0.4610200000000  0.4728070000000 1.0
C      1  0.5730590000000  0.4698060000000  0.4074590000000 1.0
C      1  0.6110080000000  0.4982460000000  0.4661640000000 1.0
C      1  0.4607990000000  0.5060180000000  0.4831940000000 1.0
C      1  0.4963780000000  0.6054030000000  0.5191560000000 1.0
C      1  0.4042160000000  0.4550650000000  0.4897120000000 1.0
C      1  0.4984690000000  0.5710780000000  0.4734960000000 1.0
C      1  0.4944840000000  0.3913950000000  0.5551110000000 1.0
C      1  0.5556680000000  0.4794890000000  0.5467910000000 1.0
C      1  0.4886340000000  0.5026950000000  0.4294990000000 1.0
C      1  0.4192820000000  0.4584040000000  0.4324100000000 1.0
C      1  0.4617190000000  0.4905210000000  0.5134550000000 1.0
C      1  0.6207480000000  0.5207610000000  0.4863160000000 1.0
C      1  0.4465210000000  0.4453300000000  0.4969610000000 1.0
C      1  0.4105190000000  0.5023780000000  0.5620240000000 1.0
C      1  0.5288770000000  0.5137210000000  0.3936700000000 1.0
C      1  0.4625620000000  0.6089090000000  0.4134990000000 1.0
C      1  0.4786440000000  0.4438200000000  0.5257720000000 1.0
C      1  0.5436360000000  0.4996160000000  0.5221630000000 1.0
C      1  0.4437550000000  0.5412860000000  0.4377620000000 1.0
C      1  0.5574110000000  0.4604920000000  0.5054470000000 1.0
C      1  0.5450190000000  0.5069100000000  0.6036870000000 1.0
C      1  0.4386500000000  0.5831680000000  0.5288390000000 1.0
C      1  0.4781750000000  0.5393140000000  0.5571740000000 1.0
C      1  0.5834950000000  0.5253920000000  0.4997050000000 1.0
C      1  0.5890840000000  0.5433430000000  0.5453310000000 1.0
C      1  0.4330020000000  0.4939180000000  0.4445610000000 1.0
C      1  0.4987070000000  0.5591890000000  0.5055710000000 1.0
C      1  0.5825710000000  0.5337270000000  0.4606400000000 1.0
C      1  0.4108640000000  0.4415740000000  0.5156740000000 1.0
C      1  0.4719030000000  0.5182920000000  0.5196010000000 1.0
C      1  0.6031200000000  0.4753990000000  0.5257790000000 1.0
C      1  0.4409950000000  0.4682210000000  0.4150140000000 1.0
C      1  0.4129360000000  0.4972590000000  0.4847970000000 1.0
C      1  0.4000870000000  0.5237820000000  0.5117450000000 1.0
C      1  0.5643160000000  0.5061390000000  0.5756930000000 1.0
C      1  0.4631870000000  0.5075430000000  0.5818090000000 1.0
C      1  0.4156260000000  0.5295190000000  0.4460850000000 1.0
C      1  0.5358290000000  0.5338580000000  0.4831310000000 1.0
C      1  0.5158380000000  0.3952060000000  0.5127940000000 1.0
C      1  0.4072570000000  0.4790420000000  0.4566400000000 1.0
C      1  0.4223220000000  0.4852090000000  0.5146370000000 1.0
C      1  0.5226120000000  0.5999780000000  0.5062370000000 1.0
C      1  0.5185610000000  0.4288210000000  0.4657110000000 1.0
C      1  0.4960460000000  0.4514210000000  0.4532970000000 1.0
C      1  0.4854980000000  0.5671970000000  0.4422880000000 1.0
C      1  0.4748430000000  0.4407400000000  0.4324870000000 1.0
C      1  0.4974400000000  0.5177250000000  0.5393050000000 1.0
C      1  0.4338120000000  0.5003320000000  0.5403030000000 1.0
C      1  0.5587730000000  0.4316130000000  0.4307860000000 1.0
C      1  0.5361970000000  0.5068450000000  0.4387310000000 1.0
C      1  0.4364270000000  0.5870080000000  0.4970030000000 1.0
C      1  0.5052650000000  0.5253540000000  0.4103310000000 1.0
C      1  0.5282300000000  0.4690070000000  0.4901830000000 1.0
C      1  0.5241860000000  0.5905050000000  0.4785940000000 1.0
C      1  0.5224500000000  0.5399680000000  0.5442480000000 1.0
C      1  0.5104680000000  0.4400650000000  0.4919260000000 1.0
C      1  0.4726200000000  0.4114850000000  0.4802840000000 1.0
C      1  0.5563770000000  0.4863030000000  0.4556470000000 1.0
C      1  0.5464060000000  0.5756330000000  0.5543180000000 1.0
C      1  0.4176320000000  0.5634910000000  0.5311190000000 1.0
C      1  0.5603740000000  0.5359570000000  0.5191560000000 1.0
C      1  0.4804080000000  0.4731110000000  0.5334540000000 1.0
C      1  0.5354910000000  0.4122010000000  0.5251510000000 1.0
C      1  0.5002090000000  0.5518590000000  0.5798470000000 1.0
C      1  0.4584640000000  0.4879130000000  0.5544440000000 1.0
C      1  0.4970890000000  0.5986530000000  0.5468770000000 1.0
C      1  0.5526670000000  0.4175180000000  0.5467420000000 1.0
C      1  0.4609500000000  0.5553710000000  0.4131910000000 1.0
C      1  0.5148160000000  0.5720660000000  0.5486000000000 1.0
C      1  0.5317040000000  0.5643400000000  0.5828550000000 1.0
C      1  0.5809170000000  0.4662850000000  0.4559080000000 1.0
C      1  0.4491110000000  0.5891080000000  0.4571000000000 1.0
C      1  0.4893060000000  0.5608060000000  0.5361490000000 1.0
C      1  0.4925450000000  0.5014730000000  0.5687330000000 1.0
C      1  0.4293280000000  0.4358580000000  0.4530010000000 1.0
C      1  0.5527950000000  0.5353430000000  0.4304400000000 1.0
C      1  0.5898700000000  0.5062420000000  0.4419790000000 1.0
C      1  0.5116220000000  0.5765100000000  0.3981830000000 1.0
C      1  0.4652970000000  0.4080670000000  0.5138830000000 1.0
C      1  0.4942050000000  0.4966040000000  0.4833710000000 1.0
C      1  0.5461170000000  0.5593740000000  0.5028940000000 1.0
C      1  0.5775670000000  0.4526530000000  0.4283920000000 1.0
C      1  0.4297930000000  0.5318670000000  0.5282400000000 1.0
C      1  0.4773320000000  0.5356030000000  0.4816520000000 1.0
C      1  0.4641720000000  0.4795230000000  0.3930020000000 1.0
C      1  0.5327600000000  0.4580500000000  0.5933970000000 1.0
C      1  0.5333770000000  0.5584380000000  0.4399840000000 1.0
C      1  0.5092480000000  0.4768860000000  0.4367700000000 1.0
C      1  0.5050740000000  0.4727990000000  0.5819750000000 1.0
C      1  0.4334350000000  0.5557440000000  0.4835460000000 1.0
C      1  0.3862460000000  0.4970430000000  0.5058730000000 1.0
C      1  0.5828100000000  0.4420050000000  0.5184660000000 1.0
C      1  0.4273880000000  0.5236250000000  0.5743530000000 1.0
C      1  0.6061450000000  0.4560350000000  0.5024690000000 1.0
C      1  0.5467650000000  0.4911530000000  0.4104640000000 1.0
C      1  0.6058560000000  0.4671020000000  0.4768900000000 1.0
C      1  0.4885320000000  0.4252610000000  0.4071600000000 1.0
C      1  0.5508950000000  0.5206080000000  0.5479880000000 1.0
C      1  0.4439290000000  0.4635510000000  0.5204330000000 1.0
C      1  0.5826260000000  0.4990700000000  0.4826870000000 1.0
C      1  0.4717210000000  0.5918310000000  0.4766560000000 1.0
C      1  0.5293150000000  0.4969110000000  0.5593720000000 1.0
C      1  0.5569420000000  0.5164740000000  0.4713280000000 1.0
END
