TITL C-3289328-6581-599 0.000230960825290291 125000 -961.623530594567 0 0 192 (C1) n - 1
REM
REM in /nfs/bkarasulu/CARBON/AIRSS/Generating-Clusters/AIREBO/with-SteepDescent/Higher-Symm/SD-CG/HFTN-CG
REM
REM
REM
REM
REM
REM ./C.cell (b20cbc046b6831c77cfcea5457e17084)
REM
REM compiler GCC version 9.2.1 20190827 (Red Hat 9.2.1-1)
REM options -cpp -mtune=generic -march=x86-64 -g -O0 -fpre-include=/usr/include/finclude/math-vector-fortran.h
REM seed 255777797 -1000625178 -340153828 -911001014 -18022971 263139238 -1120602073 -833496807 -859047886 519226386 568644409 -720630394 -1806684401 -1275579637 1037682171 1297128875 -436163078 1710816144 -1550076272 450466091 -1966117712 -254250237 -1988322012 106793322 -1845388812 -968561472 -340680936 231052889 -358500362 1652825475 1700223534 -117427667 897357919
REM
CELL 1.54180   50.00000   50.00000   50.00000   90.00000   90.00000   90.00000
LATT -1
SFAC C  
C      1  0.4560150000000  0.5250390000000  0.5379330000000 1.0
C      1  0.5335600000000  0.4621970000000  0.5144140000000 1.0
C      1  0.5191250000000  0.5390840000000  0.4551810000000 1.0
C      1  0.4531060000000  0.4826080000000  0.4596670000000 1.0
C      1  0.5530790000000  0.4812030000000  0.5348660000000 1.0
C      1  0.5561510000000  0.5179470000000  0.4644120000000 1.0
C      1  0.5394270000000  0.5424100000000  0.4808450000000 1.0
C      1  0.4587750000000  0.5484250000000  0.5181170000000 1.0
C      1  0.4581640000000  0.4457730000000  0.4776600000000 1.0
C      1  0.5075440000000  0.4673010000000  0.5357100000000 1.0
C      1  0.4791170000000  0.4614880000000  0.4559690000000 1.0
C      1  0.4774820000000  0.5383600000000  0.5597050000000 1.0
C      1  0.5157150000000  0.5948060000000  0.5159110000000 1.0
C      1  0.5126660000000  0.5097230000000  0.6039410000000 1.0
C      1  0.6045210000000  0.5174230000000  0.5167400000000 1.0
C      1  0.5170000000000  0.4059740000000  0.4824810000000 1.0
C      1  0.4858820000000  0.3968870000000  0.5120320000000 1.0
C      1  0.4874530000000  0.5976430000000  0.4864030000000 1.0
C      1  0.5156170000000  0.4849660000000  0.4056960000000 1.0
C      1  0.4823610000000  0.4839910000000  0.5943170000000 1.0
C      1  0.4866230000000  0.5121830000000  0.4035610000000 1.0
C      1  0.6040230000000  0.4788270000000  0.4824360000000 1.0
C      1  0.4056250000000  0.4844960000000  0.5182560000000 1.0
C      1  0.4031900000000  0.5142950000000  0.4892950000000 1.0
C      1  0.4612210000000  0.3833070000000  0.5004470000000 1.0
C      1  0.5091450000000  0.4683980000000  0.3824320000000 1.0
C      1  0.3886200000000  0.4996230000000  0.4678330000000 1.0
C      1  0.4657350000000  0.6127610000000  0.5002050000000 1.0
C      1  0.5380940000000  0.6084800000000  0.5016760000000 1.0
C      1  0.5364350000000  0.3838500000000  0.4899150000000 1.0
C      1  0.4996030000000  0.5337390000000  0.6166500000000 1.0
C      1  0.4997230000000  0.5329370000000  0.3882830000000 1.0
C      1  0.4901440000000  0.4578510000000  0.6029070000000 1.0
C      1  0.3928720000000  0.4978560000000  0.5413610000000 1.0
C      1  0.6178120000000  0.4946530000000  0.4600020000000 1.0
C      1  0.6151430000000  0.5055940000000  0.5424140000000 1.0
C      1  0.4649360000000  0.5599960000000  0.5793680000000 1.0
C      1  0.5759680000000  0.4729600000000  0.5580450000000 1.0
C      1  0.5540020000000  0.5701560000000  0.4676530000000 1.0
C      1  0.4686140000000  0.4483470000000  0.4264170000000 1.0
C      1  0.5320400000000  0.4453270000000  0.5696360000000 1.0
C      1  0.5323430000000  0.5512240000000  0.4266620000000 1.0
C      1  0.5790330000000  0.5311930000000  0.4449250000000 1.0
C      1  0.4285370000000  0.5343420000000  0.5551480000000 1.0
C      1  0.4260910000000  0.4672440000000  0.4510510000000 1.0
C      1  0.5533390000000  0.4210530000000  0.5262350000000 1.0
C      1  0.4380590000000  0.4190800000000  0.4715760000000 1.0
C      1  0.4471090000000  0.5758110000000  0.5324250000000 1.0
C      1  0.4000030000000  0.5730120000000  0.5104430000000 1.0
C      1  0.5076280000000  0.4023250000000  0.5688310000000 1.0
C      1  0.5737820000000  0.5079160000000  0.4012890000000 1.0
C      1  0.3974000000000  0.4285200000000  0.4957920000000 1.0
C      1  0.5993740000000  0.4196210000000  0.5069970000000 1.0
C      1  0.5977320000000  0.5743350000000  0.4892570000000 1.0
C      1  0.5089910000000  0.5960810000000  0.4270150000000 1.0
C      1  0.4990620000000  0.5970570000000  0.5685580000000 1.0
C      1  0.4920840000000  0.4016450000000  0.4188900000000 1.0
C      1  0.5687300000000  0.4922030000000  0.5998710000000 1.0
C      1  0.4270870000000  0.4889280000000  0.3994730000000 1.0
C      1  0.4217770000000  0.5131610000000  0.5979450000000 1.0
C      1  0.5508290000000  0.4713930000000  0.5808900000000 1.0
C      1  0.5806600000000  0.5494290000000  0.4736120000000 1.0
C      1  0.4732310000000  0.5806810000000  0.5536710000000 1.0
C      1  0.5546430000000  0.5261440000000  0.4210950000000 1.0
C      1  0.4463780000000  0.5318550000000  0.5839960000000 1.0
C      1  0.4464570000000  0.4736570000000  0.4213520000000 1.0
C      1  0.5800770000000  0.4399740000000  0.5170360000000 1.0
C      1  0.4179660000000  0.4460830000000  0.4764220000000 1.0
C      1  0.4204990000000  0.5533060000000  0.5280600000000 1.0
C      1  0.4810670000000  0.4189140000000  0.4398160000000 1.0
C      1  0.5268280000000  0.4200130000000  0.5475310000000 1.0
C      1  0.5270060000000  0.5776060000000  0.4483330000000 1.0
C      1  0.4993850000000  0.5596620000000  0.5467670000000 1.0
C      1  0.5435010000000  0.4990060000000  0.5622060000000 1.0
C      1  0.5650270000000  0.5433610000000  0.5032080000000 1.0
C      1  0.5051860000000  0.4403250000000  0.4505980000000 1.0
C      1  0.4978350000000  0.4368650000000  0.5417930000000 1.0
C      1  0.4967420000000  0.5627610000000  0.4529130000000 1.0
C      1  0.5487990000000  0.4980790000000  0.4394020000000 1.0
C      1  0.4533250000000  0.5015840000000  0.5701070000000 1.0
C      1  0.4529500000000  0.5039540000000  0.4354030000000 1.0
C      1  0.5600860000000  0.4554140000000  0.4942480000000 1.0
C      1  0.4376210000000  0.4500720000000  0.5041080000000 1.0
C      1  0.4342920000000  0.5483320000000  0.4973590000000 1.0
C      1  0.5041890000000  0.5184090000000  0.5378110000000 1.0
C      1  0.5363430000000  0.5156030000000  0.5020590000000 1.0
C      1  0.5116620000000  0.5325090000000  0.5115520000000 1.0
C      1  0.5090220000000  0.4885190000000  0.4691410000000 1.0
C      1  0.4788040000000  0.5024320000000  0.5367340000000 1.0
C      1  0.4864720000000  0.5091150000000  0.4632130000000 1.0
C      1  0.5332540000000  0.4873730000000  0.4905090000000 1.0
C      1  0.4670620000000  0.4902460000000  0.5105460000000 1.0
C      1  0.4659540000000  0.5111130000000  0.4876250000000 1.0
C      1  0.4994820000000  0.4619580000000  0.4836970000000 1.0
C      1  0.4858630000000  0.4638680000000  0.5105600000000 1.0
C      1  0.4866130000000  0.5364120000000  0.4920950000000 1.0
C      1  0.6000240000000  0.5066140000000  0.4414500000000 1.0
C      1  0.4450970000000  0.5960400000000  0.5073720000000 1.0
C      1  0.5063450000000  0.4420630000000  0.5833920000000 1.0
C      1  0.5960850000000  0.4973660000000  0.5601280000000 1.0
C      1  0.4061230000000  0.4917900000000  0.4478560000000 1.0
C      1  0.4124810000000  0.5068860000000  0.5591230000000 1.0
C      1  0.4393360000000  0.3996000000000  0.4961990000000 1.0
C      1  0.5526370000000  0.4065940000000  0.5004240000000 1.0
C      1  0.5564060000000  0.5894500000000  0.4932630000000 1.0
C      1  0.5085880000000  0.5530870000000  0.4049030000000 1.0
C      1  0.4922080000000  0.5526940000000  0.5983360000000 1.0
C      1  0.4935970000000  0.4516880000000  0.4052220000000 1.0
C      1  0.5775070000000  0.4840870000000  0.4428000000000 1.0
C      1  0.4433520000000  0.5752920000000  0.4839960000000 1.0
C      1  0.4775600000000  0.4473540000000  0.5664280000000 1.0
C      1  0.5704590000000  0.5145850000000  0.5556720000000 1.0
C      1  0.4254640000000  0.5166350000000  0.4457510000000 1.0
C      1  0.4323430000000  0.4808420000000  0.5568860000000 1.0
C      1  0.4398750000000  0.4211450000000  0.5178550000000 1.0
C      1  0.5549240000000  0.4276080000000  0.4789610000000 1.0
C      1  0.5566570000000  0.5698760000000  0.5184000000000 1.0
C      1  0.4849540000000  0.5569250000000  0.4243570000000 1.0
C      1  0.5135410000000  0.5529630000000  0.5767060000000 1.0
C      1  0.5198860000000  0.4498530000000  0.4243240000000 1.0
C      1  0.5829350000000  0.5037830000000  0.4771580000000 1.0
C      1  0.4766620000000  0.5718150000000  0.5057180000000 1.0
C      1  0.5026000000000  0.4784430000000  0.5675400000000 1.0
C      1  0.5831150000000  0.4917300000000  0.5229070000000 1.0
C      1  0.4299520000000  0.4957240000000  0.4794930000000 1.0
C      1  0.4324410000000  0.5044050000000  0.5246980000000 1.0
C      1  0.4728250000000  0.4204500000000  0.4912890000000 1.0
C      1  0.5219820000000  0.4318760000000  0.5040320000000 1.0
C      1  0.5231810000000  0.5677040000000  0.4967510000000 1.0
C      1  0.5046400000000  0.5226880000000  0.4304310000000 1.0
C      1  0.4931240000000  0.5186260000000  0.5775810000000 1.0
C      1  0.4955390000000  0.4801320000000  0.4327480000000 1.0
C      1  0.5260560000000  0.5583870000000  0.5282850000000 1.0
C      1  0.5233040000000  0.5233410000000  0.5630210000000 1.0
C      1  0.5619690000000  0.5183570000000  0.5232740000000 1.0
C      1  0.5261790000000  0.4435690000000  0.4734240000000 1.0
C      1  0.4705490000000  0.4355340000000  0.5215110000000 1.0
C      1  0.4736450000000  0.5622480000000  0.4741600000000 1.0
C      1  0.5273840000000  0.4776250000000  0.4429740000000 1.0
C      1  0.4720720000000  0.4776810000000  0.5564210000000 1.0
C      1  0.4734980000000  0.5277080000000  0.4378330000000 1.0
C      1  0.5608800000000  0.4791400000000  0.4724730000000 1.0
C      1  0.4426840000000  0.4720000000000  0.5256830000000 1.0
C      1  0.4383920000000  0.5270550000000  0.4756650000000 1.0
C      1  0.5975890000000  0.4163580000000  0.4411940000000 1.0
C      1  0.4458690000000  0.5809080000000  0.4364570000000 1.0
C      1  0.4273340000000  0.4579550000000  0.5748150000000 1.0
C      1  0.5737410000000  0.5844770000000  0.5413830000000 1.0
C      1  0.4190610000000  0.5638870000000  0.4373930000000 1.0
C      1  0.4256800000000  0.4260890000000  0.5661350000000 1.0
C      1  0.4533630000000  0.4367590000000  0.5806940000000 1.0
C      1  0.5681320000000  0.4348080000000  0.4281660000000 1.0
C      1  0.5449320000000  0.5835030000000  0.5583020000000 1.0
C      1  0.4121690000000  0.5386880000000  0.4305100000000 1.0
C      1  0.5688710000000  0.5653030000000  0.5670600000000 1.0
C      1  0.5858460000000  0.4607140000000  0.4269690000000 1.0
C      1  0.4331010000000  0.5508600000000  0.6078330000000 1.0
C      1  0.5884130000000  0.4467280000000  0.5483800000000 1.0
C      1  0.5484680000000  0.6011500000000  0.4388020000000 1.0
C      1  0.4357990000000  0.4479810000000  0.4022360000000 1.0
C      1  0.5607890000000  0.4501600000000  0.6034380000000 1.0
C      1  0.5626610000000  0.5489920000000  0.3983180000000 1.0
C      1  0.6065860000000  0.5610900000000  0.4549460000000 1.0
C      1  0.3979070000000  0.5630770000000  0.5505970000000 1.0
C      1  0.3933060000000  0.4399210000000  0.4552480000000 1.0
C      1  0.5471410000000  0.3964690000000  0.5600180000000 1.0
C      1  0.4501100000000  0.4077060000000  0.4456570000000 1.0
C      1  0.4564820000000  0.6066850000000  0.5641160000000 1.0
C      1  0.5954450000000  0.4687060000000  0.5073170000000 1.0
C      1  0.5128750000000  0.5905600000000  0.4764240000000 1.0
C      1  0.4695250000000  0.5130660000000  0.6003780000000 1.0
C      1  0.5988430000000  0.5263300000000  0.4907220000000 1.0
C      1  0.4083760000000  0.5241230000000  0.5154860000000 1.0
C      1  0.4091100000000  0.4750710000000  0.4918350000000 1.0
C      1  0.5106310000000  0.4050800000000  0.5216220000000 1.0
C      1  0.4917200000000  0.4082140000000  0.4702850000000 1.0
C      1  0.4892130000000  0.5921050000000  0.5259000000000 1.0
C      1  0.4756730000000  0.4837010000000  0.4071270000000 1.0
C      1  0.5220070000000  0.4849680000000  0.5927280000000 1.0
C      1  0.5260690000000  0.5117060000000  0.4096150000000 1.0
C      1  0.4262880000000  0.5843740000000  0.4605940000000 1.0
C      1  0.4586230000000  0.4258820000000  0.6084070000000 1.0
C      1  0.6074910000000  0.4410610000000  0.4290190000000 1.0
C      1  0.4237920000000  0.4131350000000  0.5420890000000 1.0
C      1  0.5708700000000  0.4200370000000  0.4560020000000 1.0
C      1  0.5956350000000  0.5996350000000  0.5359940000000 1.0
C      1  0.4639420000000  0.5776900000000  0.4163220000000 1.0
C      1  0.5218480000000  0.5821850000000  0.5709550000000 1.0
C      1  0.5426190000000  0.4344190000000  0.4146800000000 1.0
C      1  0.5738030000000  0.5402880000000  0.5716680000000 1.0
C      1  0.3964540000000  0.5322110000000  0.4090140000000 1.0
C      1  0.3991460000000  0.4444700000000  0.5836330000000 1.0
END
