TITL C-3289335-9438-143 -14.5260462300954 125000 -958.158543214243 0 0 171 (C1) n - 1
REM
REM in /nfs/bkarasulu/CARBON/AIRSS/Generating-Clusters/AIREBO/with-SteepDescent/Higher-Symm/SD-CG/HFTN-CG
REM
REM
REM
REM
REM
REM ./C.cell (b20cbc046b6831c77cfcea5457e17084)
REM
REM compiler GCC version 9.2.1 20190827 (Red Hat 9.2.1-1)
REM options -cpp -mtune=generic -march=x86-64 -g -O0 -fpre-include=/usr/include/finclude/math-vector-fortran.h
REM seed 278186519 959057510 -1285040399 -655656460 1919697585 989869369 -1811723185 -1892295216 1781780278 -1882593617 -1023114674 1089486341 -858821772 -1602861171 -110098222 1460447110 -1600100083 -1793596187 313735249 1494336439 -1772152662 -885382312 2064232156 1144253316 -1935630906 1083485507 182293306 -60375133 -2071342686 1191767512 1764271230 1736494496 1354129945
REM
CELL 1.54180   50.00000   50.00000   50.00000   90.00000   90.00000   90.00000
LATT -1
SFAC C  
C      1  0.4579100000000  0.4339200000000  0.5410580000000 1.0
C      1  0.5382410000000  0.4327660000000  0.4676490000000 1.0
C      1  0.4670310000000  0.4333340000000  0.4632100000000 1.0
C      1  0.5322330000000  0.4303950000000  0.5327690000000 1.0
C      1  0.3968140000000  0.5085560000000  0.4472660000000 1.0
C      1  0.5902090000000  0.5074500000000  0.5476480000000 1.0
C      1  0.3995210000000  0.5079680000000  0.5493200000000 1.0
C      1  0.6027760000000  0.4944280000000  0.4584670000000 1.0
C      1  0.4600360000000  0.4767880000000  0.5938340000000 1.0
C      1  0.5327800000000  0.4813960000000  0.4147260000000 1.0
C      1  0.4717530000000  0.4833450000000  0.4272660000000 1.0
C      1  0.5318610000000  0.4749360000000  0.5740140000000 1.0
C      1  0.5723820000000  0.5433460000000  0.4359600000000 1.0
C      1  0.4242160000000  0.5381010000000  0.5681800000000 1.0
C      1  0.5656950000000  0.5556630000000  0.5667700000000 1.0
C      1  0.4252590000000  0.5478600000000  0.4297290000000 1.0
C      1  0.4235160000000  0.5086670000000  0.5867340000000 1.0
C      1  0.5759290000000  0.5053730000000  0.4068770000000 1.0
C      1  0.4359980000000  0.5131420000000  0.4092220000000 1.0
C      1  0.5686390000000  0.5109580000000  0.5896260000000 1.0
C      1  0.5766560000000  0.4181110000000  0.5156990000000 1.0
C      1  0.4254170000000  0.4222680000000  0.4909590000000 1.0
C      1  0.5830570000000  0.4141950000000  0.4873660000000 1.0
C      1  0.4172590000000  0.4159410000000  0.5184950000000 1.0
C      1  0.5138500000000  0.4284910000000  0.5600150000000 1.0
C      1  0.4831400000000  0.4318240000000  0.4377080000000 1.0
C      1  0.5173330000000  0.4335250000000  0.4408340000000 1.0
C      1  0.4807420000000  0.4357410000000  0.5627790000000 1.0
C      1  0.4849520000000  0.4479950000000  0.5116860000000 1.0
C      1  0.5169650000000  0.4611130000000  0.4917080000000 1.0
C      1  0.4873300000000  0.4624000000000  0.4815290000000 1.0
C      1  0.5123270000000  0.4642560000000  0.5252450000000 1.0
C      1  0.4736570000000  0.5603890000000  0.4405530000000 1.0
C      1  0.5269700000000  0.5710990000000  0.5355290000000 1.0
C      1  0.4798290000000  0.5630200000000  0.5384010000000 1.0
C      1  0.5249980000000  0.5654590000000  0.4579830000000 1.0
C      1  0.5799790000000  0.4847410000000  0.4816570000000 1.0
C      1  0.4276560000000  0.5043720000000  0.5133630000000 1.0
C      1  0.5771550000000  0.4935340000000  0.5127170000000 1.0
C      1  0.4190000000000  0.5002370000000  0.4869120000000 1.0
C      1  0.4421570000000  0.5731160000000  0.4439460000000 1.0
C      1  0.5558520000000  0.5755630000000  0.5512140000000 1.0
C      1  0.4373980000000  0.5606110000000  0.5479770000000 1.0
C      1  0.5533260000000  0.5693620000000  0.4400880000000 1.0
C      1  0.4718560000000  0.5489410000000  0.4719700000000 1.0
C      1  0.5243320000000  0.5463490000000  0.5123560000000 1.0
C      1  0.4726210000000  0.5360450000000  0.5210060000000 1.0
C      1  0.5297950000000  0.5428610000000  0.4788750000000 1.0
C      1  0.5147670000000  0.5477720000000  0.5929280000000 1.0
C      1  0.4610830000000  0.5952040000000  0.3929280000000 1.0
C      1  0.5207100000000  0.5532630000000  0.4080560000000 1.0
C      1  0.4841300000000  0.5453100000000  0.5945710000000 1.0
C      1  0.5721640000000  0.4480800000000  0.4531860000000 1.0
C      1  0.4290900000000  0.4591640000000  0.5531600000000 1.0
C      1  0.5770450000000  0.4583030000000  0.5527530000000 1.0
C      1  0.4218980000000  0.4591420000000  0.4547210000000 1.0
C      1  0.5631180000000  0.5314440000000  0.4076330000000 1.0
C      1  0.4487660000000  0.5289820000000  0.5897850000000 1.0
C      1  0.5533700000000  0.5390240000000  0.5919140000000 1.0
C      1  0.4541780000000  0.5386690000000  0.4134070000000 1.0
C      1  0.5728990000000  0.5381970000000  0.5215940000000 1.0
C      1  0.4228170000000  0.5399290000000  0.4896650000000 1.0
C      1  0.5745050000000  0.5352660000000  0.4744330000000 1.0
C      1  0.4390560000000  0.5421310000000  0.5194730000000 1.0
C      1  0.5439110000000  0.4943310000000  0.5198910000000 1.0
C      1  0.4524900000000  0.4954300000000  0.4834910000000 1.0
C      1  0.5473910000000  0.4931960000000  0.4864090000000 1.0
C      1  0.4551810000000  0.4894690000000  0.5174050000000 1.0
C      1  0.5094500000000  0.5723580000000  0.4278830000000 1.0
C      1  0.4889240000000  0.5626820000000  0.5668070000000 1.0
C      1  0.5193050000000  0.5711320000000  0.5668000000000 1.0
C      1  0.4802430000000  0.5825600000000  0.4156260000000 1.0
C      1  0.5431700000000  0.5258660000000  0.5325970000000 1.0
C      1  0.4464620000000  0.5264380000000  0.4708910000000 1.0
C      1  0.5472800000000  0.5177910000000  0.4639530000000 1.0
C      1  0.4645100000000  0.5093090000000  0.5403870000000 1.0
C      1  0.4695360000000  0.4382500000000  0.5945130000000 1.0
C      1  0.5306480000000  0.4416610000000  0.4111800000000 1.0
C      1  0.4683410000000  0.4454830000000  0.4154760000000 1.0
C      1  0.5333880000000  0.4367730000000  0.5854040000000 1.0
C      1  0.5783720000000  0.4779160000000  0.4424410000000 1.0
C      1  0.4172180000000  0.4840350000000  0.5559220000000 1.0
C      1  0.5928710000000  0.4816890000000  0.5554260000000 1.0
C      1  0.4214140000000  0.4883310000000  0.4392370000000 1.0
C      1  0.4910050000000  0.4767690000000  0.4519830000000 1.0
C      1  0.5108990000000  0.4614220000000  0.5574270000000 1.0
C      1  0.4821570000000  0.4703140000000  0.5688240000000 1.0
C      1  0.5205340000000  0.4673450000000  0.4424010000000 1.0
C      1  0.4492130000000  0.5708210000000  0.4107640000000 1.0
C      1  0.5400640000000  0.5701880000000  0.5937220000000 1.0
C      1  0.4573450000000  0.5586490000000  0.5755400000000 1.0
C      1  0.5486860000000  0.5578820000000  0.4084230000000 1.0
C      1  0.4873590000000  0.5018630000000  0.5590670000000 1.0
C      1  0.5224040000000  0.5008550000000  0.4480500000000 1.0
C      1  0.4913490000000  0.5106360000000  0.4489590000000 1.0
C      1  0.5184050000000  0.5147910000000  0.5539620000000 1.0
C      1  0.5426660000000  0.5980910000000  0.5105580000000 1.0
C      1  0.4556440000000  0.5926730000000  0.4853520000000 1.0
C      1  0.5416370000000  0.5954700000000  0.4832520000000 1.0
C      1  0.4551650000000  0.5944930000000  0.5130680000000 1.0
C      1  0.5628640000000  0.5844950000000  0.5241850000000 1.0
C      1  0.4340300000000  0.5832030000000  0.4703580000000 1.0
C      1  0.5602690000000  0.5811110000000  0.4684250000000 1.0
C      1  0.4328250000000  0.5846530000000  0.5272490000000 1.0
C      1  0.5568030000000  0.4532880000000  0.5713100000000 1.0
C      1  0.4447220000000  0.4647790000000  0.4305610000000 1.0
C      1  0.5558970000000  0.4588350000000  0.4253790000000 1.0
C      1  0.4466120000000  0.4530310000000  0.5741930000000 1.0
C      1  0.5227900000000  0.4000040000000  0.4389560000000 1.0
C      1  0.4830950000000  0.4021130000000  0.5614730000000 1.0
C      1  0.5151250000000  0.3945330000000  0.5620390000000 1.0
C      1  0.4917130000000  0.4019620000000  0.4346630000000 1.0
C      1  0.5075960000000  0.5286000000000  0.4089620000000 1.0
C      1  0.4775820000000  0.5123730000000  0.5892110000000 1.0
C      1  0.5264940000000  0.5202400000000  0.5828170000000 1.0
C      1  0.4826420000000  0.5307190000000  0.4278870000000 1.0
C      1  0.5658330000000  0.5230320000000  0.5578160000000 1.0
C      1  0.4348120000000  0.5194280000000  0.4426170000000 1.0
C      1  0.5703160000000  0.5096830000000  0.4402800000000 1.0
C      1  0.4387290000000  0.5096680000000  0.5563430000000 1.0
C      1  0.5326310000000  0.4074490000000  0.4853780000000 1.0
C      1  0.4876230000000  0.4162600000000  0.5089140000000 1.0
C      1  0.5195180000000  0.4102680000000  0.5113380000000 1.0
C      1  0.4771070000000  0.4076240000000  0.4818610000000 1.0
C      1  0.4755580000000  0.3954570000000  0.5321600000000 1.0
C      1  0.5229420000000  0.3876690000000  0.4677950000000 1.0
C      1  0.4927930000000  0.3896600000000  0.4629470000000 1.0
C      1  0.5067280000000  0.3898530000000  0.5319900000000 1.0
C      1  0.5715140000000  0.4461910000000  0.4877290000000 1.0
C      1  0.4266600000000  0.4485270000000  0.5209310000000 1.0
C      1  0.5760270000000  0.4484150000000  0.5217330000000 1.0
C      1  0.4266190000000  0.4533860000000  0.4868660000000 1.0
C      1  0.5552150000000  0.4075090000000  0.5291190000000 1.0
C      1  0.4453110000000  0.4105660000000  0.4757780000000 1.0
C      1  0.5675190000000  0.4168020000000  0.4615090000000 1.0
C      1  0.4387220000000  0.4149830000000  0.5389910000000 1.0
C      1  0.4027230000000  0.5185220000000  0.4721240000000 1.0
C      1  0.5982820000000  0.5175560000000  0.5180300000000 1.0
C      1  0.4125900000000  0.5232090000000  0.5294070000000 1.0
C      1  0.5947230000000  0.5151620000000  0.4843070000000 1.0
C      1  0.5133560000000  0.5916610000000  0.4743510000000 1.0
C      1  0.4813530000000  0.5903830000000  0.5263200000000 1.0
C      1  0.5142190000000  0.5988530000000  0.5242110000000 1.0
C      1  0.4808400000000  0.5816970000000  0.4736190000000 1.0
C      1  0.5750880000000  0.5635520000000  0.5102560000000 1.0
C      1  0.4156000000000  0.5693100000000  0.4857990000000 1.0
C      1  0.5747150000000  0.5618980000000  0.4826120000000 1.0
C      1  0.4098330000000  0.5820460000000  0.5106030000000 1.0
C      1  0.4935470000000  0.5119030000000  0.5093390000000 1.0
C      1  0.5118420000000  0.5181360000000  0.4824420000000 1.0
C      1  0.4822950000000  0.5042380000000  0.4795740000000 1.0
C      1  0.5107540000000  0.4966440000000  0.5270680000000 1.0
C      1  0.4505190000000  0.4911260000000  0.4018680000000 1.0
C      1  0.5529620000000  0.4880970000000  0.5969490000000 1.0
C      1  0.4312040000000  0.4864940000000  0.6030000000000 1.0
C      1  0.5604320000000  0.4855350000000  0.3964660000000 1.0
C      1  0.4907240000000  0.4855590000000  0.6055530000000 1.0
C      1  0.5124020000000  0.5013030000000  0.4023210000000 1.0
C      1  0.4892200000000  0.4859230000000  0.3994290000000 1.0
C      1  0.5194330000000  0.4935870000000  0.5986610000000 1.0
C      1  0.4901050000000  0.4527080000000  0.6089640000000 1.0
C      1  0.5118190000000  0.4435580000000  0.3916470000000 1.0
C      1  0.4866830000000  0.4567930000000  0.3964240000000 1.0
C      1  0.5166460000000  0.4408080000000  0.6084920000000 1.0
C      1  0.4579120000000  0.4601750000000  0.5227460000000 1.0
C      1  0.5444130000000  0.4630620000000  0.4773940000000 1.0
C      1  0.4555890000000  0.4635080000000  0.4721900000000 1.0
C      1  0.5461280000000  0.4608830000000  0.5266970000000 1.0
C      1  0.4966650000000  0.5957210000000  0.4475150000000 1.0
C      1  0.4933480000000  0.6179200000000  0.5424170000000 1.0
C      1  0.4935750000000  0.5499820000000  0.4981270000000 1.0
END
