TITL C-3289326-3776-633 -0.00746675797018235 125000 -334.346764318964 0 0 62 (C1) n - 1
REM
REM in /nfs/bkarasulu/CARBON/AIRSS/Generating-Clusters/AIREBO/with-SteepDescent/Higher-Symm/SD-CG/HFTN-CG
REM
REM
REM
REM
REM
REM ./C.cell (b20cbc046b6831c77cfcea5457e17084)
REM
REM compiler GCC version 9.2.1 20190827 (Red Hat 9.2.1-1)
REM options -cpp -mtune=generic -march=x86-64 -g -O0 -fpre-include=/usr/include/finclude/math-vector-fortran.h
REM seed 939953794 427456575 -955403190 -362022113 -1832068067 -1232077297 1241991552 1913942265 -1063610150 -370004527 -2094401366 -490139789 -734012334 1648837821 1210594483 -870886042 -3549589 -2024654632 1570357250 191523784 2110320898 -2134300842 139295531 -1642657238 -1220839172 -18510304 1675764602 -1454765871 1315050689 2135589927 -896162242 -906681820 133585198
REM
CELL 1.54180   50.00000   50.00000   50.00000   90.00000   90.00000   90.00000
LATT -1
SFAC C  
C      1  0.4728680000000  0.4441400000000  0.5748290000000 1.0
C      1  0.5244530000000  0.4562120000000  0.4211670000000 1.0
C      1  0.4743380000000  0.5489990000000  0.4228220000000 1.0
C      1  0.5244660000000  0.5563360000000  0.5641280000000 1.0
C      1  0.5618980000000  0.4550670000000  0.4657050000000 1.0
C      1  0.4372390000000  0.4610940000000  0.5330160000000 1.0
C      1  0.4286410000000  0.5565380000000  0.4495790000000 1.0
C      1  0.5626530000000  0.5327440000000  0.5297350000000 1.0
C      1  0.5165720000000  0.5108620000000  0.5511980000000 1.0
C      1  0.4884440000000  0.5149620000000  0.4595490000000 1.0
C      1  0.5210920000000  0.4878890000000  0.4572090000000 1.0
C      1  0.4691710000000  0.4823180000000  0.5443830000000 1.0
C      1  0.5622000000000  0.5095770000000  0.5150210000000 1.0
C      1  0.4431330000000  0.5213590000000  0.4855270000000 1.0
C      1  0.4584370000000  0.4764730000000  0.5126480000000 1.0
C      1  0.5537610000000  0.4698230000000  0.4929790000000 1.0
C      1  0.5325490000000  0.5536690000000  0.4928730000000 1.0
C      1  0.4521300000000  0.5531340000000  0.4923890000000 1.0
C      1  0.5294190000000  0.4480050000000  0.4878540000000 1.0
C      1  0.4850470000000  0.4564770000000  0.5049350000000 1.0
C      1  0.4957930000000  0.5249750000000  0.5343860000000 1.0
C      1  0.5111940000000  0.5309900000000  0.4791990000000 1.0
C      1  0.4967580000000  0.4643490000000  0.5358830000000 1.0
C      1  0.5037450000000  0.4686260000000  0.4792390000000 1.0
C      1  0.4430750000000  0.5302770000000  0.4557180000000 1.0
C      1  0.5605710000000  0.5279250000000  0.5578750000000 1.0
C      1  0.4342970000000  0.4698220000000  0.5593930000000 1.0
C      1  0.5632550000000  0.4728210000000  0.4432000000000 1.0
C      1  0.4682910000000  0.5271730000000  0.4432650000000 1.0
C      1  0.5329640000000  0.5288200000000  0.5656380000000 1.0
C      1  0.5362850000000  0.4785220000000  0.4347000000000 1.0
C      1  0.4607100000000  0.4691850000000  0.5731320000000 1.0
C      1  0.5353500000000  0.4352020000000  0.5187980000000 1.0
C      1  0.4583480000000  0.4373060000000  0.4961320000000 1.0
C      1  0.5495790000000  0.5646800000000  0.4732710000000 1.0
C      1  0.4575230000000  0.5583470000000  0.5234690000000 1.0
C      1  0.5157930000000  0.4363600000000  0.5371960000000 1.0
C      1  0.4952950000000  0.4445520000000  0.4567540000000 1.0
C      1  0.4768700000000  0.5503650000000  0.5369550000000 1.0
C      1  0.5018680000000  0.5580830000000  0.4608840000000 1.0
C      1  0.5340080000000  0.5694950000000  0.5411880000000 1.0
C      1  0.4778530000000  0.5656210000000  0.4481440000000 1.0
C      1  0.5184930000000  0.4366390000000  0.4413000000000 1.0
C      1  0.4811470000000  0.4356790000000  0.5454410000000 1.0
C      1  0.5457870000000  0.5534550000000  0.5206090000000 1.0
C      1  0.4538800000000  0.5679270000000  0.4635220000000 1.0
C      1  0.4557920000000  0.4388190000000  0.5257250000000 1.0
C      1  0.5414460000000  0.4331790000000  0.4595480000000 1.0
C      1  0.4790560000000  0.4895050000000  0.4686670000000 1.0
C      1  0.5230900000000  0.4855920000000  0.5392660000000 1.0
C      1  0.4670530000000  0.5116430000000  0.5353230000000 1.0
C      1  0.5332830000000  0.5091840000000  0.4710170000000 1.0
C      1  0.4566310000000  0.4922700000000  0.4867650000000 1.0
C      1  0.5468310000000  0.4831770000000  0.5236430000000 1.0
C      1  0.5526090000000  0.5010990000000  0.4884720000000 1.0
C      1  0.4475580000000  0.5199900000000  0.5181510000000 1.0
C      1  0.5125950000000  0.4185730000000  0.4904640000000 1.0
C      1  0.4808660000000  0.5693910000000  0.4929810000000 1.0
C      1  0.4933630000000  0.4235480000000  0.5066930000000 1.0
C      1  0.5044890000000  0.5681580000000  0.4993960000000 1.0
C      1  0.4954290000000  0.4894490000000  0.5048340000000 1.0
C      1  0.5026620000000  0.5145150000000  0.5062200000000 1.0
END
