TITL C-3289322-3858-658 0.00358742406686502 125000 -19.5644074013135 0 0 6 (Oh) n - 1
REM
REM in /nfs/bkarasulu/CARBON/AIRSS/Generating-Clusters/AIREBO/with-SteepDescent/Higher-Symm/SD-CG/HFTN-CG
REM
REM
REM
REM
REM
REM ./C.cell (b20cbc046b6831c77cfcea5457e17084)
REM
REM compiler GCC version 9.2.1 20190827 (Red Hat 9.2.1-1)
REM options -cpp -mtune=generic -march=x86-64 -g -O0 -fpre-include=/usr/include/finclude/math-vector-fortran.h
REM seed -617196431 130315524 2022716590 -560189665 -1414909865 -1992231248 1693385510 -53547943 753994660 1699837651 1218189552 426449298 249546839 -2052712170 -1910450625 -325167408 1356670312 -1485938798 -160343697 -695245572 46871140 -1335840244 2031735274 1844976528 -2101117371 -1044458049 1009287731 734343269 -1741285428 1094793703 580653760 1354749443 -661977054
REM
CELL 1.54180   50.00000   50.00000   50.00000   90.00000   90.00000   90.00000
LATT -1
SFAC C  
C      1  0.5007850000000  0.5248400000000  0.4999280000000 1.0
C      1  0.5251740000000  0.5011470000000  0.4999280000000 1.0
C      1  0.5010710000000  0.4771610000000  0.4999280000000 1.0
C      1  0.5005890000000  0.5016010000000  0.4751040000000 1.0
C      1  0.4761090000000  0.5014430000000  0.4999280000000 1.0
C      1  0.5005890000000  0.5016010000000  0.5247510000000 1.0
END
