TITL C-3289335-9438-605 -0.0624454570903869 125000 -660.400807400802 0 0 124 (C1) n - 1
REM
REM in /nfs/bkarasulu/CARBON/AIRSS/Generating-Clusters/AIREBO/with-SteepDescent/Higher-Symm/SD-CG/HFTN-CG
REM
REM
REM
REM
REM
REM ./C.cell (b20cbc046b6831c77cfcea5457e17084)
REM
REM compiler GCC version 9.2.1 20190827 (Red Hat 9.2.1-1)
REM options -cpp -mtune=generic -march=x86-64 -g -O0 -fpre-include=/usr/include/finclude/math-vector-fortran.h
REM seed 312427614 2023665405 1924940552 153451388 1266525011 -1417391485 -1632066739 2071404046 -1857126475 1027228219 -685439421 1877291504 1209104315 -324298199 -1996418671 1983529355 -1216115274 1479865658 -770251187 -649409568 1147343240 -889349523 1988894961 -1181421664 75782022 591352518 1494036697 114464605 571821741 -1833843928 1632788132 -1316725261 1831399805
REM
CELL 1.54180   50.00000   50.00000   50.00000   90.00000   90.00000   90.00000
LATT -1
SFAC C  
C      1  0.5445690000000  0.4505450000000  0.4919920000000 1.0
C      1  0.5399450000000  0.4653370000000  0.5202070000000 1.0
C      1  0.5342600000000  0.5197170000000  0.5373040000000 1.0
C      1  0.5337030000000  0.5501370000000  0.5221130000000 1.0
C      1  0.5536240000000  0.5363900000000  0.5035220000000 1.0
C      1  0.5566580000000  0.4942200000000  0.4657290000000 1.0
C      1  0.5574720000000  0.4618760000000  0.4680070000000 1.0
C      1  0.4871270000000  0.5548170000000  0.4087860000000 1.0
C      1  0.5125690000000  0.4418170000000  0.4053590000000 1.0
C      1  0.4564380000000  0.4181740000000  0.4725100000000 1.0
C      1  0.4723280000000  0.4222880000000  0.5609090000000 1.0
C      1  0.4773790000000  0.4802810000000  0.5916120000000 1.0
C      1  0.4656610000000  0.5554640000000  0.5558780000000 1.0
C      1  0.4630690000000  0.5854010000000  0.4832120000000 1.0
C      1  0.4406360000000  0.5888210000000  0.5311040000000 1.0
C      1  0.4511490000000  0.5645420000000  0.4378880000000 1.0
C      1  0.4545200000000  0.5218220000000  0.4127780000000 1.0
C      1  0.4443600000000  0.4463670000000  0.4295720000000 1.0
C      1  0.4529490000000  0.3960900000000  0.5155130000000 1.0
C      1  0.4469770000000  0.4568390000000  0.5820420000000 1.0
C      1  0.4410630000000  0.5105140000000  0.5795530000000 1.0
C      1  0.4189900000000  0.4638260000000  0.4976840000000 1.0
C      1  0.4201920000000  0.4620630000000  0.5301050000000 1.0
C      1  0.4234630000000  0.5439300000000  0.5393790000000 1.0
C      1  0.4166590000000  0.5359250000000  0.5082920000000 1.0
C      1  0.4077180000000  0.5302130000000  0.4759890000000 1.0
C      1  0.3933590000000  0.5016040000000  0.4793130000000 1.0
C      1  0.4126680000000  0.4779500000000  0.4746750000000 1.0
C      1  0.4872520000000  0.5692450000000  0.4543350000000 1.0
C      1  0.4899560000000  0.4841910000000  0.4180320000000 1.0
C      1  0.4941740000000  0.4463590000000  0.4509110000000 1.0
C      1  0.5031120000000  0.4235050000000  0.5191200000000 1.0
C      1  0.4946740000000  0.4661350000000  0.5658900000000 1.0
C      1  0.4855490000000  0.5258850000000  0.5859970000000 1.0
C      1  0.4965340000000  0.5906700000000  0.5174570000000 1.0
C      1  0.4575870000000  0.5702640000000  0.5102730000000 1.0
C      1  0.4615600000000  0.5496810000000  0.4653540000000 1.0
C      1  0.4749280000000  0.5054320000000  0.4248490000000 1.0
C      1  0.4610680000000  0.4449320000000  0.4547540000000 1.0
C      1  0.4719990000000  0.4168870000000  0.5296660000000 1.0
C      1  0.4627190000000  0.4750480000000  0.5595070000000 1.0
C      1  0.4655010000000  0.5218900000000  0.5588180000000 1.0
C      1  0.5871650000000  0.4698990000000  0.5076240000000 1.0
C      1  0.5669810000000  0.4794110000000  0.5253750000000 1.0
C      1  0.5653690000000  0.5064050000000  0.5335440000000 1.0
C      1  0.5866230000000  0.5252010000000  0.5225300000000 1.0
C      1  0.5806450000000  0.5479750000000  0.5005930000000 1.0
C      1  0.5900610000000  0.5004170000000  0.4642110000000 1.0
C      1  0.5853440000000  0.4708260000000  0.4802780000000 1.0
C      1  0.4697500000000  0.4390980000000  0.5041350000000 1.0
C      1  0.4865070000000  0.4589140000000  0.5261100000000 1.0
C      1  0.4881600000000  0.5035920000000  0.5409960000000 1.0
C      1  0.4842880000000  0.5519550000000  0.5208800000000 1.0
C      1  0.4832910000000  0.5493880000000  0.4881750000000 1.0
C      1  0.4838060000000  0.5192970000000  0.4521040000000 1.0
C      1  0.4751010000000  0.4735080000000  0.4666970000000 1.0
C      1  0.4431520000000  0.5167980000000  0.5336880000000 1.0
C      1  0.4486550000000  0.5395590000000  0.5087040000000 1.0
C      1  0.4408350000000  0.5294030000000  0.4772020000000 1.0
C      1  0.4579790000000  0.5021750000000  0.4661810000000 1.0
C      1  0.4315240000000  0.4837320000000  0.4554040000000 1.0
C      1  0.4513670000000  0.4639110000000  0.5080650000000 1.0
C      1  0.4463690000000  0.4830170000000  0.5358290000000 1.0
C      1  0.5351980000000  0.4691230000000  0.4431890000000 1.0
C      1  0.5213370000000  0.4270390000000  0.4839810000000 1.0
C      1  0.5318460000000  0.4457240000000  0.5438270000000 1.0
C      1  0.5279790000000  0.5065690000000  0.5680880000000 1.0
C      1  0.5232100000000  0.5643960000000  0.5493710000000 1.0
C      1  0.5295940000000  0.5711570000000  0.4834140000000 1.0
C      1  0.5292130000000  0.5354930000000  0.4381230000000 1.0
C      1  0.5110760000000  0.4814050000000  0.5285480000000 1.0
C      1  0.5041990000000  0.5237340000000  0.5207170000000 1.0
C      1  0.5154240000000  0.5422960000000  0.4945160000000 1.0
C      1  0.5146010000000  0.5234660000000  0.4660330000000 1.0
C      1  0.5241460000000  0.4942840000000  0.4617440000000 1.0
C      1  0.5046880000000  0.4736120000000  0.4782330000000 1.0
C      1  0.5070420000000  0.4524040000000  0.5015530000000 1.0
C      1  0.4981720000000  0.4992990000000  0.5725680000000 1.0
C      1  0.4933040000000  0.5709210000000  0.5450730000000 1.0
C      1  0.4966710000000  0.5804880000000  0.4850150000000 1.0
C      1  0.4992370000000  0.5456340000000  0.4367780000000 1.0
C      1  0.5073230000000  0.4591310000000  0.4270370000000 1.0
C      1  0.4878400000000  0.4267930000000  0.4780490000000 1.0
C      1  0.5000260000000  0.4385550000000  0.5497490000000 1.0
C      1  0.5397150000000  0.4096740000000  0.5067290000000 1.0
C      1  0.5502510000000  0.4552140000000  0.5690980000000 1.0
C      1  0.5495870000000  0.5306260000000  0.5786910000000 1.0
C      1  0.5413230000000  0.5878070000000  0.5326380000000 1.0
C      1  0.5548240000000  0.5702690000000  0.4671970000000 1.0
C      1  0.5476120000000  0.5139310000000  0.4185960000000 1.0
C      1  0.5476400000000  0.4378610000000  0.4376350000000 1.0
C      1  0.4549370000000  0.4301220000000  0.5798890000000 1.0
C      1  0.4458310000000  0.4873180000000  0.5933360000000 1.0
C      1  0.4402830000000  0.5647960000000  0.5481260000000 1.0
C      1  0.4503960000000  0.5874110000000  0.4589940000000 1.0
C      1  0.4587410000000  0.5505920000000  0.4143700000000 1.0
C      1  0.4283620000000  0.4483800000000  0.4097890000000 1.0
C      1  0.4455640000000  0.4009180000000  0.4894920000000 1.0
C      1  0.5263560000000  0.5919540000000  0.5091860000000 1.0
C      1  0.5535640000000  0.5571830000000  0.4433970000000 1.0
C      1  0.5508320000000  0.4868960000000  0.4187790000000 1.0
C      1  0.5409510000000  0.4195090000000  0.4566860000000 1.0
C      1  0.5474100000000  0.4185380000000  0.5312680000000 1.0
C      1  0.5493000000000  0.4810460000000  0.5773220000000 1.0
C      1  0.5464090000000  0.5564420000000  0.5717040000000 1.0
C      1  0.5573430000000  0.5824760000000  0.5584550000000 1.0
C      1  0.5790340000000  0.5691500000000  0.4822100000000 1.0
C      1  0.5638460000000  0.5404600000000  0.4196150000000 1.0
C      1  0.5581270000000  0.4560390000000  0.4134560000000 1.0
C      1  0.5496550000000  0.3995130000000  0.4789260000000 1.0
C      1  0.5599790000000  0.4248230000000  0.5612150000000 1.0
C      1  0.5671430000000  0.5059930000000  0.5731450000000 1.0
C      1  0.5132040000000  0.4984560000000  0.4998350000000 1.0
C      1  0.3684910000000  0.4959700000000  0.5291750000000 1.0
C      1  0.4191060000000  0.5043780000000  0.5039620000000 1.0
C      1  0.5791660000000  0.5072030000000  0.4956970000000 1.0
C      1  0.3501710000000  0.4946960000000  0.5478730000000 1.0
C      1  0.4473220000000  0.4948560000000  0.4976420000000 1.0
C      1  0.4792810000000  0.4961990000000  0.4992760000000 1.0
C      1  0.6346010000000  0.4906640000000  0.4986830000000 1.0
C      1  0.5448530000000  0.5087510000000  0.4926350000000 1.0
C      1  0.6587310000000  0.4847840000000  0.5070610000000 1.0
C      1  0.3861220000000  0.4997240000000  0.5109190000000 1.0
C      1  0.6117980000000  0.4988070000000  0.4903060000000 1.0
END
