TITL C-3289335-9438-338 0.000926521897683336 125000 -599.366223585142 0 0 105 (C1) n - 1
REM
REM in /nfs/bkarasulu/CARBON/AIRSS/Generating-Clusters/AIREBO/with-SteepDescent/Higher-Symm/SD-CG/HFTN-CG
REM
REM
REM
REM
REM
REM ./C.cell (b20cbc046b6831c77cfcea5457e17084)
REM
REM compiler GCC version 9.2.1 20190827 (Red Hat 9.2.1-1)
REM options -cpp -mtune=generic -march=x86-64 -g -O0 -fpre-include=/usr/include/finclude/math-vector-fortran.h
REM seed 418586440 -316227197 -1393089058 -250540365 -762902527 434995991 -96505064 -1879628824 -492464491 -57852345 2115033722 257389310 1308097602 -382398530 -1375802464 -1772759626 -617066818 270308907 -1703567309 1657401482 -1725100739 -336055943 487854075 2143276337 -893028975 1037979396 378359059 -223482787 854338587 1521066637 -569717991 1193763568 -751404169
REM
CELL 1.54180   50.00000   50.00000   50.00000   90.00000   90.00000   90.00000
LATT -1
SFAC C  
C      1  0.5756350000000  0.5259870000000  0.5514000000000 1.0
C      1  0.5804530000000  0.5573260000000  0.4927680000000 1.0
C      1  0.5709210000000  0.5182170000000  0.4448350000000 1.0
C      1  0.5843220000000  0.4507960000000  0.4720680000000 1.0
C      1  0.5730410000000  0.4582570000000  0.5271150000000 1.0
C      1  0.5847050000000  0.4803390000000  0.4844420000000 1.0
C      1  0.5846170000000  0.4808800000000  0.5151120000000 1.0
C      1  0.5740610000000  0.5078070000000  0.5250260000000 1.0
C      1  0.5743610000000  0.5278260000000  0.4996920000000 1.0
C      1  0.5791970000000  0.5097360000000  0.4746690000000 1.0
C      1  0.4928910000000  0.4816450000000  0.4233810000000 1.0
C      1  0.4935490000000  0.4021110000000  0.5021100000000 1.0
C      1  0.4671320000000  0.4624630000000  0.5745660000000 1.0
C      1  0.4790440000000  0.5781290000000  0.5529170000000 1.0
C      1  0.4883670000000  0.5716940000000  0.4594500000000 1.0
C      1  0.5400620000000  0.5003020000000  0.5793080000000 1.0
C      1  0.5347850000000  0.5790000000000  0.5183120000000 1.0
C      1  0.5338800000000  0.5436430000000  0.4333830000000 1.0
C      1  0.5437800000000  0.4498570000000  0.4367400000000 1.0
C      1  0.5395920000000  0.4237110000000  0.5287840000000 1.0
C      1  0.4327690000000  0.5671320000000  0.4669150000000 1.0
C      1  0.3991970000000  0.4941830000000  0.4291450000000 1.0
C      1  0.3983330000000  0.4342560000000  0.4911660000000 1.0
C      1  0.4337490000000  0.4842230000000  0.5721920000000 1.0
C      1  0.4311430000000  0.5645970000000  0.5412360000000 1.0
C      1  0.4836930000000  0.5105980000000  0.5679990000000 1.0
C      1  0.4685100000000  0.5457060000000  0.5178780000000 1.0
C      1  0.4615620000000  0.5301510000000  0.4588020000000 1.0
C      1  0.4869060000000  0.4416150000000  0.4524020000000 1.0
C      1  0.4672120000000  0.4425930000000  0.5094300000000 1.0
C      1  0.4534980000000  0.5073440000000  0.4774450000000 1.0
C      1  0.4656660000000  0.4793360000000  0.4689720000000 1.0
C      1  0.4734610000000  0.4648660000000  0.4918000000000 1.0
C      1  0.4545840000000  0.4950130000000  0.5286520000000 1.0
C      1  0.4651380000000  0.5155300000000  0.5068480000000 1.0
C      1  0.5119890000000  0.5069990000000  0.5494760000000 1.0
C      1  0.4949980000000  0.5552000000000  0.5060240000000 1.0
C      1  0.4876550000000  0.5258000000000  0.4456930000000 1.0
C      1  0.5077590000000  0.4281510000000  0.4712010000000 1.0
C      1  0.4918680000000  0.4483260000000  0.5296300000000 1.0
C      1  0.5143040000000  0.4997060000000  0.4783600000000 1.0
C      1  0.5054090000000  0.4740470000000  0.4989550000000 1.0
C      1  0.4875140000000  0.4875730000000  0.5245150000000 1.0
C      1  0.4969510000000  0.5179570000000  0.5204560000000 1.0
C      1  0.5142980000000  0.5300030000000  0.4938090000000 1.0
C      1  0.5156610000000  0.4154310000000  0.5177970000000 1.0
C      1  0.4594960000000  0.4600320000000  0.5995460000000 1.0
C      1  0.5073640000000  0.5879570000000  0.5363260000000 1.0
C      1  0.5124880000000  0.5646240000000  0.4365420000000 1.0
C      1  0.4855650000000  0.4666510000000  0.4005440000000 1.0
C      1  0.5463190000000  0.5552590000000  0.5297730000000 1.0
C      1  0.5518220000000  0.5425790000000  0.4588970000000 1.0
C      1  0.5500610000000  0.4755360000000  0.4426730000000 1.0
C      1  0.5545020000000  0.4415950000000  0.5089050000000 1.0
C      1  0.5491050000000  0.4853620000000  0.5580570000000 1.0
C      1  0.5313990000000  0.3982130000000  0.4604290000000 1.0
C      1  0.5150760000000  0.4467040000000  0.5621250000000 1.0
C      1  0.5066490000000  0.5462970000000  0.5603690000000 1.0
C      1  0.5164960000000  0.5877370000000  0.4742440000000 1.0
C      1  0.5063920000000  0.5093340000000  0.4144690000000 1.0
C      1  0.4149490000000  0.4842050000000  0.5550180000000 1.0
C      1  0.4126310000000  0.5446730000000  0.5392580000000 1.0
C      1  0.4134530000000  0.5531940000000  0.4805970000000 1.0
C      1  0.4092400000000  0.5000010000000  0.4518720000000 1.0
C      1  0.4076790000000  0.4583320000000  0.4956200000000 1.0
C      1  0.4896570000000  0.5818730000000  0.4918660000000 1.0
C      1  0.4861630000000  0.5307900000000  0.4141060000000 1.0
C      1  0.5012860000000  0.3945490000000  0.4725790000000 1.0
C      1  0.4832560000000  0.4414610000000  0.5610920000000 1.0
C      1  0.4856080000000  0.5600980000000  0.5771310000000 1.0
C      1  0.5067790000000  0.5561340000000  0.5348180000000 1.0
C      1  0.5075320000000  0.5438770000000  0.4633990000000 1.0
C      1  0.4993320000000  0.4986410000000  0.4521510000000 1.0
C      1  0.5057150000000  0.4400470000000  0.4996520000000 1.0
C      1  0.5036410000000  0.4740330000000  0.5491330000000 1.0
C      1  0.5396170000000  0.4385060000000  0.5533920000000 1.0
C      1  0.5297620000000  0.5287730000000  0.5686380000000 1.0
C      1  0.5393050000000  0.5818710000000  0.4892830000000 1.0
C      1  0.5317400000000  0.5175660000000  0.4215020000000 1.0
C      1  0.5398940000000  0.4296390000000  0.4601510000000 1.0
C      1  0.4677470000000  0.4143260000000  0.5051510000000 1.0
C      1  0.4638610000000  0.4901290000000  0.5599830000000 1.0
C      1  0.4586320000000  0.5644770000000  0.5365300000000 1.0
C      1  0.4584000000000  0.5583870000000  0.4606030000000 1.0
C      1  0.4771390000000  0.4663550000000  0.4470580000000 1.0
C      1  0.4737500000000  0.5464610000000  0.3961880000000 1.0
C      1  0.4858970000000  0.3751530000000  0.4603930000000 1.0
C      1  0.4743300000000  0.4153650000000  0.5659450000000 1.0
C      1  0.4776340000000  0.5318910000000  0.5836790000000 1.0
C      1  0.4716960000000  0.6054950000000  0.4978880000000 1.0
C      1  0.4145840000000  0.4832710000000  0.5002570000000 1.0
C      1  0.4234010000000  0.4950210000000  0.5275550000000 1.0
C      1  0.4118520000000  0.5235640000000  0.5212550000000 1.0
C      1  0.4119230000000  0.5288610000000  0.4941320000000 1.0
C      1  0.4227000000000  0.5044010000000  0.4788250000000 1.0
C      1  0.5624850000000  0.4353760000000  0.4797590000000 1.0
C      1  0.5589690000000  0.4599370000000  0.5519410000000 1.0
C      1  0.5537900000000  0.5424670000000  0.5546270000000 1.0
C      1  0.5596460000000  0.5662040000000  0.4768140000000 1.0
C      1  0.5536380000000  0.5008220000000  0.4298430000000 1.0
C      1  0.5433310000000  0.5294350000000  0.5115390000000 1.0
C      1  0.5453320000000  0.5132360000000  0.4750540000000 1.0
C      1  0.5527570000000  0.4801310000000  0.4728060000000 1.0
C      1  0.5371970000000  0.4636140000000  0.4928600000000 1.0
C      1  0.5411120000000  0.5034160000000  0.5322820000000 1.0
END
