TITL C-3289330-4660-325 0.000360383146507402 125000 -136.016693136894 0 0 31 (C1) n - 1
REM
REM in /nfs/bkarasulu/CARBON/AIRSS/Generating-Clusters/AIREBO/with-SteepDescent/Higher-Symm/SD-CG/HFTN-CG
REM
REM
REM
REM
REM
REM ./C.cell (b20cbc046b6831c77cfcea5457e17084)
REM
REM compiler GCC version 9.2.1 20190827 (Red Hat 9.2.1-1)
REM options -cpp -mtune=generic -march=x86-64 -g -O0 -fpre-include=/usr/include/finclude/math-vector-fortran.h
REM seed -1669259993 -367788944 -276754098 -637257782 -1281799927 -1448651739 -343738115 1647394174 215099946 1584025275 -1226193299 -1549171606 1378446417 -1134395087 1544229526 -1973477688 758491751 700129538 -2062156913 493228705 383186465 -239892019 1818299270 -1241462392 1937205576 1104671432 -1048021503 393513708 -1272738269 517568813 365164752 589636980 655256426
REM
CELL 1.54180   50.00000   50.00000   50.00000   90.00000   90.00000   90.00000
LATT -1
SFAC C  
C      1  0.5235080000000  0.5458940000000  0.4563830000000 1.0
C      1  0.4751680000000  0.4520760000000  0.4562980000000 1.0
C      1  0.4752040000000  0.5469660000000  0.5398480000000 1.0
C      1  0.5258720000000  0.4529580000000  0.5389740000000 1.0
C      1  0.5486970000000  0.5239700000000  0.4551000000000 1.0
C      1  0.4530060000000  0.4747450000000  0.4559020000000 1.0
C      1  0.5480700000000  0.4754420000000  0.5390540000000 1.0
C      1  0.4529320000000  0.5245620000000  0.5391790000000 1.0
C      1  0.4755540000000  0.5742680000000  0.5228520000000 1.0
C      1  0.5253180000000  0.4258110000000  0.5217880000000 1.0
C      1  0.5272190000000  0.5731470000000  0.4737040000000 1.0
C      1  0.4759010000000  0.4253090000000  0.4740460000000 1.0
C      1  0.5753140000000  0.4764360000000  0.5220700000000 1.0
C      1  0.4259060000000  0.5238570000000  0.5218340000000 1.0
C      1  0.5751140000000  0.5251360000000  0.4733920000000 1.0
C      1  0.4257910000000  0.4765070000000  0.4728400000000 1.0
C      1  0.4922810000000  0.4516850000000  0.4861210000000 1.0
C      1  0.5100780000000  0.5490850000000  0.4880980000000 1.0
C      1  0.5089970000000  0.4519330000000  0.5090540000000 1.0
C      1  0.4926330000000  0.5485500000000  0.5102570000000 1.0
C      1  0.4524030000000  0.4917960000000  0.4857740000000 1.0
C      1  0.5493080000000  0.5085410000000  0.4858550000000 1.0
C      1  0.4523730000000  0.5082390000000  0.5089440000000 1.0
C      1  0.5490040000000  0.4922740000000  0.5090980000000 1.0
C      1  0.5185040000000  0.5176650000000  0.4746940000000 1.0
C      1  0.5179430000000  0.4830580000000  0.5194420000000 1.0
C      1  0.4833380000000  0.4825790000000  0.4750650000000 1.0
C      1  0.4833030000000  0.5172760000000  0.5198280000000 1.0
C      1  0.5012480000000  0.4989220000000  0.4529700000000 1.0
C      1  0.5006190000000  0.4999630000000  0.5416290000000 1.0
C      1  0.5004940000000  0.5003570000000  0.4968760000000 1.0
END
