TITL C-3289333-7213-141 0.002919694131877 125000 -1024.54053707347 0 0 188 (C1) n - 1
REM
REM in /nfs/bkarasulu/CARBON/AIRSS/Generating-Clusters/AIREBO/with-SteepDescent/Higher-Symm/SD-CG/HFTN-CG
REM
REM
REM
REM
REM
REM ./C.cell (b20cbc046b6831c77cfcea5457e17084)
REM
REM compiler GCC version 9.2.1 20190827 (Red Hat 9.2.1-1)
REM options -cpp -mtune=generic -march=x86-64 -g -O0 -fpre-include=/usr/include/finclude/math-vector-fortran.h
REM seed 1176788999 902754177 -22986695 365838917 -386707923 -604741573 -881189967 1911600829 726725290 -1622741043 -301211911 -818145994 -343679003 484763965 742846795 1903772522 1010041233 840133714 -1914132702 -406142322 160908717 -673653700 1214668122 1295322016 1147380213 1120362665 -545005674 -1158807918 713102699 -1833987732 -137649351 852095245 -529090754
REM
CELL 1.54180   50.00000   50.00000   50.00000   90.00000   90.00000   90.00000
LATT -1
SFAC C  
C      1  0.5590360000000  0.5795320000000  0.4634970000000 1.0
C      1  0.4438040000000  0.4148740000000  0.4649400000000 1.0
C      1  0.5621800000000  0.5843900000000  0.5597080000000 1.0
C      1  0.4389740000000  0.4184070000000  0.5540580000000 1.0
C      1  0.4797100000000  0.5906220000000  0.5467070000000 1.0
C      1  0.5277930000000  0.4162280000000  0.5502280000000 1.0
C      1  0.4804280000000  0.5926600000000  0.4574700000000 1.0
C      1  0.5174430000000  0.4033750000000  0.4517550000000 1.0
C      1  0.4750410000000  0.4600650000000  0.5128080000000 1.0
C      1  0.5187460000000  0.5373470000000  0.5138220000000 1.0
C      1  0.4617550000000  0.4582400000000  0.4846670000000 1.0
C      1  0.5189440000000  0.5365700000000  0.4830790000000 1.0
C      1  0.6153160000000  0.4713390000000  0.4868070000000 1.0
C      1  0.3874480000000  0.5311440000000  0.4799160000000 1.0
C      1  0.6099070000000  0.4636490000000  0.5136450000000 1.0
C      1  0.3923360000000  0.5335620000000  0.5124650000000 1.0
C      1  0.5455250000000  0.4361180000000  0.5205090000000 1.0
C      1  0.4715600000000  0.5627080000000  0.5192710000000 1.0
C      1  0.5488220000000  0.4182780000000  0.4928600000000 1.0
C      1  0.4684370000000  0.5713300000000  0.4893080000000 1.0
C      1  0.4449510000000  0.5302710000000  0.4436560000000 1.0
C      1  0.5459200000000  0.4670930000000  0.4403200000000 1.0
C      1  0.4482650000000  0.5299730000000  0.5497460000000 1.0
C      1  0.5380850000000  0.4687720000000  0.5544670000000 1.0
C      1  0.5534080000000  0.5129970000000  0.4240600000000 1.0
C      1  0.4462050000000  0.4856000000000  0.4230890000000 1.0
C      1  0.5514780000000  0.5156020000000  0.5677230000000 1.0
C      1  0.4461000000000  0.4840620000000  0.5723010000000 1.0
C      1  0.6069610000000  0.5175380000000  0.4935120000000 1.0
C      1  0.4098120000000  0.4834930000000  0.4728580000000 1.0
C      1  0.6025620000000  0.5129320000000  0.5262070000000 1.0
C      1  0.4030760000000  0.4727520000000  0.5275280000000 1.0
C      1  0.5699070000000  0.4885970000000  0.4842790000000 1.0
C      1  0.4374420000000  0.5306150000000  0.4941090000000 1.0
C      1  0.5588100000000  0.5014510000000  0.5138570000000 1.0
C      1  0.4304030000000  0.5168840000000  0.5239390000000 1.0
C      1  0.3955990000000  0.5028900000000  0.4869220000000 1.0
C      1  0.5999330000000  0.4943000000000  0.4800870000000 1.0
C      1  0.4008210000000  0.5022650000000  0.5184230000000 1.0
C      1  0.6162260000000  0.4839990000000  0.5312860000000 1.0
C      1  0.4993130000000  0.4643320000000  0.5630170000000 1.0
C      1  0.4959720000000  0.5390830000000  0.5577410000000 1.0
C      1  0.4955630000000  0.4656540000000  0.4335110000000 1.0
C      1  0.4970310000000  0.5396930000000  0.4417130000000 1.0
C      1  0.4376340000000  0.5460270000000  0.5973640000000 1.0
C      1  0.5595210000000  0.4538590000000  0.5982060000000 1.0
C      1  0.4404000000000  0.5512350000000  0.4049600000000 1.0
C      1  0.5537750000000  0.4533420000000  0.4003720000000 1.0
C      1  0.5744540000000  0.5504320000000  0.4668200000000 1.0
C      1  0.4392850000000  0.4442230000000  0.4674640000000 1.0
C      1  0.5659000000000  0.5513700000000  0.5245200000000 1.0
C      1  0.4403760000000  0.4424710000000  0.5221750000000 1.0
C      1  0.4417340000000  0.5776120000000  0.5199120000000 1.0
C      1  0.5747540000000  0.4190800000000  0.5239540000000 1.0
C      1  0.4357920000000  0.5737150000000  0.4869120000000 1.0
C      1  0.5681340000000  0.4275110000000  0.4714090000000 1.0
C      1  0.5031130000000  0.5867200000000  0.5145880000000 1.0
C      1  0.4947100000000  0.4254310000000  0.5145520000000 1.0
C      1  0.5072860000000  0.5768900000000  0.4823080000000 1.0
C      1  0.4972840000000  0.4288790000000  0.4814480000000 1.0
C      1  0.4479530000000  0.4018370000000  0.4904990000000 1.0
C      1  0.5594910000000  0.5820050000000  0.4945130000000 1.0
C      1  0.4438110000000  0.4116400000000  0.5216870000000 1.0
C      1  0.5592360000000  0.5831390000000  0.5277250000000 1.0
C      1  0.4596130000000  0.5064390000000  0.3998060000000 1.0
C      1  0.5426310000000  0.5044080000000  0.3964860000000 1.0
C      1  0.4487810000000  0.5002330000000  0.6006890000000 1.0
C      1  0.5513040000000  0.5036800000000  0.5983640000000 1.0
C      1  0.4995480000000  0.4882870000000  0.6024920000000 1.0
C      1  0.4996220000000  0.5153900000000  0.6006850000000 1.0
C      1  0.4948320000000  0.4865590000000  0.3843580000000 1.0
C      1  0.4998550000000  0.5123420000000  0.3749130000000 1.0
C      1  0.5947670000000  0.5022720000000  0.5779480000000 1.0
C      1  0.4077050000000  0.4988410000000  0.5679130000000 1.0
C      1  0.5910300000000  0.5137040000000  0.4370620000000 1.0
C      1  0.4065740000000  0.4818460000000  0.4249800000000 1.0
C      1  0.5113740000000  0.5478750000000  0.4118460000000 1.0
C      1  0.4929840000000  0.4364890000000  0.4212320000000 1.0
C      1  0.5116310000000  0.5550790000000  0.5833440000000 1.0
C      1  0.4836050000000  0.4458440000000  0.5868550000000 1.0
C      1  0.5495510000000  0.4137700000000  0.4462800000000 1.0
C      1  0.4474210000000  0.5839850000000  0.4577200000000 1.0
C      1  0.5601130000000  0.4171300000000  0.5530490000000 1.0
C      1  0.4477270000000  0.5804370000000  0.5522130000000 1.0
C      1  0.4126130000000  0.5511600000000  0.4832380000000 1.0
C      1  0.5659060000000  0.4559120000000  0.4874250000000 1.0
C      1  0.4177200000000  0.5542730000000  0.5167320000000 1.0
C      1  0.5826040000000  0.4500940000000  0.5159920000000 1.0
C      1  0.4431170000000  0.4459130000000  0.4206070000000 1.0
C      1  0.5608870000000  0.5518920000000  0.4191060000000 1.0
C      1  0.4301420000000  0.4476900000000  0.5689170000000 1.0
C      1  0.5684700000000  0.5516700000000  0.5664860000000 1.0
C      1  0.4665220000000  0.4263300000000  0.4238710000000 1.0
C      1  0.5353880000000  0.5703340000000  0.4203800000000 1.0
C      1  0.4565190000000  0.4301140000000  0.5812270000000 1.0
C      1  0.5425190000000  0.5669990000000  0.5822260000000 1.0
C      1  0.5483450000000  0.4432760000000  0.5713240000000 1.0
C      1  0.4517750000000  0.5549600000000  0.5725350000000 1.0
C      1  0.5456680000000  0.4380300000000  0.4253910000000 1.0
C      1  0.4455240000000  0.5610060000000  0.4334990000000 1.0
C      1  0.4604810000000  0.5312730000000  0.4724730000000 1.0
C      1  0.5374560000000  0.4614720000000  0.4696230000000 1.0
C      1  0.4690660000000  0.5341330000000  0.5266010000000 1.0
C      1  0.5297210000000  0.4603040000000  0.5274070000000 1.0
C      1  0.5006480000000  0.4519470000000  0.5313560000000 1.0
C      1  0.5020230000000  0.5564510000000  0.5291320000000 1.0
C      1  0.5048800000000  0.4524800000000  0.4639790000000 1.0
C      1  0.4891160000000  0.5496060000000  0.4732740000000 1.0
C      1  0.5517030000000  0.5309950000000  0.4756630000000 1.0
C      1  0.4477230000000  0.4882510000000  0.4844430000000 1.0
C      1  0.5494750000000  0.5311570000000  0.5080450000000 1.0
C      1  0.4450120000000  0.4756430000000  0.5163070000000 1.0
C      1  0.5227870000000  0.4777830000000  0.3939510000000 1.0
C      1  0.4825930000000  0.5308070000000  0.4057560000000 1.0
C      1  0.5286360000000  0.4791810000000  0.6000580000000 1.0
C      1  0.4708970000000  0.5241290000000  0.5989040000000 1.0
C      1  0.5224480000000  0.4832760000000  0.4266900000000 1.0
C      1  0.4727230000000  0.5177410000000  0.4355720000000 1.0
C      1  0.5208220000000  0.4900300000000  0.5687820000000 1.0
C      1  0.4737200000000  0.5148180000000  0.5663130000000 1.0
C      1  0.4682310000000  0.6051250000000  0.4855840000000 1.0
C      1  0.5207390000000  0.4069640000000  0.4846390000000 1.0
C      1  0.4729060000000  0.6023140000000  0.5154550000000 1.0
C      1  0.5294300000000  0.4058500000000  0.5178720000000 1.0
C      1  0.4737000000000  0.4824880000000  0.5554010000000 1.0
C      1  0.5224330000000  0.5198530000000  0.5524460000000 1.0
C      1  0.4771900000000  0.4903420000000  0.4473320000000 1.0
C      1  0.5169280000000  0.5121390000000  0.4402000000000 1.0
C      1  0.5317110000000  0.5986070000000  0.4856200000000 1.0
C      1  0.4809750000000  0.3992680000000  0.4878930000000 1.0
C      1  0.5340940000000  0.6000950000000  0.5189200000000 1.0
C      1  0.4736450000000  0.3999830000000  0.5204490000000 1.0
C      1  0.4184880000000  0.5130280000000  0.4309670000000 1.0
C      1  0.5755450000000  0.4834290000000  0.4365980000000 1.0
C      1  0.4177880000000  0.5311020000000  0.5642170000000 1.0
C      1  0.5802850000000  0.4772410000000  0.5596280000000 1.0
C      1  0.5940830000000  0.5449810000000  0.5184520000000 1.0
C      1  0.4130790000000  0.4528260000000  0.5095570000000 1.0
C      1  0.5980170000000  0.5459510000000  0.4867140000000 1.0
C      1  0.4148930000000  0.4576460000000  0.4820470000000 1.0
C      1  0.4874380000000  0.4789180000000  0.4763510000000 1.0
C      1  0.5189580000000  0.5089460000000  0.4700270000000 1.0
C      1  0.4815150000000  0.4867160000000  0.5270960000000 1.0
C      1  0.5146510000000  0.5084040000000  0.5241220000000 1.0
C      1  0.5727430000000  0.4498810000000  0.5485360000000 1.0
C      1  0.4206090000000  0.5595450000000  0.5483050000000 1.0
C      1  0.5801830000000  0.4043710000000  0.4524800000000 1.0
C      1  0.4142530000000  0.5775180000000  0.4556100000000 1.0
C      1  0.5374400000000  0.5843210000000  0.4455400000000 1.0
C      1  0.4636240000000  0.4078340000000  0.4453500000000 1.0
C      1  0.5290280000000  0.5795960000000  0.5536720000000 1.0
C      1  0.4735590000000  0.4238210000000  0.5525280000000 1.0
C      1  0.4817750000000  0.5673420000000  0.5702510000000 1.0
C      1  0.5146310000000  0.4361820000000  0.5744070000000 1.0
C      1  0.4774590000000  0.5672740000000  0.4381440000000 1.0
C      1  0.5169010000000  0.4223190000000  0.4256890000000 1.0
C      1  0.5742200000000  0.5068230000000  0.5439910000000 1.0
C      1  0.4287840000000  0.4884330000000  0.5433340000000 1.0
C      1  0.5575930000000  0.5042180000000  0.4566520000000 1.0
C      1  0.4337180000000  0.4932980000000  0.4538170000000 1.0
C      1  0.4573520000000  0.5464570000000  0.6199280000000 1.0
C      1  0.5391210000000  0.4551180000000  0.6195600000000 1.0
C      1  0.4642480000000  0.5529250000000  0.3901610000000 1.0
C      1  0.5353190000000  0.4521720000000  0.3781170000000 1.0
C      1  0.5193860000000  0.5252880000000  0.3898800000000 1.0
C      1  0.4760490000000  0.4781010000000  0.4085930000000 1.0
C      1  0.5280320000000  0.5263460000000  0.5913200000000 1.0
C      1  0.4717880000000  0.4759350000000  0.5946570000000 1.0
C      1  0.5407330000000  0.5480380000000  0.5471400000000 1.0
C      1  0.4569800000000  0.4535920000000  0.5488870000000 1.0
C      1  0.5386570000000  0.5356930000000  0.4383580000000 1.0
C      1  0.4575370000000  0.4625640000000  0.4453830000000 1.0
C      1  0.4872600000000  0.3955780000000  0.4573510000000 1.0
C      1  0.5119260000000  0.5999680000000  0.4577710000000 1.0
C      1  0.4980960000000  0.4064040000000  0.5425600000000 1.0
C      1  0.5100840000000  0.6023120000000  0.5439950000000 1.0
C      1  0.4840060000000  0.5130350000000  0.5141510000000 1.0
C      1  0.5306480000000  0.4860800000000  0.5122670000000 1.0
C      1  0.4740100000000  0.5072090000000  0.4872440000000 1.0
C      1  0.5201290000000  0.4829000000000  0.4848110000000 1.0
C      1  0.5884140000000  0.5301030000000  0.5643350000000 1.0
C      1  0.4099080000000  0.4674230000000  0.5716440000000 1.0
C      1  0.5805270000000  0.5392030000000  0.4384460000000 1.0
C      1  0.4180430000000  0.4583250000000  0.4153630000000 1.0
C      1  0.4215680000000  0.5165100000000  0.5937290000000 1.0
C      1  0.5724510000000  0.4805020000000  0.5915190000000 1.0
C      1  0.4332340000000  0.5236870000000  0.4057310000000 1.0
C      1  0.5632470000000  0.4790910000000  0.4064300000000 1.0
END
