TITL C-3289335-9438-275 -0.000810329886648563 125000 -868.857778120084 0 0 156 (C1) n - 1
REM
REM in /nfs/bkarasulu/CARBON/AIRSS/Generating-Clusters/AIREBO/with-SteepDescent/Higher-Symm/SD-CG/HFTN-CG
REM
REM
REM
REM
REM
REM ./C.cell (b20cbc046b6831c77cfcea5457e17084)
REM
REM compiler GCC version 9.2.1 20190827 (Red Hat 9.2.1-1)
REM options -cpp -mtune=generic -march=x86-64 -g -O0 -fpre-include=/usr/include/finclude/math-vector-fortran.h
REM seed 93499724 -1909058617 1185816933 -1470789758 1576208252 1919653730 -1691570634 -824437734 -1878142303 90239857 -1367249981 1431637525 616334178 1335860305 -1749487705 788702518 -1597442127 1625663023 -869552038 -78795166 -1353314400 -1775023446 -1632051265 1749682211 -1656323727 -1277527351 350565925 -99987635 -322143823 -1061714615 -132357415 -1384083519 -579551323
REM
CELL 1.54180   50.00000   50.00000   50.00000   90.00000   90.00000   90.00000
LATT -1
SFAC C  
C      1  0.4546420000000  0.4189320000000  0.5031870000000 1.0
C      1  0.5138050000000  0.4118650000000  0.4567590000000 1.0
C      1  0.5306400000000  0.4115980000000  0.5338600000000 1.0
C      1  0.5427780000000  0.5867170000000  0.5120640000000 1.0
C      1  0.4917610000000  0.5877750000000  0.4607640000000 1.0
C      1  0.4671490000000  0.5877490000000  0.5329260000000 1.0
C      1  0.5214500000000  0.5661290000000  0.4174100000000 1.0
C      1  0.5538780000000  0.5594660000000  0.5611900000000 1.0
C      1  0.4175490000000  0.5641910000000  0.5189570000000 1.0
C      1  0.4774970000000  0.4369000000000  0.4194890000000 1.0
C      1  0.4483770000000  0.4407140000000  0.5643810000000 1.0
C      1  0.5836590000000  0.4511300000000  0.5118170000000 1.0
C      1  0.5198990000000  0.5934870000000  0.4614830000000 1.0
C      1  0.5263040000000  0.5910400000000  0.5350180000000 1.0
C      1  0.4556260000000  0.5926190000000  0.5069150000000 1.0
C      1  0.4865630000000  0.4052710000000  0.4587320000000 1.0
C      1  0.4739420000000  0.3997700000000  0.5222430000000 1.0
C      1  0.5441040000000  0.4071510000000  0.5094490000000 1.0
C      1  0.4834480000000  0.5092840000000  0.4805740000000 1.0
C      1  0.5168470000000  0.5028490000000  0.5054050000000 1.0
C      1  0.4921790000000  0.5167710000000  0.5310860000000 1.0
C      1  0.5115440000000  0.4910680000000  0.4745020000000 1.0
C      1  0.4767650000000  0.4959050000000  0.5089530000000 1.0
C      1  0.5065260000000  0.4860040000000  0.5331140000000 1.0
C      1  0.4207520000000  0.5361630000000  0.5379560000000 1.0
C      1  0.5173850000000  0.5267240000000  0.4213770000000 1.0
C      1  0.5672760000000  0.5324090000000  0.5454870000000 1.0
C      1  0.5677040000000  0.4697200000000  0.5283690000000 1.0
C      1  0.4859620000000  0.4703130000000  0.4172160000000 1.0
C      1  0.4344470000000  0.4628780000000  0.5459160000000 1.0
C      1  0.5030120000000  0.4117130000000  0.5325560000000 1.0
C      1  0.4798000000000  0.4040770000000  0.4887900000000 1.0
C      1  0.5284560000000  0.4119040000000  0.4815150000000 1.0
C      1  0.4962820000000  0.5848850000000  0.5327800000000 1.0
C      1  0.5321760000000  0.5825070000000  0.4857410000000 1.0
C      1  0.4748740000000  0.5856420000000  0.4839650000000 1.0
C      1  0.5444200000000  0.4852560000000  0.4810760000000 1.0
C      1  0.4807210000000  0.4812490000000  0.5547560000000 1.0
C      1  0.4597300000000  0.4758950000000  0.4460710000000 1.0
C      1  0.4507280000000  0.5189980000000  0.4895000000000 1.0
C      1  0.5168260000000  0.5213650000000  0.5541050000000 1.0
C      1  0.5430680000000  0.5167120000000  0.4499850000000 1.0
C      1  0.4115780000000  0.4620500000000  0.4620340000000 1.0
C      1  0.5793950000000  0.4604610000000  0.4441150000000 1.0
C      1  0.5029790000000  0.4638750000000  0.6002970000000 1.0
C      1  0.5918790000000  0.5310540000000  0.4572400000000 1.0
C      1  0.4185440000000  0.5339600000000  0.4466700000000 1.0
C      1  0.4962310000000  0.5372830000000  0.6018710000000 1.0
C      1  0.5836940000000  0.5122360000000  0.5131820000000 1.0
C      1  0.4408820000000  0.5172530000000  0.5668300000000 1.0
C      1  0.4792620000000  0.5234420000000  0.4104480000000 1.0
C      1  0.4160350000000  0.4866040000000  0.5195550000000 1.0
C      1  0.5565540000000  0.4817820000000  0.5648160000000 1.0
C      1  0.5246010000000  0.4784840000000  0.4166240000000 1.0
C      1  0.4831500000000  0.4629140000000  0.5103240000000 1.0
C      1  0.4928000000000  0.4628600000000  0.4777050000000 1.0
C      1  0.5170760000000  0.4612870000000  0.5122580000000 1.0
C      1  0.5212320000000  0.5360300000000  0.5117470000000 1.0
C      1  0.5079830000000  0.5324700000000  0.4805330000000 1.0
C      1  0.4692870000000  0.5347510000000  0.5132380000000 1.0
C      1  0.4516650000000  0.4870370000000  0.5943360000000 1.0
C      1  0.4306690000000  0.4790720000000  0.4086290000000 1.0
C      1  0.5987970000000  0.4888690000000  0.4816920000000 1.0
C      1  0.5546680000000  0.5178580000000  0.5869610000000 1.0
C      1  0.5612200000000  0.5267150000000  0.3999940000000 1.0
C      1  0.3990320000000  0.5175530000000  0.4922720000000 1.0
C      1  0.4293850000000  0.4295840000000  0.5145780000000 1.0
C      1  0.5175340000000  0.4319260000000  0.4382070000000 1.0
C      1  0.5426320000000  0.4315090000000  0.5499200000000 1.0
C      1  0.5640370000000  0.5692140000000  0.5180020000000 1.0
C      1  0.4879370000000  0.5685180000000  0.4411140000000 1.0
C      1  0.4518190000000  0.5697570000000  0.5487350000000 1.0
C      1  0.5754850000000  0.5576180000000  0.4529350000000 1.0
C      1  0.5041140000000  0.5630440000000  0.5887820000000 1.0
C      1  0.4238500000000  0.5602250000000  0.4597520000000 1.0
C      1  0.4290840000000  0.4341120000000  0.4537170000000 1.0
C      1  0.4917030000000  0.4386900000000  0.5881780000000 1.0
C      1  0.5725880000000  0.4357010000000  0.4572890000000 1.0
C      1  0.4262930000000  0.4867110000000  0.5636040000000 1.0
C      1  0.4832060000000  0.4946850000000  0.3936580000000 1.0
C      1  0.5834510000000  0.4948860000000  0.5385070000000 1.0
C      1  0.5777020000000  0.5083120000000  0.5671080000000 1.0
C      1  0.5118230000000  0.5019770000000  0.4020700000000 1.0
C      1  0.4101460000000  0.5065050000000  0.5437010000000 1.0
C      1  0.4227170000000  0.5313710000000  0.5043380000000 1.0
C      1  0.5402820000000  0.5432610000000  0.4088890000000 1.0
C      1  0.5394920000000  0.5374650000000  0.5736920000000 1.0
C      1  0.6030670000000  0.4648570000000  0.4971350000000 1.0
C      1  0.4533650000000  0.4606650000000  0.4163460000000 1.0
C      1  0.4594800000000  0.4664350000000  0.5768050000000 1.0
C      1  0.4659290000000  0.5360220000000  0.4458290000000 1.0
C      1  0.5657560000000  0.5288020000000  0.4925090000000 1.0
C      1  0.4686090000000  0.5366850000000  0.5636310000000 1.0
C      1  0.5368170000000  0.4663250000000  0.4436340000000 1.0
C      1  0.4304760000000  0.4621160000000  0.4914840000000 1.0
C      1  0.5261630000000  0.4665810000000  0.5635750000000 1.0
C      1  0.5700270000000  0.5043420000000  0.4147040000000 1.0
C      1  0.5361560000000  0.5001650000000  0.5985590000000 1.0
C      1  0.4055460000000  0.4908290000000  0.4793100000000 1.0
C      1  0.4261250000000  0.5079490000000  0.4260550000000 1.0
C      1  0.4729050000000  0.5124710000000  0.6019730000000 1.0
C      1  0.6049050000000  0.5183430000000  0.4799700000000 1.0
C      1  0.4733890000000  0.4368360000000  0.4812300000000 1.0
C      1  0.5344350000000  0.4419450000000  0.4933350000000 1.0
C      1  0.4891790000000  0.4408010000000  0.5354520000000 1.0
C      1  0.5304110000000  0.5546640000000  0.4775900000000 1.0
C      1  0.4658840000000  0.5575010000000  0.4909540000000 1.0
C      1  0.5074140000000  0.5558270000000  0.5343500000000 1.0
C      1  0.5396680000000  0.4606670000000  0.5353470000000 1.0
C      1  0.4501350000000  0.4565000000000  0.5159710000000 1.0
C      1  0.5031340000000  0.4617660000000  0.4457760000000 1.0
C      1  0.4535730000000  0.5397490000000  0.5363800000000 1.0
C      1  0.5509220000000  0.5393020000000  0.5164840000000 1.0
C      1  0.4989230000000  0.5370860000000  0.4480030000000 1.0
C      1  0.5544440000000  0.5394950000000  0.4680920000000 1.0
C      1  0.4958970000000  0.5466040000000  0.5631160000000 1.0
C      1  0.4502920000000  0.5455270000000  0.4680460000000 1.0
C      1  0.4503340000000  0.4544410000000  0.4674880000000 1.0
C      1  0.4994320000000  0.4540900000000  0.5618170000000 1.0
C      1  0.5486270000000  0.4545250000000  0.4687750000000 1.0
C      1  0.4815170000000  0.5000030000000  0.4350070000000 1.0
C      1  0.5537910000000  0.4960420000000  0.5119460000000 1.0
C      1  0.4581040000000  0.5007030000000  0.5437680000000 1.0
C      1  0.5148520000000  0.4996180000000  0.4417510000000 1.0
C      1  0.4446450000000  0.4970370000000  0.5147480000000 1.0
C      1  0.5454270000000  0.5059550000000  0.5436450000000 1.0
C      1  0.4411650000000  0.4131270000000  0.4420320000000 1.0
C      1  0.5798880000000  0.4181940000000  0.4764910000000 1.0
C      1  0.4763170000000  0.4174250000000  0.5809670000000 1.0
C      1  0.5626930000000  0.5795190000000  0.4405590000000 1.0
C      1  0.4188840000000  0.5830540000000  0.4751390000000 1.0
C      1  0.5207720000000  0.5848720000000  0.5833240000000 1.0
C      1  0.5630120000000  0.4772090000000  0.4247630000000 1.0
C      1  0.5319970000000  0.4726290000000  0.5950240000000 1.0
C      1  0.3976410000000  0.4666210000000  0.4991000000000 1.0
C      1  0.4515520000000  0.5241300000000  0.4245110000000 1.0
C      1  0.4512030000000  0.5370060000000  0.5928430000000 1.0
C      1  0.6058690000000  0.5350740000000  0.5057750000000 1.0
C      1  0.4309650000000  0.5497890000000  0.5674220000000 1.0
C      1  0.4910790000000  0.5552340000000  0.4129410000000 1.0
C      1  0.5884860000000  0.5501210000000  0.5248790000000 1.0
C      1  0.5612430000000  0.4481160000000  0.5664690000000 1.0
C      1  0.5104090000000  0.4480620000000  0.4092340000000 1.0
C      1  0.4115340000000  0.4531390000000  0.5255190000000 1.0
C      1  0.4279800000000  0.5101130000000  0.4658410000000 1.0
C      1  0.5736490000000  0.5098630000000  0.4452290000000 1.0
C      1  0.5099530000000  0.5128780000000  0.5863250000000 1.0
C      1  0.5737900000000  0.4850110000000  0.4633720000000 1.0
C      1  0.4295840000000  0.4840160000000  0.4482490000000 1.0
C      1  0.4907640000000  0.4891920000000  0.5862640000000 1.0
C      1  0.5379310000000  0.5828520000000  0.5603180000000 1.0
C      1  0.4281900000000  0.5841230000000  0.5022570000000 1.0
C      1  0.5340970000000  0.5839980000000  0.4371600000000 1.0
C      1  0.4676920000000  0.4194860000000  0.5492980000000 1.0
C      1  0.5673380000000  0.4275890000000  0.5023070000000 1.0
C      1  0.4695200000000  0.4145260000000  0.4382150000000 1.0
END
