TITL C-3289333-7213-710 0.000238617216390421 125000 -1009.42189380666 0 0 187 (C1) n - 1
REM
REM in /nfs/bkarasulu/CARBON/AIRSS/Generating-Clusters/AIREBO/with-SteepDescent/Higher-Symm/SD-CG/HFTN-CG
REM
REM
REM
REM
REM
REM ./C.cell (b20cbc046b6831c77cfcea5457e17084)
REM
REM compiler GCC version 9.2.1 20190827 (Red Hat 9.2.1-1)
REM options -cpp -mtune=generic -march=x86-64 -g -O0 -fpre-include=/usr/include/finclude/math-vector-fortran.h
REM seed -539892234 -1643256109 1598716488 -2060110614 -495554694 -324952691 2116200379 -1080571492 1744611099 -190386326 -1240673004 -1223885466 1610766316 -851565141 -812087446 536030818 927258341 -1666164117 543619840 -1343510520 -1013001893 -872130809 -413547119 1901587788 -938455635 762297000 1284304993 146350419 293680303 126782523 298303972 -1094919358 692883313
REM
CELL 1.54180   50.00000   50.00000   50.00000   90.00000   90.00000   90.00000
LATT -1
SFAC C  
C      1  0.4519960000000  0.4761750000000  0.4436010000000 1.0
C      1  0.4549360000000  0.4386490000000  0.4992500000000 1.0
C      1  0.4545090000000  0.4632760000000  0.5506660000000 1.0
C      1  0.4538570000000  0.5249910000000  0.5567620000000 1.0
C      1  0.4521080000000  0.5591570000000  0.5057000000000 1.0
C      1  0.4556820000000  0.5319360000000  0.4459730000000 1.0
C      1  0.5382620000000  0.4632920000000  0.4455290000000 1.0
C      1  0.5367800000000  0.4294540000000  0.5028720000000 1.0
C      1  0.5324030000000  0.4639390000000  0.5558660000000 1.0
C      1  0.5400450000000  0.5367810000000  0.5516310000000 1.0
C      1  0.5330450000000  0.5687880000000  0.4971180000000 1.0
C      1  0.5319050000000  0.5323130000000  0.4448610000000 1.0
C      1  0.4819210000000  0.5470110000000  0.4545770000000 1.0
C      1  0.4823750000000  0.4759860000000  0.4286410000000 1.0
C      1  0.4835140000000  0.4402470000000  0.4821940000000 1.0
C      1  0.4841810000000  0.4509040000000  0.5469670000000 1.0
C      1  0.4831400000000  0.5232120000000  0.5726590000000 1.0
C      1  0.4833210000000  0.5604680000000  0.5191370000000 1.0
C      1  0.5094600000000  0.5624920000000  0.4655760000000 1.0
C      1  0.4988940000000  0.5030900000000  0.4284030000000 1.0
C      1  0.5106620000000  0.4436060000000  0.4652920000000 1.0
C      1  0.5117250000000  0.4378230000000  0.5331550000000 1.0
C      1  0.4993910000000  0.4960930000000  0.5718690000000 1.0
C      1  0.5101550000000  0.5595720000000  0.5399990000000 1.0
C      1  0.5563930000000  0.5609070000000  0.5149970000000 1.0
C      1  0.5609740000000  0.5426590000000  0.4541790000000 1.0
C      1  0.5620840000000  0.4824920000000  0.4393920000000 1.0
C      1  0.5595340000000  0.4374180000000  0.4842240000000 1.0
C      1  0.5651120000000  0.4573030000000  0.5493420000000 1.0
C      1  0.5597660000000  0.5141170000000  0.5610630000000 1.0
C      1  0.4240120000000  0.5669350000000  0.5210860000000 1.0
C      1  0.4265520000000  0.5493760000000  0.4436240000000 1.0
C      1  0.4223290000000  0.4867970000000  0.4308090000000 1.0
C      1  0.4250280000000  0.4280820000000  0.4868570000000 1.0
C      1  0.4292460000000  0.4417910000000  0.5431500000000 1.0
C      1  0.4243260000000  0.5183140000000  0.5723540000000 1.0
C      1  0.4087760000000  0.4133080000000  0.5105600000000 1.0
C      1  0.4161530000000  0.4677050000000  0.5608470000000 1.0
C      1  0.4125440000000  0.5491350000000  0.5735670000000 1.0
C      1  0.3980230000000  0.5767080000000  0.4807990000000 1.0
C      1  0.4114800000000  0.5381700000000  0.4187150000000 1.0
C      1  0.3940660000000  0.4502680000000  0.4472030000000 1.0
C      1  0.5828350000000  0.4388020000000  0.5051470000000 1.0
C      1  0.5850990000000  0.4773770000000  0.5607180000000 1.0
C      1  0.5825450000000  0.5384380000000  0.5542210000000 1.0
C      1  0.5792870000000  0.5569250000000  0.4944720000000 1.0
C      1  0.5840110000000  0.5262590000000  0.4420150000000 1.0
C      1  0.5868820000000  0.4603910000000  0.4410490000000 1.0
C      1  0.4851910000000  0.4682920000000  0.3961590000000 1.0
C      1  0.4868470000000  0.4071860000000  0.4748870000000 1.0
C      1  0.4870020000000  0.4267140000000  0.5707080000000 1.0
C      1  0.4837470000000  0.5293650000000  0.6055340000000 1.0
C      1  0.4860920000000  0.5933390000000  0.5274310000000 1.0
C      1  0.4848400000000  0.5713980000000  0.4310520000000 1.0
C      1  0.5186980000000  0.4645690000000  0.4019600000000 1.0
C      1  0.5201470000000  0.4015110000000  0.4799520000000 1.0
C      1  0.5204180000000  0.4311590000000  0.5753060000000 1.0
C      1  0.5167750000000  0.5332750000000  0.5979970000000 1.0
C      1  0.5192610000000  0.5977420000000  0.5208350000000 1.0
C      1  0.5181330000000  0.5664600000000  0.4257670000000 1.0
C      1  0.4857470000000  0.6009800000000  0.4442920000000 1.0
C      1  0.4875150000000  0.4985090000000  0.3814430000000 1.0
C      1  0.4864740000000  0.4045870000000  0.4420670000000 1.0
C      1  0.4873800000000  0.3990330000000  0.5538280000000 1.0
C      1  0.4865750000000  0.4979190000000  0.6178710000000 1.0
C      1  0.4847690000000  0.5972420000000  0.5592880000000 1.0
C      1  0.5158310000000  0.5954810000000  0.4361400000000 1.0
C      1  0.5169610000000  0.4893330000000  0.3847150000000 1.0
C      1  0.5162200000000  0.3978060000000  0.4498370000000 1.0
C      1  0.5175180000000  0.4025250000000  0.5636040000000 1.0
C      1  0.5159210000000  0.5082170000000  0.6152550000000 1.0
C      1  0.5155810000000  0.6044950000000  0.5512970000000 1.0
C      1  0.4928870000000  0.4999930000000  0.4750050000000 1.0
C      1  0.4823030000000  0.4727870000000  0.4887630000000 1.0
C      1  0.4913810000000  0.4689770000000  0.5185920000000 1.0
C      1  0.4809870000000  0.4966480000000  0.5336640000000 1.0
C      1  0.4894990000000  0.5269440000000  0.5207550000000 1.0
C      1  0.4841450000000  0.5310470000000  0.4814700000000 1.0
C      1  0.5163560000000  0.4948700000000  0.4564670000000 1.0
C      1  0.5297090000000  0.4639570000000  0.4845540000000 1.0
C      1  0.5250160000000  0.4644040000000  0.5166220000000 1.0
C      1  0.5134970000000  0.5027160000000  0.5415970000000 1.0
C      1  0.5204610000000  0.5367190000000  0.5170230000000 1.0
C      1  0.5183380000000  0.5347180000000  0.4831130000000 1.0
C      1  0.6154530000000  0.5234540000000  0.4984440000000 1.0
C      1  0.6351130000000  0.5220400000000  0.4768430000000 1.0
C      1  0.6194410000000  0.4933780000000  0.4703100000000 1.0
C      1  0.6113220000000  0.4692430000000  0.4906330000000 1.0
C      1  0.6172280000000  0.4776100000000  0.5207290000000 1.0
C      1  0.6208980000000  0.5102300000000  0.5221610000000 1.0
C      1  0.3908950000000  0.5333580000000  0.5013550000000 1.0
C      1  0.3963550000000  0.5200050000000  0.4765160000000 1.0
C      1  0.3905990000000  0.4925050000000  0.4711030000000 1.0
C      1  0.3943010000000  0.4766220000000  0.4939980000000 1.0
C      1  0.3954950000000  0.4884650000000  0.5191610000000 1.0
C      1  0.3935220000000  0.5164460000000  0.5237640000000 1.0
C      1  0.5157980000000  0.5163620000000  0.4033390000000 1.0
C      1  0.5181930000000  0.4277000000000  0.4369550000000 1.0
C      1  0.5191790000000  0.4047270000000  0.5308700000000 1.0
C      1  0.5159890000000  0.4805470000000  0.5971460000000 1.0
C      1  0.5170880000000  0.5766160000000  0.5686000000000 1.0
C      1  0.5162250000000  0.5952690000000  0.4692760000000 1.0
C      1  0.4829210000000  0.5232480000000  0.3978450000000 1.0
C      1  0.4850890000000  0.4353730000000  0.4351200000000 1.0
C      1  0.4859550000000  0.4066210000000  0.5235450000000 1.0
C      1  0.4827460000000  0.4737000000000  0.6001930000000 1.0
C      1  0.4845200000000  0.5667110000000  0.5687800000000 1.0
C      1  0.4827870000000  0.5995740000000  0.4744310000000 1.0
C      1  0.5509620000000  0.5247150000000  0.4812710000000 1.0
C      1  0.5454020000000  0.4968640000000  0.4653560000000 1.0
C      1  0.5612080000000  0.4692980000000  0.4770140000000 1.0
C      1  0.5545780000000  0.4748760000000  0.5246220000000 1.0
C      1  0.5433570000000  0.5011110000000  0.5347440000000 1.0
C      1  0.5530200000000  0.5270910000000  0.5151390000000 1.0
C      1  0.4559920000000  0.5296850000000  0.4996250000000 1.0
C      1  0.4477920000000  0.5149110000000  0.4733730000000 1.0
C      1  0.4553720000000  0.4858600000000  0.4726190000000 1.0
C      1  0.4437560000000  0.4691670000000  0.4976620000000 1.0
C      1  0.4500420000000  0.4847340000000  0.5260840000000 1.0
C      1  0.4449790000000  0.5170500000000  0.5253930000000 1.0
C      1  0.5834240000000  0.5652100000000  0.5546150000000 1.0
C      1  0.5819540000000  0.5736530000000  0.4727550000000 1.0
C      1  0.5830210000000  0.5140260000000  0.4179000000000 1.0
C      1  0.5863270000000  0.4326970000000  0.4426880000000 1.0
C      1  0.5854360000000  0.4223780000000  0.5272510000000 1.0
C      1  0.5814580000000  0.4880160000000  0.5857810000000 1.0
C      1  0.4142410000000  0.5642780000000  0.5535520000000 1.0
C      1  0.4147600000000  0.5772350000000  0.4603220000000 1.0
C      1  0.4117290000000  0.5135310000000  0.4140560000000 1.0
C      1  0.4084090000000  0.4297910000000  0.4563250000000 1.0
C      1  0.4070940000000  0.4224580000000  0.5343490000000 1.0
C      1  0.4181310000000  0.4860200000000  0.5810370000000 1.0
C      1  0.5450800000000  0.5369350000000  0.5903080000000 1.0
C      1  0.5497050000000  0.6001430000000  0.5136690000000 1.0
C      1  0.5471590000000  0.5607000000000  0.4218680000000 1.0
C      1  0.5482850000000  0.4613250000000  0.4084140000000 1.0
C      1  0.5522550000000  0.3982140000000  0.4860510000000 1.0
C      1  0.5495600000000  0.4365040000000  0.5785110000000 1.0
C      1  0.4527100000000  0.5353040000000  0.5946540000000 1.0
C      1  0.4572350000000  0.5969760000000  0.5146860000000 1.0
C      1  0.4563180000000  0.5619350000000  0.4206650000000 1.0
C      1  0.4531100000000  0.4629430000000  0.4061060000000 1.0
C      1  0.4560910000000  0.4035240000000  0.4820530000000 1.0
C      1  0.4570460000000  0.4358690000000  0.5785230000000 1.0
C      1  0.3984480000000  0.4782240000000  0.4475220000000 1.0
C      1  0.4146730000000  0.4585960000000  0.4913530000000 1.0
C      1  0.4175160000000  0.4789100000000  0.5341040000000 1.0
C      1  0.4163350000000  0.5194930000000  0.5402550000000 1.0
C      1  0.3998750000000  0.5603460000000  0.5036610000000 1.0
C      1  0.4203040000000  0.5278570000000  0.4658990000000 1.0
C      1  0.5898830000000  0.4768520000000  0.4674710000000 1.0
C      1  0.5852050000000  0.4686310000000  0.5123980000000 1.0
C      1  0.5975800000000  0.4940920000000  0.5405380000000 1.0
C      1  0.5830780000000  0.5204370000000  0.5295780000000 1.0
C      1  0.5839570000000  0.5270560000000  0.4892780000000 1.0
C      1  0.5980250000000  0.5160320000000  0.4634220000000 1.0
C      1  0.5501140000000  0.4061310000000  0.5191760000000 1.0
C      1  0.5460940000000  0.4696880000000  0.5854840000000 1.0
C      1  0.5459570000000  0.5626420000000  0.5679110000000 1.0
C      1  0.5474310000000  0.5919450000000  0.4806480000000 1.0
C      1  0.5456290000000  0.5273300000000  0.4151180000000 1.0
C      1  0.5483570000000  0.4363000000000  0.4315770000000 1.0
C      1  0.4550270000000  0.4099000000000  0.5155300000000 1.0
C      1  0.4553560000000  0.4699150000000  0.5830810000000 1.0
C      1  0.4552790000000  0.5565060000000  0.5678210000000 1.0
C      1  0.4557930000000  0.5838400000000  0.4830100000000 1.0
C      1  0.4572650000000  0.5284470000000  0.4142930000000 1.0
C      1  0.4554220000000  0.4436680000000  0.4343960000000 1.0
C      1  0.4416690000000  0.4228330000000  0.4576580000000 1.0
C      1  0.4555740000000  0.4230010000000  0.5470360000000 1.0
C      1  0.4469250000000  0.5018400000000  0.5917100000000 1.0
C      1  0.4493640000000  0.5771380000000  0.5413230000000 1.0
C      1  0.4473960000000  0.5752310000000  0.4509700000000 1.0
C      1  0.4469980000000  0.4963150000000  0.4094330000000 1.0
C      1  0.5597200000000  0.4188270000000  0.4586800000000 1.0
C      1  0.5585360000000  0.4238640000000  0.5472560000000 1.0
C      1  0.5523490000000  0.5029600000000  0.5898620000000 1.0
C      1  0.5574110000000  0.5797320000000  0.5406340000000 1.0
C      1  0.5560130000000  0.5755690000000  0.4518940000000 1.0
C      1  0.5560940000000  0.4951340000000  0.4107920000000 1.0
C      1  0.5060270000000  0.4684840000000  0.5604770000000 1.0
C      1  0.5051970000000  0.5300330000000  0.4414890000000 1.0
C      1  0.5071560000000  0.4673770000000  0.4440770000000 1.0
C      1  0.5072020000000  0.4313260000000  0.5029790000000 1.0
C      1  0.5036610000000  0.5692360000000  0.4966900000000 1.0
C      1  0.5084350000000  0.5312540000000  0.5556140000000 1.0
C      1  0.5028430000000  0.5039240000000  0.5031640000000 1.0
END
