TITL C-3289328-6581-602 239.478566980689 125000 -628.248146085587 0 0 116 (C1) n - 1
REM
REM in /nfs/bkarasulu/CARBON/AIRSS/Generating-Clusters/AIREBO/with-SteepDescent/Higher-Symm/SD-CG/HFTN-CG
REM
REM
REM
REM
REM
REM ./C.cell (b20cbc046b6831c77cfcea5457e17084)
REM
REM compiler GCC version 9.2.1 20190827 (Red Hat 9.2.1-1)
REM options -cpp -mtune=generic -march=x86-64 -g -O0 -fpre-include=/usr/include/finclude/math-vector-fortran.h
REM seed -675988769 -1046793163 -1587032325 -1380190960 -1942170737 1925474247 504694605 50330275 1385353160 -1253001063 -1890296711 -1866979407 -67543873 -1942791145 -243685178 -1365841460 -869550649 -134198618 -1236576590 2133692863 1661143896 192484707 -460726652 1273275332 -939637854 450879091 183843684 -680755662 -1484314541 -313014281 1347646767 -1494193007 949265329
REM
CELL 1.54180   50.00000   50.00000   50.00000   90.00000   90.00000   90.00000
LATT -1
SFAC C  
C      1  0.5500580000000  0.5680760000000  0.5011050000000 1.0
C      1  0.4772320000000  0.5652680000000  0.4542320000000 1.0
C      1  0.4746690000000  0.5695180000000  0.5413330000000 1.0
C      1  0.5314490000000  0.4716050000000  0.5259090000000 1.0
C      1  0.5049830000000  0.4676820000000  0.4601080000000 1.0
C      1  0.4695670000000  0.4663800000000  0.5217210000000 1.0
C      1  0.5642330000000  0.5347750000000  0.4528010000000 1.0
C      1  0.4296250000000  0.5343480000000  0.4721480000000 1.0
C      1  0.5088490000000  0.5380140000000  0.5786530000000 1.0
C      1  0.4900260000000  0.4149240000000  0.5309260000000 1.0
C      1  0.5267020000000  0.4223180000000  0.4911320000000 1.0
C      1  0.4743950000000  0.4237850000000  0.4822690000000 1.0
C      1  0.4981350000000  0.4784260000000  0.5316810000000 1.0
C      1  0.5311140000000  0.4787100000000  0.4926790000000 1.0
C      1  0.4805010000000  0.4761170000000  0.4793340000000 1.0
C      1  0.5551860000000  0.4675050000000  0.4419290000000 1.0
C      1  0.4203410000000  0.4745360000000  0.4911200000000 1.0
C      1  0.5243170000000  0.4755820000000  0.5769630000000 1.0
C      1  0.5367930000000  0.5216340000000  0.4635380000000 1.0
C      1  0.4509020000000  0.5152140000000  0.4888150000000 1.0
C      1  0.5133570000000  0.5255670000000  0.5489910000000 1.0
C      1  0.4933110000000  0.4859930000000  0.5726610000000 1.0
C      1  0.5700880000000  0.4853590000000  0.4668290000000 1.0
C      1  0.4352160000000  0.4840430000000  0.4620110000000 1.0
C      1  0.5766130000000  0.5551740000000  0.5310970000000 1.0
C      1  0.4893960000000  0.5485050000000  0.4177470000000 1.0
C      1  0.4337530000000  0.5616030000000  0.5525390000000 1.0
C      1  0.5059210000000  0.4482600000000  0.5747120000000 1.0
C      1  0.5596910000000  0.4374110000000  0.4560570000000 1.0
C      1  0.4303810000000  0.4466450000000  0.4741730000000 1.0
C      1  0.5258310000000  0.5614690000000  0.4784840000000 1.0
C      1  0.4715660000000  0.5595740000000  0.4864720000000 1.0
C      1  0.5060250000000  0.5635390000000  0.5325700000000 1.0
C      1  0.4302410000000  0.4554330000000  0.5559810000000 1.0
C      1  0.5713100000000  0.4534160000000  0.5335340000000 1.0
C      1  0.4925070000000  0.4500580000000  0.4222090000000 1.0
C      1  0.4768550000000  0.4580390000000  0.5771290000000 1.0
C      1  0.5738160000000  0.4553360000000  0.4751150000000 1.0
C      1  0.4392350000000  0.4554570000000  0.4466840000000 1.0
C      1  0.4637650000000  0.4469940000000  0.4375360000000 1.0
C      1  0.4567050000000  0.4471720000000  0.5622450000000 1.0
C      1  0.5705320000000  0.4492520000000  0.5017470000000 1.0
C      1  0.4317140000000  0.5123830000000  0.4495910000000 1.0
C      1  0.4857750000000  0.5157720000000  0.5820140000000 1.0
C      1  0.5822570000000  0.5141750000000  0.4680600000000 1.0
C      1  0.4214600000000  0.4847270000000  0.5462840000000 1.0
C      1  0.5738980000000  0.4854830000000  0.5415110000000 1.0
C      1  0.4992700000000  0.4821850000000  0.4180310000000 1.0
C      1  0.4129810000000  0.5142750000000  0.5359700000000 1.0
C      1  0.5519210000000  0.5077000000000  0.5480880000000 1.0
C      1  0.5185720000000  0.5023050000000  0.4335500000000 1.0
C      1  0.5504500000000  0.5248730000000  0.4261450000000 1.0
C      1  0.4148560000000  0.5288600000000  0.4991180000000 1.0
C      1  0.5396140000000  0.5299580000000  0.5787830000000 1.0
C      1  0.5435110000000  0.4371100000000  0.5443800000000 1.0
C      1  0.5140530000000  0.4333190000000  0.4425080000000 1.0
C      1  0.4421300000000  0.4356630000000  0.5169360000000 1.0
C      1  0.4965330000000  0.5646590000000  0.5655180000000 1.0
C      1  0.5589190000000  0.5607030000000  0.4699750000000 1.0
C      1  0.4460550000000  0.5589380000000  0.4637560000000 1.0
C      1  0.5107060000000  0.5417950000000  0.4552250000000 1.0
C      1  0.4547460000000  0.5409970000000  0.5094730000000 1.0
C      1  0.5341460000000  0.5445860000000  0.5299590000000 1.0
C      1  0.5790950000000  0.5050810000000  0.5172630000000 1.0
C      1  0.4752620000000  0.5005140000000  0.4260140000000 1.0
C      1  0.4427180000000  0.5099290000000  0.5519950000000 1.0
C      1  0.5437010000000  0.4995130000000  0.5791770000000 1.0
C      1  0.5486420000000  0.4936340000000  0.4258090000000 1.0
C      1  0.4082370000000  0.4997580000000  0.5056010000000 1.0
C      1  0.4648980000000  0.4984590000000  0.4668690000000 1.0
C      1  0.4916420000000  0.5045970000000  0.5442210000000 1.0
C      1  0.5482220000000  0.5013900000000  0.4847090000000 1.0
C      1  0.5253770000000  0.4611580000000  0.4268120000000 1.0
C      1  0.4227420000000  0.4609860000000  0.5223040000000 1.0
C      1  0.5519020000000  0.4658380000000  0.5595940000000 1.0
C      1  0.5434390000000  0.5772550000000  0.5283150000000 1.0
C      1  0.5040480000000  0.5735740000000  0.4451230000000 1.0
C      1  0.4560740000000  0.5726360000000  0.5207040000000 1.0
C      1  0.5876880000000  0.5230080000000  0.4942380000000 1.0
C      1  0.4516830000000  0.5188010000000  0.4308050000000 1.0
C      1  0.4614880000000  0.5254220000000  0.5720660000000 1.0
C      1  0.4853210000000  0.5191100000000  0.4523380000000 1.0
C      1  0.4658730000000  0.5168760000000  0.5318580000000 1.0
C      1  0.5510660000000  0.5226360000000  0.5099820000000 1.0
C      1  0.4259210000000  0.5438690000000  0.5272900000000 1.0
C      1  0.5579040000000  0.5407720000000  0.5539840000000 1.0
C      1  0.5188650000000  0.5347210000000  0.4229780000000 1.0
C      1  0.5403540000000  0.4422910000000  0.5111220000000 1.0
C      1  0.4857260000000  0.4402060000000  0.4600060000000 1.0
C      1  0.4662950000000  0.4373930000000  0.5353650000000 1.0
C      1  0.5346180000000  0.4260170000000  0.4636870000000 1.0
C      1  0.4477610000000  0.4307800000000  0.4900560000000 1.0
C      1  0.5125760000000  0.4346860000000  0.5474960000000 1.0
C      1  0.4733850000000  0.4962500000000  0.5058860000000 1.0
C      1  0.5268290000000  0.5052970000000  0.5252440000000 1.0
C      1  0.5101630000000  0.5006900000000  0.4664720000000 1.0
C      1  0.4608160000000  0.5467830000000  0.4328570000000 1.0
C      1  0.4619230000000  0.5546300000000  0.5673200000000 1.0
C      1  0.5782290000000  0.5507420000000  0.4990850000000 1.0
C      1  0.4989290000000  0.6281300000000  0.4965280000000 1.0
C      1  0.4973930000000  0.6813080000000  0.4972750000000 1.0
C      1  0.5008810000000  0.5706330000000  0.4997070000000 1.0
C      1  0.5023100000000  0.4680410000000  0.4995760000000 1.0
C      1  0.5029060000000  0.2744480000000  0.4740330000000 1.0
C      1  0.4969130000000  0.6546860000000  0.4964830000000 1.0
C      1  0.4973710000000  0.4084440000000  0.4983620000000 1.0
C      1  0.4984870000000  0.6017590000000  0.4974970000000 1.0
C      1  0.4953470000000  0.7078250000000  0.4988050000000 1.0
C      1  0.5021970000000  0.2999470000000  0.4800640000000 1.0
C      1  0.5047090000000  0.5078630000000  0.4994680000000 1.0
C      1  0.4975480000000  0.3783670000000  0.4926920000000 1.0
C      1  0.5014640000000  0.5366370000000  0.4995140000000 1.0
C      1  0.5010240000000  0.4426050000000  0.5165140000000 1.0
C      1  0.5015620000000  0.3263380000000  0.4836380000000 1.0
C      1  0.4996620000000  0.3522580000000  0.4894740000000 1.0
C      1  0.4957310000000  0.7340270000000  0.4994250000000 1.0
END
