TITL C-3289326-3776-45 5.23304746434682e-05 125000 -484.101961313788 0 0 86 (C1) n - 1
REM
REM in /nfs/bkarasulu/CARBON/AIRSS/Generating-Clusters/AIREBO/with-SteepDescent/Higher-Symm/SD-CG/HFTN-CG
REM
REM
REM
REM
REM
REM ./C.cell (b20cbc046b6831c77cfcea5457e17084)
REM
REM compiler GCC version 9.2.1 20190827 (Red Hat 9.2.1-1)
REM options -cpp -mtune=generic -march=x86-64 -g -O0 -fpre-include=/usr/include/finclude/math-vector-fortran.h
REM seed 331052857 -765100266 -1837674230 699249800 493973737 -202103284 1706286169 601247989 -1701074114 -1097528381 -982255034 1206629081 1563699397 -713695534 -10605781 180363464 22686638 163098052 -1391736852 1148566006 -591044324 -1944261275 -1187530915 -628192832 467085707 1841362169 91871802 1397386056 760523638 457591630 -934503589 756535813 -920577243
REM
CELL 1.54180   50.00000   50.00000   50.00000   90.00000   90.00000   90.00000
LATT -1
SFAC C  
C      1  0.4617610000000  0.4467970000000  0.5352530000000 1.0
C      1  0.4870620000000  0.4546370000000  0.5480010000000 1.0
C      1  0.5109930000000  0.4496220000000  0.5330640000000 1.0
C      1  0.5377510000000  0.4579350000000  0.5313720000000 1.0
C      1  0.5492910000000  0.4613060000000  0.5050620000000 1.0
C      1  0.5443020000000  0.4592160000000  0.4775150000000 1.0
C      1  0.5278910000000  0.4480880000000  0.4558670000000 1.0
C      1  0.5006850000000  0.4562000000000  0.4511860000000 1.0
C      1  0.4724500000000  0.4475930000000  0.4591940000000 1.0
C      1  0.4550180000000  0.4560730000000  0.4798770000000 1.0
C      1  0.4541800000000  0.4578900000000  0.5085100000000 1.0
C      1  0.4852830000000  0.4773500000000  0.5684000000000 1.0
C      1  0.5282340000000  0.4922040000000  0.5803330000000 1.0
C      1  0.5556640000000  0.4789610000000  0.5453410000000 1.0
C      1  0.5718700000000  0.4828780000000  0.5071840000000 1.0
C      1  0.5636780000000  0.4813670000000  0.4654180000000 1.0
C      1  0.5414280000000  0.4951890000000  0.4243790000000 1.0
C      1  0.4971130000000  0.4802470000000  0.4297230000000 1.0
C      1  0.4510100000000  0.4951410000000  0.4318280000000 1.0
C      1  0.4344520000000  0.4792990000000  0.4736280000000 1.0
C      1  0.4322880000000  0.4806640000000  0.5142100000000 1.0
C      1  0.4415310000000  0.4947980000000  0.5596390000000 1.0
C      1  0.5724780000000  0.5412520000000  0.5073620000000 1.0
C      1  0.5629970000000  0.5391720000000  0.4665030000000 1.0
C      1  0.5373490000000  0.5465670000000  0.4367680000000 1.0
C      1  0.4983470000000  0.5401890000000  0.4308990000000 1.0
C      1  0.4601240000000  0.5463730000000  0.4406410000000 1.0
C      1  0.4367540000000  0.5384870000000  0.4720320000000 1.0
C      1  0.4319840000000  0.5387780000000  0.5153860000000 1.0
C      1  0.4497650000000  0.5454780000000  0.5504800000000 1.0
C      1  0.4854160000000  0.5375450000000  0.5665750000000 1.0
C      1  0.5248930000000  0.5433530000000  0.5682190000000 1.0
C      1  0.5552590000000  0.5365750000000  0.5430960000000 1.0
C      1  0.5548690000000  0.5662170000000  0.5047070000000 1.0
C      1  0.5492920000000  0.5630220000000  0.4752880000000 1.0
C      1  0.5280340000000  0.5698440000000  0.4544780000000 1.0
C      1  0.4989680000000  0.5640610000000  0.4469460000000 1.0
C      1  0.4707850000000  0.5694160000000  0.4579120000000 1.0
C      1  0.4517700000000  0.5620030000000  0.4807400000000 1.0
C      1  0.4488430000000  0.5621600000000  0.5100820000000 1.0
C      1  0.4637570000000  0.5686700000000  0.5361530000000 1.0
C      1  0.4893720000000  0.5620000000000  0.5519630000000 1.0
C      1  0.5194620000000  0.5673900000000  0.5499740000000 1.0
C      1  0.5439930000000  0.5610550000000  0.5330050000000 1.0
C      1  0.5449030000000  0.5064240000000  0.5358040000000 1.0
C      1  0.5584270000000  0.5129510000000  0.5052780000000 1.0
C      1  0.5518450000000  0.5089950000000  0.4721370000000 1.0
C      1  0.5317960000000  0.5168470000000  0.4458060000000 1.0
C      1  0.4987920000000  0.5093430000000  0.4418980000000 1.0
C      1  0.4663850000000  0.5166090000000  0.4493610000000 1.0
C      1  0.4485100000000  0.5084020000000  0.4771880000000 1.0
C      1  0.4447850000000  0.5092140000000  0.5109710000000 1.0
C      1  0.4570270000000  0.5158980000000  0.5420000000000 1.0
C      1  0.4870630000000  0.5068070000000  0.5552580000000 1.0
C      1  0.5202660000000  0.5137680000000  0.5580750000000 1.0
C      1  0.4573640000000  0.4841320000000  0.5798320000000 1.0
C      1  0.5067980000000  0.4774670000000  0.5893040000000 1.0
C      1  0.5522410000000  0.4795400000000  0.5750460000000 1.0
C      1  0.5859030000000  0.4773850000000  0.5353130000000 1.0
C      1  0.5910600000000  0.4785890000000  0.4813790000000 1.0
C      1  0.5583030000000  0.4757890000000  0.4352820000000 1.0
C      1  0.5198810000000  0.4846050000000  0.4098930000000 1.0
C      1  0.4677580000000  0.4753550000000  0.4218090000000 1.0
C      1  0.4279140000000  0.4856880000000  0.4442010000000 1.0
C      1  0.4089600000000  0.4767880000000  0.4930660000000 1.0
C      1  0.4278050000000  0.4758620000000  0.5445870000000 1.0
C      1  0.5050650000000  0.4625810000000  0.6120790000000 1.0
C      1  0.5684300000000  0.4660980000000  0.5923260000000 1.0
C      1  0.6093410000000  0.4762190000000  0.5454570000000 1.0
C      1  0.6160530000000  0.4809600000000  0.4762100000000 1.0
C      1  0.5466710000000  0.4493130000000  0.4333990000000 1.0
C      1  0.5195440000000  0.4752670000000  0.3843210000000 1.0
C      1  0.4612630000000  0.4491110000000  0.4317390000000 1.0
C      1  0.4044710000000  0.4781020000000  0.4325370000000 1.0
C      1  0.3842280000000  0.4704570000000  0.4924690000000 1.0
C      1  0.4369560000000  0.4490060000000  0.5505300000000 1.0
C      1  0.4495550000000  0.4757040000000  0.6045700000000 1.0
C      1  0.4985780000000  0.4907210000000  0.4974340000000 1.0
C      1  0.5017240000000  0.5711850000000  0.5002450000000 1.0
C      1  0.5031440000000  0.4415130000000  0.5068360000000 1.0
C      1  0.5010930000000  0.5174150000000  0.4977810000000 1.0
C      1  0.5045960000000  0.3898930000000  0.4919550000000 1.0
C      1  0.5050800000000  0.4152290000000  0.4986400000000 1.0
C      1  0.5035010000000  0.5974700000000  0.5016310000000 1.0
C      1  0.4915820000000  0.4643040000000  0.4937870000000 1.0
C      1  0.5020330000000  0.5440200000000  0.5001940000000 1.0
END
