TITL C-3289335-9438-258 -0.00201400723296276 125000 -628.917941279087 0 0 110 (C1) n - 1
REM
REM in /nfs/bkarasulu/CARBON/AIRSS/Generating-Clusters/AIREBO/with-SteepDescent/Higher-Symm/SD-CG/HFTN-CG
REM
REM
REM
REM
REM
REM ./C.cell (b20cbc046b6831c77cfcea5457e17084)
REM
REM compiler GCC version 9.2.1 20190827 (Red Hat 9.2.1-1)
REM options -cpp -mtune=generic -march=x86-64 -g -O0 -fpre-include=/usr/include/finclude/math-vector-fortran.h
REM seed 2056880124 361596835 37398394 1734884676 -1757737194 -42365793 -1016133940 -775275306 -700807984 -878057777 1630363139 -234774704 -1953820285 40492369 1561864636 -128467973 -501132644 26733994 -631185482 1572258822 757163082 -1678372260 -69572680 1793317661 -1627423569 1702748829 808964936 -1840922817 -1509045326 963024578 1808827956 -490561289 -1078144793
REM
CELL 1.54180   50.00000   50.00000   50.00000   90.00000   90.00000   90.00000
LATT -1
SFAC C  
C      1  0.4321010000000  0.4537340000000  0.4589920000000 1.0
C      1  0.4389030000000  0.4849850000000  0.4473770000000 1.0
C      1  0.4371720000000  0.5167010000000  0.4431720000000 1.0
C      1  0.4367310000000  0.5402400000000  0.4590790000000 1.0
C      1  0.4380790000000  0.5430070000000  0.4869340000000 1.0
C      1  0.4341150000000  0.5345330000000  0.5163280000000 1.0
C      1  0.4310560000000  0.5261560000000  0.5428270000000 1.0
C      1  0.4285640000000  0.4992350000000  0.5539940000000 1.0
C      1  0.4244350000000  0.4734260000000  0.5428330000000 1.0
C      1  0.4330490000000  0.4534630000000  0.5197790000000 1.0
C      1  0.4270120000000  0.4480270000000  0.4912540000000 1.0
C      1  0.4830590000000  0.4413750000000  0.4158820000000 1.0
C      1  0.4728010000000  0.4963490000000  0.3960990000000 1.0
C      1  0.4734600000000  0.5564480000000  0.4120740000000 1.0
C      1  0.4738470000000  0.5900920000000  0.4603780000000 1.0
C      1  0.4826830000000  0.6062140000000  0.5170010000000 1.0
C      1  0.4836140000000  0.5788830000000  0.5717630000000 1.0
C      1  0.4707830000000  0.5201270000000  0.5940900000000 1.0
C      1  0.4898770000000  0.4774920000000  0.6033120000000 1.0
C      1  0.4680050000000  0.4418360000000  0.5687510000000 1.0
C      1  0.4743130000000  0.4015030000000  0.5199780000000 1.0
C      1  0.4730750000000  0.4139350000000  0.4687680000000 1.0
C      1  0.4497360000000  0.5413300000000  0.5621880000000 1.0
C      1  0.4456250000000  0.5065970000000  0.5812140000000 1.0
C      1  0.4413110000000  0.4521480000000  0.5587870000000 1.0
C      1  0.4625860000000  0.4386020000000  0.5280750000000 1.0
C      1  0.4532870000000  0.4321130000000  0.4847280000000 1.0
C      1  0.4600640000000  0.4381930000000  0.4461930000000 1.0
C      1  0.4630230000000  0.4787120000000  0.4231020000000 1.0
C      1  0.4616250000000  0.5206500000000  0.4253790000000 1.0
C      1  0.4562650000000  0.5641890000000  0.4471080000000 1.0
C      1  0.4656630000000  0.5649610000000  0.4898750000000 1.0
C      1  0.4760480000000  0.5643330000000  0.5431160000000 1.0
C      1  0.5176660000000  0.5114390000000  0.5365120000000 1.0
C      1  0.5096410000000  0.4869940000000  0.5444010000000 1.0
C      1  0.5205840000000  0.4656000000000  0.5314910000000 1.0
C      1  0.5071950000000  0.4594080000000  0.5087040000000 1.0
C      1  0.5206060000000  0.4504340000000  0.4869900000000 1.0
C      1  0.5218100000000  0.4601480000000  0.4613940000000 1.0
C      1  0.5167450000000  0.4885020000000  0.4553730000000 1.0
C      1  0.5172430000000  0.5208260000000  0.4546600000000 1.0
C      1  0.5039300000000  0.5353090000000  0.4748260000000 1.0
C      1  0.5118270000000  0.5407020000000  0.5008010000000 1.0
C      1  0.5010880000000  0.5259070000000  0.5208400000000 1.0
C      1  0.5730170000000  0.5365540000000  0.5190680000000 1.0
C      1  0.5655580000000  0.5195270000000  0.5402340000000 1.0
C      1  0.5740170000000  0.4930550000000  0.5382740000000 1.0
C      1  0.5713630000000  0.4680140000000  0.5267660000000 1.0
C      1  0.5809330000000  0.4574170000000  0.5023170000000 1.0
C      1  0.5661620000000  0.4459210000000  0.4808120000000 1.0
C      1  0.5613410000000  0.4612800000000  0.4570850000000 1.0
C      1  0.5588840000000  0.4895430000000  0.4514410000000 1.0
C      1  0.5687480000000  0.5150360000000  0.4610700000000 1.0
C      1  0.5592850000000  0.5409610000000  0.4701600000000 1.0
C      1  0.5588920000000  0.5480170000000  0.4974510000000 1.0
C      1  0.4820900000000  0.4205520000000  0.5470580000000 1.0
C      1  0.4878300000000  0.4040040000000  0.4958810000000 1.0
C      1  0.4926390000000  0.4285010000000  0.4451040000000 1.0
C      1  0.4919810000000  0.4710200000000  0.4069500000000 1.0
C      1  0.4813190000000  0.5266520000000  0.4010870000000 1.0
C      1  0.4890010000000  0.5700450000000  0.4383340000000 1.0
C      1  0.4859190000000  0.5897800000000  0.4904740000000 1.0
C      1  0.4947240000000  0.5914180000000  0.5421010000000 1.0
C      1  0.4793420000000  0.5457910000000  0.5783010000000 1.0
C      1  0.4928950000000  0.5060280000000  0.6045930000000 1.0
C      1  0.4809680000000  0.4655120000000  0.5792860000000 1.0
C      1  0.4577400000000  0.5567320000000  0.5181230000000 1.0
C      1  0.4754900000000  0.5331070000000  0.5328480000000 1.0
C      1  0.4666260000000  0.5126560000000  0.5551680000000 1.0
C      1  0.4825040000000  0.4862880000000  0.5558440000000 1.0
C      1  0.4639320000000  0.4690550000000  0.5398280000000 1.0
C      1  0.4781380000000  0.4626030000000  0.5106000000000 1.0
C      1  0.4645250000000  0.4602600000000  0.4850690000000 1.0
C      1  0.4682610000000  0.4698640000000  0.4555190000000 1.0
C      1  0.4871940000000  0.4946590000000  0.4577250000000 1.0
C      1  0.4762080000000  0.5188950000000  0.4511590000000 1.0
C      1  0.4755840000000  0.5448460000000  0.4673300000000 1.0
C      1  0.5113020000000  0.5294220000000  0.4002130000000 1.0
C      1  0.5179370000000  0.5752490000000  0.4322080000000 1.0
C      1  0.5159530000000  0.5829960000000  0.4892530000000 1.0
C      1  0.5244270000000  0.5891820000000  0.5405280000000 1.0
C      1  0.5095550000000  0.5436460000000  0.5698280000000 1.0
C      1  0.5191270000000  0.5188470000000  0.6027040000000 1.0
C      1  0.5371190000000  0.4540960000000  0.5840760000000 1.0
C      1  0.5128370000000  0.4200530000000  0.5497120000000 1.0
C      1  0.5151360000000  0.4044460000000  0.4994060000000 1.0
C      1  0.5215950000000  0.4208810000000  0.4449520000000 1.0
C      1  0.5212970000000  0.4749720000000  0.4061010000000 1.0
C      1  0.5307160000000  0.5860320000000  0.4655820000000 1.0
C      1  0.5454070000000  0.5953170000000  0.5187100000000 1.0
C      1  0.5369990000000  0.5591460000000  0.5786300000000 1.0
C      1  0.5268840000000  0.5467080000000  0.6054590000000 1.0
C      1  0.5442520000000  0.4804440000000  0.5869730000000 1.0
C      1  0.5306450000000  0.4398310000000  0.5607190000000 1.0
C      1  0.5260900000000  0.4087370000000  0.5268810000000 1.0
C      1  0.5351130000000  0.4062420000000  0.4643030000000 1.0
C      1  0.5378750000000  0.4517180000000  0.4083170000000 1.0
C      1  0.5329910000000  0.5096350000000  0.4007420000000 1.0
C      1  0.5388410000000  0.5618970000000  0.4116950000000 1.0
C      1  0.5371430000000  0.5070880000000  0.5834100000000 1.0
C      1  0.5484730000000  0.4520150000000  0.5364510000000 1.0
C      1  0.5510930000000  0.4241660000000  0.5230640000000 1.0
C      1  0.5404680000000  0.4260990000000  0.4913770000000 1.0
C      1  0.5405370000000  0.4444990000000  0.4377180000000 1.0
C      1  0.5357220000000  0.4947770000000  0.4296460000000 1.0
C      1  0.5248160000000  0.5363920000000  0.4292770000000 1.0
C      1  0.5398760000000  0.5575790000000  0.4512730000000 1.0
C      1  0.5337190000000  0.5639180000000  0.5110840000000 1.0
C      1  0.5362790000000  0.5588540000000  0.5446240000000 1.0
C      1  0.5363660000000  0.5266660000000  0.5556030000000 1.0
END
