TITL C-3289330-4660-473 0.00356935148864966 125000 -441.171547905041 0 0 83 (C1) n - 1
REM
REM in /nfs/bkarasulu/CARBON/AIRSS/Generating-Clusters/AIREBO/with-SteepDescent/Higher-Symm/SD-CG/HFTN-CG
REM
REM
REM
REM
REM
REM ./C.cell (b20cbc046b6831c77cfcea5457e17084)
REM
REM compiler GCC version 9.2.1 20190827 (Red Hat 9.2.1-1)
REM options -cpp -mtune=generic -march=x86-64 -g -O0 -fpre-include=/usr/include/finclude/math-vector-fortran.h
REM seed -1637138545 -1682804041 1307346274 -468225542 1427686927 1123394777 -967120197 -664262816 609513782 -906718916 1202255013 704793793 -328540874 107846045 -559928296 -2040861252 1831892424 -1504954011 -517120148 525025156 -1443765648 1534840632 1468533347 1178277939 -596502297 -1915535257 -608632095 -2087631043 505741061 1336073757 172498074 -694425713 1576111400
REM
CELL 1.54180   50.00000   50.00000   50.00000   90.00000   90.00000   90.00000
LATT -1
SFAC C  
C      1  0.4266320000000  0.4611640000000  0.5102370000000 1.0
C      1  0.5119050000000  0.4176140000000  0.5124790000000 1.0
C      1  0.5809620000000  0.4871990000000  0.5126760000000 1.0
C      1  0.5386250000000  0.5731740000000  0.5097430000000 1.0
C      1  0.4437150000000  0.5540710000000  0.5156330000000 1.0
C      1  0.4260820000000  0.4648800000000  0.4854710000000 1.0
C      1  0.5092180000000  0.4183870000000  0.4875340000000 1.0
C      1  0.5825080000000  0.4893720000000  0.4874550000000 1.0
C      1  0.5348650000000  0.5729920000000  0.4850620000000 1.0
C      1  0.4428640000000  0.5569640000000  0.4907100000000 1.0
C      1  0.4557220000000  0.5452620000000  0.4636610000000 1.0
C      1  0.4381170000000  0.4690230000000  0.4538900000000 1.0
C      1  0.5102430000000  0.4302210000000  0.4556110000000 1.0
C      1  0.5628440000000  0.4905470000000  0.4601890000000 1.0
C      1  0.5313550000000  0.5608700000000  0.4534670000000 1.0
C      1  0.4624950000000  0.5461120000000  0.5407270000000 1.0
C      1  0.4358340000000  0.4710160000000  0.5414760000000 1.0
C      1  0.5055900000000  0.4295330000000  0.5437420000000 1.0
C      1  0.5613590000000  0.4898780000000  0.5401200000000 1.0
C      1  0.5316910000000  0.5626770000000  0.5413680000000 1.0
C      1  0.4847410000000  0.5791300000000  0.5142050000000 1.0
C      1  0.4208600000000  0.5116060000000  0.5147870000000 1.0
C      1  0.4627680000000  0.4241610000000  0.5150110000000 1.0
C      1  0.5527530000000  0.4521950000000  0.5125190000000 1.0
C      1  0.5704610000000  0.5405950000000  0.5114840000000 1.0
C      1  0.4804560000000  0.5821710000000  0.4818740000000 1.0
C      1  0.4273700000000  0.5083730000000  0.4873880000000 1.0
C      1  0.4670100000000  0.4306040000000  0.4875170000000 1.0
C      1  0.5565110000000  0.4468680000000  0.4835450000000 1.0
C      1  0.5742470000000  0.5429570000000  0.4784420000000 1.0
C      1  0.4924300000000  0.4665930000000  0.5747220000000 1.0
C      1  0.5199470000000  0.4853980000000  0.5767670000000 1.0
C      1  0.5186210000000  0.5186710000000  0.5697750000000 1.0
C      1  0.4849820000000  0.5234110000000  0.5716850000000 1.0
C      1  0.4736370000000  0.4917380000000  0.5667210000000 1.0
C      1  0.4979220000000  0.4713210000000  0.4279210000000 1.0
C      1  0.5278630000000  0.4871810000000  0.4250560000000 1.0
C      1  0.5147270000000  0.5182970000000  0.4290720000000 1.0
C      1  0.4816740000000  0.5251120000000  0.4248260000000 1.0
C      1  0.4747220000000  0.4930360000000  0.4324880000000 1.0
C      1  0.4545410000000  0.5171190000000  0.4446070000000 1.0
C      1  0.4683840000000  0.4604000000000  0.4408370000000 1.0
C      1  0.5257740000000  0.4567160000000  0.4408940000000 1.0
C      1  0.5462870000000  0.5130180000000  0.4406170000000 1.0
C      1  0.5028770000000  0.5480920000000  0.4404510000000 1.0
C      1  0.4541920000000  0.5175890000000  0.5569850000000 1.0
C      1  0.4648470000000  0.4604030000000  0.5557480000000 1.0
C      1  0.5206400000000  0.4560740000000  0.5588920000000 1.0
C      1  0.5493770000000  0.5183160000000  0.5544200000000 1.0
C      1  0.5052700000000  0.5464990000000  0.5554380000000 1.0
C      1  0.5280330000000  0.4685110000000  0.4856590000000 1.0
C      1  0.5505840000000  0.5208290000000  0.4832080000000 1.0
C      1  0.4942160000000  0.5523300000000  0.4862460000000 1.0
C      1  0.4599620000000  0.5096820000000  0.4834990000000 1.0
C      1  0.4781190000000  0.4608020000000  0.4840610000000 1.0
C      1  0.5249710000000  0.4686510000000  0.5159730000000 1.0
C      1  0.5468700000000  0.5165140000000  0.5145590000000 1.0
C      1  0.4944000000000  0.5483240000000  0.5170610000000 1.0
C      1  0.4649300000000  0.5057780000000  0.5130900000000 1.0
C      1  0.4776620000000  0.4619160000000  0.5133530000000 1.0
C      1  0.4764830000000  0.4326970000000  0.4560730000000 1.0
C      1  0.5535660000000  0.4601700000000  0.4561760000000 1.0
C      1  0.5570970000000  0.5413830000000  0.4497790000000 1.0
C      1  0.4785000000000  0.5656850000000  0.4524020000000 1.0
C      1  0.4308970000000  0.5016200000000  0.4572850000000 1.0
C      1  0.4721050000000  0.4326860000000  0.5399790000000 1.0
C      1  0.5496240000000  0.4587520000000  0.5455960000000 1.0
C      1  0.5578050000000  0.5433920000000  0.5416550000000 1.0
C      1  0.4830630000000  0.5710400000000  0.5472440000000 1.0
C      1  0.4323040000000  0.5037800000000  0.5386520000000 1.0
C      1  0.5239430000000  0.5378220000000  0.5212250000000 1.0
C      1  0.4831630000000  0.5215390000000  0.5298470000000 1.0
C      1  0.4597930000000  0.4803420000000  0.5217220000000 1.0
C      1  0.5015000000000  0.4544090000000  0.5240900000000 1.0
C      1  0.5295910000000  0.4942090000000  0.5289950000000 1.0
C      1  0.5216520000000  0.5360390000000  0.4736290000000 1.0
C      1  0.4829950000000  0.5262700000000  0.4708410000000 1.0
C      1  0.4605980000000  0.4809940000000  0.4736820000000 1.0
C      1  0.5047510000000  0.4557370000000  0.4743550000000 1.0
C      1  0.5321480000000  0.4952490000000  0.4732970000000 1.0
C      1  0.5067280000000  0.5089680000000  0.4594660000000 1.0
C      1  0.5053060000000  0.5047650000000  0.5431000000000 1.0
C      1  0.5107710000000  0.5179320000000  0.4980910000000 1.0
END
