TITL C-3289330-4660-363 8.14824577214045e-05 125000 -509.389009319467 0 0 101 (C1) n - 1
REM
REM in /nfs/bkarasulu/CARBON/AIRSS/Generating-Clusters/AIREBO/with-SteepDescent/Higher-Symm/SD-CG/HFTN-CG
REM
REM
REM
REM
REM
REM ./C.cell (b20cbc046b6831c77cfcea5457e17084)
REM
REM compiler GCC version 9.2.1 20190827 (Red Hat 9.2.1-1)
REM options -cpp -mtune=generic -march=x86-64 -g -O0 -fpre-include=/usr/include/finclude/math-vector-fortran.h
REM seed -1031035932 -457457188 -1838124315 -544355320 330914536 1577732078 1202838828 -595050638 698574574 922423826 2111851420 -458038374 1953994101 -2062083178 -642510426 547697122 -1348492659 -676301476 921644467 1425365198 -30820737 1118002284 -2098156157 1338181668 -280415435 689937251 1954187380 1700950753 1497014066 -1495493437 -947378865 -1291758631 356887420
REM
CELL 1.54180   50.00000   50.00000   50.00000   90.00000   90.00000   90.00000
LATT -1
SFAC C  
C      1  0.5709150000000  0.5124380000000  0.4439520000000 1.0
C      1  0.4436800000000  0.5752270000000  0.5070630000000 1.0
C      1  0.5057270000000  0.4441370000000  0.5712080000000 1.0
C      1  0.4247160000000  0.5094060000000  0.5554810000000 1.0
C      1  0.5752770000000  0.4909840000000  0.5577680000000 1.0
C      1  0.4331400000000  0.4910040000000  0.4456130000000 1.0
C      1  0.5523960000000  0.5756210000000  0.4875800000000 1.0
C      1  0.4406510000000  0.4295680000000  0.4912190000000 1.0
C      1  0.5558730000000  0.4237370000000  0.5086400000000 1.0
C      1  0.4943080000000  0.4375100000000  0.4210480000000 1.0
C      1  0.5032640000000  0.5565370000000  0.4233420000000 1.0
C      1  0.4914690000000  0.5554220000000  0.5739350000000 1.0
C      1  0.4834640000000  0.4800660000000  0.5692960000000 1.0
C      1  0.5715480000000  0.4885300000000  0.4747320000000 1.0
C      1  0.4771750000000  0.5703640000000  0.4866700000000 1.0
C      1  0.5125100000000  0.4725780000000  0.4231450000000 1.0
C      1  0.4816620000000  0.5243300000000  0.4284750000000 1.0
C      1  0.5139900000000  0.5192580000000  0.5689770000000 1.0
C      1  0.4290720000000  0.4865000000000  0.5230420000000 1.0
C      1  0.5705480000000  0.5095590000000  0.5236530000000 1.0
C      1  0.4332560000000  0.5133140000000  0.4790150000000 1.0
C      1  0.5247300000000  0.5728050000000  0.5154430000000 1.0
C      1  0.4738400000000  0.4210050000000  0.5115440000000 1.0
C      1  0.5206290000000  0.4315450000000  0.4837140000000 1.0
C      1  0.4665890000000  0.5089370000000  0.5656630000000 1.0
C      1  0.5666340000000  0.4730650000000  0.4988710000000 1.0
C      1  0.5022910000000  0.5660560000000  0.4684120000000 1.0
C      1  0.5261860000000  0.4977510000000  0.4309640000000 1.0
C      1  0.4698620000000  0.4965680000000  0.4323130000000 1.0
C      1  0.5311200000000  0.4899820000000  0.5661600000000 1.0
C      1  0.4411340000000  0.4702690000000  0.4998480000000 1.0
C      1  0.5676080000000  0.5273870000000  0.5014370000000 1.0
C      1  0.4342490000000  0.5318100000000  0.5075420000000 1.0
C      1  0.5003700000000  0.5658960000000  0.5293220000000 1.0
C      1  0.4975290000000  0.4347760000000  0.5282020000000 1.0
C      1  0.4916110000000  0.4338530000000  0.4680900000000 1.0
C      1  0.5330680000000  0.5515970000000  0.4732150000000 1.0
C      1  0.4693060000000  0.5416140000000  0.5584200000000 1.0
C      1  0.5544730000000  0.4707780000000  0.5400010000000 1.0
C      1  0.4602590000000  0.5543990000000  0.5282390000000 1.0
C      1  0.5422230000000  0.4407610000000  0.5297430000000 1.0
C      1  0.4581830000000  0.4396240000000  0.4705960000000 1.0
C      1  0.5209960000000  0.5378610000000  0.4455680000000 1.0
C      1  0.4671070000000  0.4466580000000  0.4392640000000 1.0
C      1  0.5285640000000  0.4571160000000  0.5572820000000 1.0
C      1  0.4520140000000  0.4707040000000  0.4579850000000 1.0
C      1  0.5535860000000  0.5246050000000  0.4705840000000 1.0
C      1  0.4408840000000  0.5294790000000  0.5408970000000 1.0
C      1  0.5428850000000  0.5091830000000  0.5434460000000 1.0
C      1  0.5437990000000  0.5447990000000  0.5110640000000 1.0
C      1  0.5067160000000  0.5383170000000  0.5417720000000 1.0
C      1  0.4628650000000  0.5122800000000  0.4616530000000 1.0
C      1  0.5420220000000  0.4889330000000  0.4572300000000 1.0
C      1  0.4573900000000  0.4922960000000  0.5409770000000 1.0
C      1  0.4575960000000  0.5430260000000  0.4887990000000 1.0
C      1  0.5428430000000  0.4566500000000  0.4907190000000 1.0
C      1  0.4680250000000  0.4540100000000  0.5065900000000 1.0
C      1  0.4835510000000  0.5392930000000  0.4589520000000 1.0
C      1  0.5058790000000  0.4576200000000  0.4531110000000 1.0
C      1  0.4885960000000  0.4625880000000  0.5405610000000 1.0
C      1  0.4823290000000  0.5358790000000  0.5101660000000 1.0
C      1  0.5049450000000  0.4882710000000  0.5360490000000 1.0
C      1  0.5359950000000  0.5009700000000  0.4875880000000 1.0
C      1  0.5140340000000  0.5384380000000  0.4981470000000 1.0
C      1  0.4928610000000  0.4700860000000  0.4971780000000 1.0
C      1  0.5177090000000  0.4578970000000  0.5135610000000 1.0
C      1  0.5045690000000  0.4819450000000  0.4704180000000 1.0
C      1  0.5033870000000  0.5129480000000  0.4599240000000 1.0
C      1  0.4908780000000  0.5127120000000  0.5335380000000 1.0
C      1  0.4655920000000  0.5062200000000  0.5117500000000 1.0
C      1  0.5338710000000  0.4875740000000  0.5187900000000 1.0
C      1  0.4663920000000  0.4869990000000  0.4841470000000 1.0
C      1  0.5868920000000  0.5188800000000  0.4743880000000 1.0
C      1  0.4759890000000  0.5828520000000  0.5182740000000 1.0
C      1  0.5080640000000  0.4817890000000  0.5843130000000 1.0
C      1  0.4149970000000  0.5098050000000  0.5159330000000 1.0
C      1  0.5841150000000  0.4792230000000  0.5256370000000 1.0
C      1  0.4219870000000  0.4872470000000  0.4836830000000 1.0
C      1  0.5202930000000  0.5867940000000  0.4867520000000 1.0
C      1  0.4810670000000  0.4105100000000  0.4857130000000 1.0
C      1  0.5151700000000  0.4182490000000  0.5091230000000 1.0
C      1  0.4811530000000  0.4713640000000  0.4242300000000 1.0
C      1  0.5134610000000  0.5239500000000  0.4164460000000 1.0
C      1  0.4893940000000  0.5169390000000  0.5843670000000 1.0
C      1  0.4348580000000  0.5249740000000  0.4471160000000 1.0
C      1  0.4457020000000  0.4354960000000  0.5243370000000 1.0
C      1  0.5266200000000  0.4436780000000  0.4300570000000 1.0
C      1  0.5708400000000  0.5249740000000  0.5539570000000 1.0
C      1  0.4304990000000  0.4759110000000  0.5538020000000 1.0
C      1  0.5701850000000  0.4780410000000  0.4425570000000 1.0
C      1  0.5534020000000  0.4292750000000  0.4749520000000 1.0
C      1  0.4461620000000  0.5705920000000  0.4729450000000 1.0
C      1  0.5571930000000  0.5731670000000  0.5224110000000 1.0
C      1  0.4722650000000  0.4486140000000  0.5668570000000 1.0
C      1  0.5246090000000  0.5515500000000  0.5670880000000 1.0
C      1  0.4695210000000  0.5559020000000  0.4258090000000 1.0
C      1  0.4440990000000  0.4472070000000  0.5527070000000 1.0
C      1  0.5534260000000  0.4487080000000  0.4470290000000 1.0
C      1  0.4469570000000  0.5545490000000  0.4449100000000 1.0
C      1  0.5526040000000  0.5527110000000  0.5492450000000 1.0
C      1  0.5047340000000  0.5078670000000  0.4924860000000 1.0
END
