TITL C-3289324-3781-131 0.000563374449520241 125000 -1043.10739186874 0 0 190 (C1) n - 1
REM
REM in /nfs/bkarasulu/CARBON/AIRSS/Generating-Clusters/AIREBO/with-SteepDescent/Higher-Symm/SD-CG/HFTN-CG
REM
REM
REM
REM
REM
REM ./C.cell (b20cbc046b6831c77cfcea5457e17084)
REM
REM compiler GCC version 9.2.1 20190827 (Red Hat 9.2.1-1)
REM options -cpp -mtune=generic -march=x86-64 -g -O0 -fpre-include=/usr/include/finclude/math-vector-fortran.h
REM seed 1565595199 -193897886 -1125873554 -1850122338 2145157763 1736810254 -1372142262 -591397078 -313019606 96821990 1032406789 -389986147 2093566888 -584915263 -817256592 822552905 -163383827 -2063303465 -1926440834 -2127076741 -465949363 -885897146 1086060668 -1806492146 -2133331706 -1771756804 -2006675527 -427836903 1189553986 1837612234 1320452270 335539353 -406077013
REM
CELL 1.54180   50.00000   50.00000   50.00000   90.00000   90.00000   90.00000
LATT -1
SFAC C  
C      1  0.4229870000000  0.5121110000000  0.4611420000000 1.0
C      1  0.4458620000000  0.5571750000000  0.4472390000000 1.0
C      1  0.4893030000000  0.5885420000000  0.4445270000000 1.0
C      1  0.5374690000000  0.5665430000000  0.4609010000000 1.0
C      1  0.5650310000000  0.5384540000000  0.4677410000000 1.0
C      1  0.5796380000000  0.4896960000000  0.4657480000000 1.0
C      1  0.5503360000000  0.4387290000000  0.4434370000000 1.0
C      1  0.5114110000000  0.4039100000000  0.4442780000000 1.0
C      1  0.4638750000000  0.4272760000000  0.4611040000000 1.0
C      1  0.4334430000000  0.4657520000000  0.4692950000000 1.0
C      1  0.3896000000000  0.4549290000000  0.4540870000000 1.0
C      1  0.3916900000000  0.5220160000000  0.4522780000000 1.0
C      1  0.4222740000000  0.5810940000000  0.4473260000000 1.0
C      1  0.4788690000000  0.6156480000000  0.4572540000000 1.0
C      1  0.5426850000000  0.5997860000000  0.4560270000000 1.0
C      1  0.5961470000000  0.5627140000000  0.4621950000000 1.0
C      1  0.6022780000000  0.4725840000000  0.4488140000000 1.0
C      1  0.5733620000000  0.4139400000000  0.4468840000000 1.0
C      1  0.5195390000000  0.3744930000000  0.4540270000000 1.0
C      1  0.4614040000000  0.3941120000000  0.4540070000000 1.0
C      1  0.4673180000000  0.5362260000000  0.4581480000000 1.0
C      1  0.4919810000000  0.5508130000000  0.4687260000000 1.0
C      1  0.5183000000000  0.5433780000000  0.4547680000000 1.0
C      1  0.5403550000000  0.5251860000000  0.4680420000000 1.0
C      1  0.5466270000000  0.4921060000000  0.4632880000000 1.0
C      1  0.5327010000000  0.4613450000000  0.4591550000000 1.0
C      1  0.5077900000000  0.4455670000000  0.4690140000000 1.0
C      1  0.4799860000000  0.4517810000000  0.4570880000000 1.0
C      1  0.4635500000000  0.4740390000000  0.4719350000000 1.0
C      1  0.4537070000000  0.5056170000000  0.4640270000000 1.0
C      1  0.5229070000000  0.6089690000000  0.5479840000000 1.0
C      1  0.5801490000000  0.5724050000000  0.5559970000000 1.0
C      1  0.6073870000000  0.5101420000000  0.5575040000000 1.0
C      1  0.6006390000000  0.4476200000000  0.5385990000000 1.0
C      1  0.5472460000000  0.3947680000000  0.5443400000000 1.0
C      1  0.4790600000000  0.3908980000000  0.5483180000000 1.0
C      1  0.4188020000000  0.4268150000000  0.5532670000000 1.0
C      1  0.3930810000000  0.4887860000000  0.5416440000000 1.0
C      1  0.4144100000000  0.5788240000000  0.5445940000000 1.0
C      1  0.4591100000000  0.6101490000000  0.5447630000000 1.0
C      1  0.4911060000000  0.4260420000000  0.5338720000000 1.0
C      1  0.4523720000000  0.4464360000000  0.5440180000000 1.0
C      1  0.4316380000000  0.4923840000000  0.5322380000000 1.0
C      1  0.4345780000000  0.5321990000000  0.5328460000000 1.0
C      1  0.4591370000000  0.5644120000000  0.5273900000000 1.0
C      1  0.5105800000000  0.5675550000000  0.5346640000000 1.0
C      1  0.5479790000000  0.5491280000000  0.5466430000000 1.0
C      1  0.5711690000000  0.5060550000000  0.5411270000000 1.0
C      1  0.5663420000000  0.4671700000000  0.5337050000000 1.0
C      1  0.5426350000000  0.4328400000000  0.5249100000000 1.0
C      1  0.5077930000000  0.5382220000000  0.3801710000000 1.0
C      1  0.5295920000000  0.5205800000000  0.3860440000000 1.0
C      1  0.5388610000000  0.4988970000000  0.3711380000000 1.0
C      1  0.5378040000000  0.4719040000000  0.3728080000000 1.0
C      1  0.5199940000000  0.4534540000000  0.3897590000000 1.0
C      1  0.4885030000000  0.4568680000000  0.3806820000000 1.0
C      1  0.4673110000000  0.4745080000000  0.3879330000000 1.0
C      1  0.4571240000000  0.4962110000000  0.3735860000000 1.0
C      1  0.4579220000000  0.5232950000000  0.3740990000000 1.0
C      1  0.4759570000000  0.5425470000000  0.3901090000000 1.0
C      1  0.4628080000000  0.4294130000000  0.5164940000000 1.0
C      1  0.4375090000000  0.4620610000000  0.5182450000000 1.0
C      1  0.4276320000000  0.5119960000000  0.5084940000000 1.0
C      1  0.4447680000000  0.5476990000000  0.5043310000000 1.0
C      1  0.4869080000000  0.5740900000000  0.5111490000000 1.0
C      1  0.5383480000000  0.5630920000000  0.5171690000000 1.0
C      1  0.5643650000000  0.5330310000000  0.5215740000000 1.0
C      1  0.5679090000000  0.4912670000000  0.5115620000000 1.0
C      1  0.5578370000000  0.4535170000000  0.5036770000000 1.0
C      1  0.5148260000000  0.4198690000000  0.5103070000000 1.0
C      1  0.5355790000000  0.5208130000000  0.4139640000000 1.0
C      1  0.5428580000000  0.4991750000000  0.4296290000000 1.0
C      1  0.5257300000000  0.4765370000000  0.4330690000000 1.0
C      1  0.5076580000000  0.4640500000000  0.4173360000000 1.0
C      1  0.4829680000000  0.4591620000000  0.4281180000000 1.0
C      1  0.4631200000000  0.4744340000000  0.4160460000000 1.0
C      1  0.4575740000000  0.4968720000000  0.4307750000000 1.0
C      1  0.4742980000000  0.5198040000000  0.4329890000000 1.0
C      1  0.4911430000000  0.5319580000000  0.4159660000000 1.0
C      1  0.5159680000000  0.5365380000000  0.4260480000000 1.0
C      1  0.4336310000000  0.4135910000000  0.4566050000000 1.0
C      1  0.4186190000000  0.4624230000000  0.4470940000000 1.0
C      1  0.4109350000000  0.5033250000000  0.4307550000000 1.0
C      1  0.4605670000000  0.5574320000000  0.4165740000000 1.0
C      1  0.4951600000000  0.5888010000000  0.4181230000000 1.0
C      1  0.5544660000000  0.5770520000000  0.4333920000000 1.0
C      1  0.5715860000000  0.5550360000000  0.4435450000000 1.0
C      1  0.6043680000000  0.5065770000000  0.4515820000000 1.0
C      1  0.5364480000000  0.4367650000000  0.4144170000000 1.0
C      1  0.5041480000000  0.4063620000000  0.4182420000000 1.0
C      1  0.5127760000000  0.6156030000000  0.4612500000000 1.0
C      1  0.5731590000000  0.5874310000000  0.4666660000000 1.0
C      1  0.6065450000000  0.5330240000000  0.4665390000000 1.0
C      1  0.5889740000000  0.4441070000000  0.4484410000000 1.0
C      1  0.5479630000000  0.3930860000000  0.4556320000000 1.0
C      1  0.4866060000000  0.3781700000000  0.4613880000000 1.0
C      1  0.4077650000000  0.4278500000000  0.4637580000000 1.0
C      1  0.3907460000000  0.4886170000000  0.4587410000000 1.0
C      1  0.4068110000000  0.5522870000000  0.4567170000000 1.0
C      1  0.4505310000000  0.5967590000000  0.4530040000000 1.0
C      1  0.5767810000000  0.5022460000000  0.5981990000000 1.0
C      1  0.5681760000000  0.4548990000000  0.5763500000000 1.0
C      1  0.5306830000000  0.4228340000000  0.5871990000000 1.0
C      1  0.4794670000000  0.4209140000000  0.5908640000000 1.0
C      1  0.4356250000000  0.4588380000000  0.5895550000000 1.0
C      1  0.4192160000000  0.4987450000000  0.5836230000000 1.0
C      1  0.4327950000000  0.5482870000000  0.5844220000000 1.0
C      1  0.4717310000000  0.5796070000000  0.5866360000000 1.0
C      1  0.5213110000000  0.5783550000000  0.5909820000000 1.0
C      1  0.5575800000000  0.5499750000000  0.5954330000000 1.0
C      1  0.5531080000000  0.3971140000000  0.5102870000000 1.0
C      1  0.4849040000000  0.3821730000000  0.5159530000000 1.0
C      1  0.4172610000000  0.4123120000000  0.5233600000000 1.0
C      1  0.4016520000000  0.4777540000000  0.5100120000000 1.0
C      1  0.3996430000000  0.5663670000000  0.5165030000000 1.0
C      1  0.4515120000000  0.6088390000000  0.5114020000000 1.0
C      1  0.5169150000000  0.6146640000000  0.5149870000000 1.0
C      1  0.5822060000000  0.5847980000000  0.5250190000000 1.0
C      1  0.6158800000000  0.5204390000000  0.5268000000000 1.0
C      1  0.5984490000000  0.4602670000000  0.5067400000000 1.0
C      1  0.4132440000000  0.4647080000000  0.5418010000000 1.0
C      1  0.4096430000000  0.5465630000000  0.5406850000000 1.0
C      1  0.4403740000000  0.5875120000000  0.5335290000000 1.0
C      1  0.4955120000000  0.5980480000000  0.5337020000000 1.0
C      1  0.5527250000000  0.5825830000000  0.5410430000000 1.0
C      1  0.5903890000000  0.5345500000000  0.5434120000000 1.0
C      1  0.5979640000000  0.4796590000000  0.5346690000000 1.0
C      1  0.5696810000000  0.4142180000000  0.5319990000000 1.0
C      1  0.5089420000000  0.3966850000000  0.5344790000000 1.0
C      1  0.4463650000000  0.4128020000000  0.5411940000000 1.0
C      1  0.4811370000000  0.5528540000000  0.5936320000000 1.0
C      1  0.5097080000000  0.5521390000000  0.5954670000000 1.0
C      1  0.5330870000000  0.5275630000000  0.5926250000000 1.0
C      1  0.5493260000000  0.4999270000000  0.5976350000000 1.0
C      1  0.5401940000000  0.4715000000000  0.5862460000000 1.0
C      1  0.5188580000000  0.4486820000000  0.5933300000000 1.0
C      1  0.4900820000000  0.4478940000000  0.5935320000000 1.0
C      1  0.4665250000000  0.4714550000000  0.5866790000000 1.0
C      1  0.4464770000000  0.4988700000000  0.5889580000000 1.0
C      1  0.4597780000000  0.5295280000000  0.5848830000000 1.0
C      1  0.5420680000000  0.5796180000000  0.4903930000000 1.0
C      1  0.5796030000000  0.5429020000000  0.4945650000000 1.0
C      1  0.5925050000000  0.4916430000000  0.4947090000000 1.0
C      1  0.5581290000000  0.4359240000000  0.4764870000000 1.0
C      1  0.5108430000000  0.4126860000000  0.4771560000000 1.0
C      1  0.4550760000000  0.4140710000000  0.4902620000000 1.0
C      1  0.4203540000000  0.4541430000000  0.4942090000000 1.0
C      1  0.4084110000000  0.5256380000000  0.4884080000000 1.0
C      1  0.4400990000000  0.5661870000000  0.4795960000000 1.0
C      1  0.4900110000000  0.5834380000000  0.4781460000000 1.0
C      1  0.5063480000000  0.4490210000000  0.4987100000000 1.0
C      1  0.4801340000000  0.4550420000000  0.5075090000000 1.0
C      1  0.4628890000000  0.4807890000000  0.5055460000000 1.0
C      1  0.4561200000000  0.5103040000000  0.4963990000000 1.0
C      1  0.4730540000000  0.5315380000000  0.5095910000000 1.0
C      1  0.4960910000000  0.5450740000000  0.4980440000000 1.0
C      1  0.5229330000000  0.5383230000000  0.5046000000000 1.0
C      1  0.5354820000000  0.5140730000000  0.5144300000000 1.0
C      1  0.5405620000000  0.4904630000000  0.4963790000000 1.0
C      1  0.5278220000000  0.4658750000000  0.5081570000000 1.0
C      1  0.4729300000000  0.4661330000000  0.5564450000000 1.0
C      1  0.4648350000000  0.4896750000000  0.5390910000000 1.0
C      1  0.4555460000000  0.5171410000000  0.5537040000000 1.0
C      1  0.4747420000000  0.5373920000000  0.5404410000000 1.0
C      1  0.5026320000000  0.5428030000000  0.5489110000000 1.0
C      1  0.5270070000000  0.5307940000000  0.5620880000000 1.0
C      1  0.5383990000000  0.5077030000000  0.5461020000000 1.0
C      1  0.5434060000000  0.4775560000000  0.5547530000000 1.0
C      1  0.5258450000000  0.4589340000000  0.5388610000000 1.0
C      1  0.4979750000000  0.4522850000000  0.5464720000000 1.0
C      1  0.5893000000000  0.4490820000000  0.4798440000000 1.0
C      1  0.5440120000000  0.4084270000000  0.4833870000000 1.0
C      1  0.4830420000000  0.3963140000000  0.4880130000000 1.0
C      1  0.4223360000000  0.4221400000000  0.4939960000000 1.0
C      1  0.3948130000000  0.4966620000000  0.4875500000000 1.0
C      1  0.4089020000000  0.5569280000000  0.4895620000000 1.0
C      1  0.4584880000000  0.5942980000000  0.4848570000000 1.0
C      1  0.5182830000000  0.5992790000000  0.4885150000000 1.0
C      1  0.5749570000000  0.5741890000000  0.4971150000000 1.0
C      1  0.6051410000000  0.5206520000000  0.4975200000000 1.0
C      1  0.4747190000000  0.3988800000000  0.5745280000000 1.0
C      1  0.4206810000000  0.4392900000000  0.5777540000000 1.0
C      1  0.3977250000000  0.5021470000000  0.5655700000000 1.0
C      1  0.4191170000000  0.5661180000000  0.5741770000000 1.0
C      1  0.4697390000000  0.6014600000000  0.5695000000000 1.0
C      1  0.5291820000000  0.5973870000000  0.5725000000000 1.0
C      1  0.5777360000000  0.5618530000000  0.5813190000000 1.0
C      1  0.5996770000000  0.5020440000000  0.5827790000000 1.0
C      1  0.5862430000000  0.4402950000000  0.5616540000000 1.0
C      1  0.5368360000000  0.4029040000000  0.5692070000000 1.0
END
