TITL C-3289321-8710-330 6.19761555321907e-08 125000 -37.409696905928 0 0 7 (D7h) n - 1
REM
REM in /nfs/bkarasulu/CARBON/AIRSS/Generating-Clusters/AIREBO/with-SteepDescent/Higher-Symm/SD-CG/HFTN-CG
REM
REM
REM
REM
REM
REM ./C.cell (b20cbc046b6831c77cfcea5457e17084)
REM
REM compiler GCC version 9.2.1 20190827 (Red Hat 9.2.1-1)
REM options -cpp -mtune=generic -march=x86-64 -g -O0 -fpre-include=/usr/include/finclude/math-vector-fortran.h
REM seed -790148036 -1533277067 921888788 1463496027 664296094 -481193883 -1080228233 510786689 -701760463 -284986687 -438296839 1622242928 -2031520892 -1339865464 -986257801 972921719 -161589328 1127907669 -1381209153 780788467 -873852125 -1037097175 -667898655 -1736550861 4610867 715016754 2018268918 -1487072061 -1264709598 -1402023185 227164813 -2124036939 1275404504
REM
CELL 1.54180   50.00000   50.00000   50.00000   90.00000   90.00000   90.00000
LATT -1
SFAC C  
C      1  0.5000000000000  0.4739260000000  0.4820210000000 1.0
C      1  0.5000000000000  0.4696860000000  0.5091760000000 1.0
C      1  0.5000000000000  0.4882730000000  0.5294220000000 1.0
C      1  0.5000000000000  0.5156910000000  0.5275120000000 1.0
C      1  0.5000000000000  0.5312930000000  0.5048860000000 1.0
C      1  0.5000000000000  0.5233310000000  0.4785800000000 1.0
C      1  0.5000000000000  0.4978000000000  0.4684040000000 1.0
END
