TITL C-3289331-6719-696 0.000299656844017844 125000 -288.863903692599 0 0 60 (S4) n - 1
REM
REM in /nfs/bkarasulu/CARBON/AIRSS/Generating-Clusters/AIREBO/with-SteepDescent/Higher-Symm/SD-CG/HFTN-CG
REM
REM
REM
REM
REM
REM ./C.cell (b20cbc046b6831c77cfcea5457e17084)
REM
REM compiler GCC version 9.2.1 20190827 (Red Hat 9.2.1-1)
REM options -cpp -mtune=generic -march=x86-64 -g -O0 -fpre-include=/usr/include/finclude/math-vector-fortran.h
REM seed -783297003 365692981 -657208644 -346459862 -174508968 -1840682057 -1074675330 146218450 -972778602 515831368 880141302 109304581 2122266156 -517602828 914495678 2105898751 1347829734 1461327681 2003663303 641270865 -725512063 -112745399 -246594305 1556183422 113465802 831594370 -811697129 -2036517229 877239201 1417787326 -1568025777 1026233833 -1190548171
REM
CELL 1.54180   50.00000   50.00000   50.00000   90.00000   90.00000   90.00000
LATT -1
SFAC C  
C      1  0.4492530000000  0.4552880000000  0.4896480000000 1.0
C      1  0.5447130000000  0.4492530000000  0.5103470000000 1.0
C      1  0.5507460000000  0.5447130000000  0.4896490000000 1.0
C      1  0.4552880000000  0.5507460000000  0.5103570000000 1.0
C      1  0.5501330000000  0.5363380000000  0.5403020000000 1.0
C      1  0.4636580000000  0.5501340000000  0.4597030000000 1.0
C      1  0.4498700000000  0.4636570000000  0.5403010000000 1.0
C      1  0.5363390000000  0.4498710000000  0.4596940000000 1.0
C      1  0.5081600000000  0.5404300000000  0.5357780000000 1.0
C      1  0.4595660000000  0.5081610000000  0.4642270000000 1.0
C      1  0.4918430000000  0.4595650000000  0.5357730000000 1.0
C      1  0.5404310000000  0.4918430000000  0.4642220000000 1.0
C      1  0.4589830000000  0.4742500000000  0.4615900000000 1.0
C      1  0.5257540000000  0.4589830000000  0.5384060000000 1.0
C      1  0.5410130000000  0.5257550000000  0.4615900000000 1.0
C      1  0.4742490000000  0.5410130000000  0.5384140000000 1.0
C      1  0.5049100000000  0.5642980000000  0.5041840000000 1.0
C      1  0.4357010000000  0.5049100000000  0.4958220000000 1.0
C      1  0.4950910000000  0.4357010000000  0.5041770000000 1.0
C      1  0.5642980000000  0.4950910000000  0.4958170000000 1.0
C      1  0.4905810000000  0.5128150000000  0.4681280000000 1.0
C      1  0.4871890000000  0.4905810000000  0.5318730000000 1.0
C      1  0.5094160000000  0.4871890000000  0.4681260000000 1.0
C      1  0.5128140000000  0.5094150000000  0.5318730000000 1.0
C      1  0.4259890000000  0.4762800000000  0.4896000000000 1.0
C      1  0.5237210000000  0.4259880000000  0.5103960000000 1.0
C      1  0.5740110000000  0.5237210000000  0.4895960000000 1.0
C      1  0.4762800000000  0.5740100000000  0.5104080000000 1.0
C      1  0.4667380000000  0.4454320000000  0.5176430000000 1.0
C      1  0.5545670000000  0.4667380000000  0.4823510000000 1.0
C      1  0.5332640000000  0.5545660000000  0.5176470000000 1.0
C      1  0.4454320000000  0.5332640000000  0.4823600000000 1.0
C      1  0.5328030000000  0.4769650000000  0.5613120000000 1.0
C      1  0.5230280000000  0.5328050000000  0.4386870000000 1.0
C      1  0.4672020000000  0.5230270000000  0.5613170000000 1.0
C      1  0.4769660000000  0.4672030000000  0.4386840000000 1.0
C      1  0.4581760000000  0.4713690000000  0.5652710000000 1.0
C      1  0.5286240000000  0.4581770000000  0.4347260000000 1.0
C      1  0.5418300000000  0.5286230000000  0.5652710000000 1.0
C      1  0.4713700000000  0.5418310000000  0.4347330000000 1.0
C      1  0.4764570000000  0.5266910000000  0.5092640000000 1.0
C      1  0.4733080000000  0.4764570000000  0.4907390000000 1.0
C      1  0.5235440000000  0.4733070000000  0.5092580000000 1.0
C      1  0.5266920000000  0.5235440000000  0.4907390000000 1.0
C      1  0.5033310000000  0.5379420000000  0.5686450000000 1.0
C      1  0.4620510000000  0.5033330000000  0.4313590000000 1.0
C      1  0.4966740000000  0.4620490000000  0.5686400000000 1.0
C      1  0.5379440000000  0.4966760000000  0.4313560000000 1.0
C      1  0.5343330000000  0.5013310000000  0.5106380000000 1.0
C      1  0.4986680000000  0.5343340000000  0.4893630000000 1.0
C      1  0.4656680000000  0.4986680000000  0.5106400000000 1.0
C      1  0.5013310000000  0.4656680000000  0.4893590000000 1.0
C      1  0.5148630000000  0.4387680000000  0.4735670000000 1.0
C      1  0.5612350000000  0.5148620000000  0.5264270000000 1.0
C      1  0.4851350000000  0.5612350000000  0.4735760000000 1.0
C      1  0.4387670000000  0.4851340000000  0.5264300000000 1.0
C      1  0.4936200000000  0.5161060000000  0.4346480000000 1.0
C      1  0.4839010000000  0.4936190000000  0.5653530000000 1.0
C      1  0.5063750000000  0.4839030000000  0.4346460000000 1.0
C      1  0.5161040000000  0.5063730000000  0.5653530000000 1.0
END
