TITL C-3289329-2751-180 0.00354583522144844 125000 -960.609944155328 0 0 175 (C1) n - 1
REM
REM in /nfs/bkarasulu/CARBON/AIRSS/Generating-Clusters/AIREBO/with-SteepDescent/Higher-Symm/SD-CG/HFTN-CG
REM
REM
REM
REM
REM
REM ./C.cell (b20cbc046b6831c77cfcea5457e17084)
REM
REM compiler GCC version 9.2.1 20190827 (Red Hat 9.2.1-1)
REM options -cpp -mtune=generic -march=x86-64 -g -O0 -fpre-include=/usr/include/finclude/math-vector-fortran.h
REM seed -1276746765 234371553 786992254 1492846845 -582536488 -1238415554 -1420976430 -2025410088 -1194496762 1069057107 1292852987 -1229860818 1603219603 1296664102 -1111282377 355895814 -2073143896 -1682116691 745182919 -1890138594 -609783199 -727371859 2029956714 1427958524 1883957569 523050529 -990648795 -80080810 44478116 1188901542 1431842038 372100894 1691426401
REM
CELL 1.54180   50.00000   50.00000   50.00000   90.00000   90.00000   90.00000
LATT -1
SFAC C  
C      1  0.4656690000000  0.5947280000000  0.5441520000000 1.0
C      1  0.6013410000000  0.5653760000000  0.4861030000000 1.0
C      1  0.5495390000000  0.4986850000000  0.5487140000000 1.0
C      1  0.5155520000000  0.5612300000000  0.4147870000000 1.0
C      1  0.5498170000000  0.4929100000000  0.4415340000000 1.0
C      1  0.5453450000000  0.5938570000000  0.5365740000000 1.0
C      1  0.5338810000000  0.4771830000000  0.5787560000000 1.0
C      1  0.4074630000000  0.5445640000000  0.5294900000000 1.0
C      1  0.4324050000000  0.4557500000000  0.5003080000000 1.0
C      1  0.5675230000000  0.5021710000000  0.5218120000000 1.0
C      1  0.4797640000000  0.6063120000000  0.4999000000000 1.0
C      1  0.4994140000000  0.5675740000000  0.4770390000000 1.0
C      1  0.4410960000000  0.5260260000000  0.4404150000000 1.0
C      1  0.4729890000000  0.5483410000000  0.4790580000000 1.0
C      1  0.5673860000000  0.4657740000000  0.4346800000000 1.0
C      1  0.4545450000000  0.4487550000000  0.5193450000000 1.0
C      1  0.4466190000000  0.4231720000000  0.5389550000000 1.0
C      1  0.5342420000000  0.5238920000000  0.5161800000000 1.0
C      1  0.5176430000000  0.5669720000000  0.4539060000000 1.0
C      1  0.4422510000000  0.4817130000000  0.4888590000000 1.0
C      1  0.4252890000000  0.5088840000000  0.4993560000000 1.0
C      1  0.5009290000000  0.4689950000000  0.4396580000000 1.0
C      1  0.5220820000000  0.4025760000000  0.4340530000000 1.0
C      1  0.5163060000000  0.5630330000000  0.5021980000000 1.0
C      1  0.4954610000000  0.5091440000000  0.5129980000000 1.0
C      1  0.4346320000000  0.5182320000000  0.6031520000000 1.0
C      1  0.5789140000000  0.5127180000000  0.5585230000000 1.0
C      1  0.5447390000000  0.5443530000000  0.4812770000000 1.0
C      1  0.4653130000000  0.5726610000000  0.4336230000000 1.0
C      1  0.4269990000000  0.4962920000000  0.4017860000000 1.0
C      1  0.4946510000000  0.3996420000000  0.4838980000000 1.0
C      1  0.5244630000000  0.4351490000000  0.5132690000000 1.0
C      1  0.6063080000000  0.4873720000000  0.4782510000000 1.0
C      1  0.4572930000000  0.4867020000000  0.4388800000000 1.0
C      1  0.4194480000000  0.5144000000000  0.4202740000000 1.0
C      1  0.5791640000000  0.5239480000000  0.4155460000000 1.0
C      1  0.4683790000000  0.5485780000000  0.5946380000000 1.0
C      1  0.4986230000000  0.4715360000000  0.3874700000000 1.0
C      1  0.4091770000000  0.5046110000000  0.4507620000000 1.0
C      1  0.5356890000000  0.4688360000000  0.5466100000000 1.0
C      1  0.4735480000000  0.4492410000000  0.5668810000000 1.0
C      1  0.4765430000000  0.5694590000000  0.3839040000000 1.0
C      1  0.5246250000000  0.4549440000000  0.4549030000000 1.0
C      1  0.5186190000000  0.3891660000000  0.5402910000000 1.0
C      1  0.5859390000000  0.4795910000000  0.5554020000000 1.0
C      1  0.4590210000000  0.4712830000000  0.5877550000000 1.0
C      1  0.4953340000000  0.4929000000000  0.5428780000000 1.0
C      1  0.5053350000000  0.4521820000000  0.5908480000000 1.0
C      1  0.4923790000000  0.3887740000000  0.5336680000000 1.0
C      1  0.4444270000000  0.4765630000000  0.4114000000000 1.0
C      1  0.5678290000000  0.4502290000000  0.4623800000000 1.0
C      1  0.5193180000000  0.4108190000000  0.4639800000000 1.0
C      1  0.5698480000000  0.4538790000000  0.4958360000000 1.0
C      1  0.6063990000000  0.4944380000000  0.5359790000000 1.0
C      1  0.5201260000000  0.4877570000000  0.5034290000000 1.0
C      1  0.4981190000000  0.5170360000000  0.4428690000000 1.0
C      1  0.4292160000000  0.4738130000000  0.5715720000000 1.0
C      1  0.5049960000000  0.4921180000000  0.4210560000000 1.0
C      1  0.4896000000000  0.5002140000000  0.3936780000000 1.0
C      1  0.5636790000000  0.5122060000000  0.4622800000000 1.0
C      1  0.3888920000000  0.4791240000000  0.4509830000000 1.0
C      1  0.4458200000000  0.4401280000000  0.5845200000000 1.0
C      1  0.4233230000000  0.5312220000000  0.4666450000000 1.0
C      1  0.5637770000000  0.4064460000000  0.4775280000000 1.0
C      1  0.4206230000000  0.5970880000000  0.5139130000000 1.0
C      1  0.5145420000000  0.6043640000000  0.5317650000000 1.0
C      1  0.4253860000000  0.6174710000000  0.5309760000000 1.0
C      1  0.4657080000000  0.5444150000000  0.5180630000000 1.0
C      1  0.5231070000000  0.5114560000000  0.6092270000000 1.0
C      1  0.4057570000000  0.5230980000000  0.5535760000000 1.0
C      1  0.5716530000000  0.5511090000000  0.4293320000000 1.0
C      1  0.5736360000000  0.4523330000000  0.5584430000000 1.0
C      1  0.4773050000000  0.5397730000000  0.5497020000000 1.0
C      1  0.5999440000000  0.4548180000000  0.5070610000000 1.0
C      1  0.5322270000000  0.4519280000000  0.4218300000000 1.0
C      1  0.4474000000000  0.4500410000000  0.4061140000000 1.0
C      1  0.4285850000000  0.5763620000000  0.4903540000000 1.0
C      1  0.4845480000000  0.5600290000000  0.4092450000000 1.0
C      1  0.3956660000000  0.4549870000000  0.4476660000000 1.0
C      1  0.5040200000000  0.4506120000000  0.4045410000000 1.0
C      1  0.4444340000000  0.5362720000000  0.4930380000000 1.0
C      1  0.4456950000000  0.6141860000000  0.5496050000000 1.0
C      1  0.5261010000000  0.5177810000000  0.5486520000000 1.0
C      1  0.5255990000000  0.4076050000000  0.4959260000000 1.0
C      1  0.5293380000000  0.5882790000000  0.4300970000000 1.0
C      1  0.4869920000000  0.6034270000000  0.5272060000000 1.0
C      1  0.4834350000000  0.4400700000000  0.5036410000000 1.0
C      1  0.5088950000000  0.5442510000000  0.5473460000000 1.0
C      1  0.5002090000000  0.4803330000000  0.5743780000000 1.0
C      1  0.5428640000000  0.4230200000000  0.4340840000000 1.0
C      1  0.4656450000000  0.4765120000000  0.4702270000000 1.0
C      1  0.4628810000000  0.5214480000000  0.6063880000000 1.0
C      1  0.4353150000000  0.4018940000000  0.5213970000000 1.0
C      1  0.5777030000000  0.5853470000000  0.4720160000000 1.0
C      1  0.6034590000000  0.5512320000000  0.5100080000000 1.0
C      1  0.5487490000000  0.4999840000000  0.4972190000000 1.0
C      1  0.6024810000000  0.5149990000000  0.4714610000000 1.0
C      1  0.5539560000000  0.4736300000000  0.4071010000000 1.0
C      1  0.5343490000000  0.4104630000000  0.5344670000000 1.0
C      1  0.4796170000000  0.4202020000000  0.5312910000000 1.0
C      1  0.5486440000000  0.5706510000000  0.5505930000000 1.0
C      1  0.5661530000000  0.4362630000000  0.5311280000000 1.0
C      1  0.4022300000000  0.4465510000000  0.5380710000000 1.0
C      1  0.5249030000000  0.5621200000000  0.5910980000000 1.0
C      1  0.4982710000000  0.4346760000000  0.5557760000000 1.0
C      1  0.4029150000000  0.5340150000000  0.5033590000000 1.0
C      1  0.4788940000000  0.5125370000000  0.5644440000000 1.0
C      1  0.4259340000000  0.5675630000000  0.5256830000000 1.0
C      1  0.4493110000000  0.4317930000000  0.4321850000000 1.0
C      1  0.4814990000000  0.4364470000000  0.4222120000000 1.0
C      1  0.4326950000000  0.4338270000000  0.4804480000000 1.0
C      1  0.5028550000000  0.5333320000000  0.6075240000000 1.0
C      1  0.5761860000000  0.4824120000000  0.4694870000000 1.0
C      1  0.4058170000000  0.4926180000000  0.5688270000000 1.0
C      1  0.5315990000000  0.5086240000000  0.4229830000000 1.0
C      1  0.5520190000000  0.4493080000000  0.5771690000000 1.0
C      1  0.4745210000000  0.3982920000000  0.5057770000000 1.0
C      1  0.5093290000000  0.5188840000000  0.5782130000000 1.0
C      1  0.5566940000000  0.4123270000000  0.5088760000000 1.0
C      1  0.5604960000000  0.5207240000000  0.5825040000000 1.0
C      1  0.4918220000000  0.4801150000000  0.4861960000000 1.0
C      1  0.4630190000000  0.4998670000000  0.5087420000000 1.0
C      1  0.5610790000000  0.4692960000000  0.5248430000000 1.0
C      1  0.5748620000000  0.5352670000000  0.5191870000000 1.0
C      1  0.5196330000000  0.5241100000000  0.4848880000000 1.0
C      1  0.4809310000000  0.4206470000000  0.4589160000000 1.0
C      1  0.5127460000000  0.4535440000000  0.5347000000000 1.0
C      1  0.5039790000000  0.4384880000000  0.4764520000000 1.0
C      1  0.5240850000000  0.5378190000000  0.4378370000000 1.0
C      1  0.4263440000000  0.4445710000000  0.4518100000000 1.0
C      1  0.4768240000000  0.4955620000000  0.5938320000000 1.0
C      1  0.5437170000000  0.5015670000000  0.5920100000000 1.0
C      1  0.5835890000000  0.5551530000000  0.4588670000000 1.0
C      1  0.4478320000000  0.5516290000000  0.5736100000000 1.0
C      1  0.5597760000000  0.4229860000000  0.4562860000000 1.0
C      1  0.4957310000000  0.5623600000000  0.6041840000000 1.0
C      1  0.4287240000000  0.4773040000000  0.4488650000000 1.0
C      1  0.4389010000000  0.5031840000000  0.5298480000000 1.0
C      1  0.4480580000000  0.4119810000000  0.4598580000000 1.0
C      1  0.4086360000000  0.5545890000000  0.4823340000000 1.0
C      1  0.4991390000000  0.5427250000000  0.5169320000000 1.0
C      1  0.5251180000000  0.4357290000000  0.5766420000000 1.0
C      1  0.5492640000000  0.5638270000000  0.4210500000000 1.0
C      1  0.4325330000000  0.5221180000000  0.5711410000000 1.0
C      1  0.5769170000000  0.5338440000000  0.4845310000000 1.0
C      1  0.4765840000000  0.5886510000000  0.4799570000000 1.0
C      1  0.5906370000000  0.5190490000000  0.4430140000000 1.0
C      1  0.6164800000000  0.4736250000000  0.5183160000000 1.0
C      1  0.4637870000000  0.4684420000000  0.5437260000000 1.0
C      1  0.4938000000000  0.4079420000000  0.4306630000000 1.0
C      1  0.4055120000000  0.4569820000000  0.5154080000000 1.0
C      1  0.6049650000000  0.5204160000000  0.5247300000000 1.0
C      1  0.4861910000000  0.5205640000000  0.4823320000000 1.0
C      1  0.4688120000000  0.5129570000000  0.4540720000000 1.0
C      1  0.5475240000000  0.5713650000000  0.4642650000000 1.0
C      1  0.5360530000000  0.4576810000000  0.4966400000000 1.0
C      1  0.5134750000000  0.4971340000000  0.4657680000000 1.0
C      1  0.5590080000000  0.5055250000000  0.4049250000000 1.0
C      1  0.4762910000000  0.4539650000000  0.4508840000000 1.0
C      1  0.4879380000000  0.4702920000000  0.5185640000000 1.0
C      1  0.5419570000000  0.4793250000000  0.4710810000000 1.0
C      1  0.4457060000000  0.4053690000000  0.4932590000000 1.0
C      1  0.4514280000000  0.5796590000000  0.4668310000000 1.0
C      1  0.5242190000000  0.5638860000000  0.5622530000000 1.0
C      1  0.4889630000000  0.5272010000000  0.4105790000000 1.0
C      1  0.4050280000000  0.5013070000000  0.5275510000000 1.0
C      1  0.5324270000000  0.5909430000000  0.5073930000000 1.0
C      1  0.4261680000000  0.4427440000000  0.5577950000000 1.0
C      1  0.4540880000000  0.5646450000000  0.5428140000000 1.0
C      1  0.4498530000000  0.4965270000000  0.5569290000000 1.0
C      1  0.4553390000000  0.5505860000000  0.4526930000000 1.0
C      1  0.5473810000000  0.5542860000000  0.5128940000000 1.0
C      1  0.5546660000000  0.5494910000000  0.5836860000000 1.0
C      1  0.5687890000000  0.5444170000000  0.5513920000000 1.0
C      1  0.5498280000000  0.5967810000000  0.4848560000000 1.0
END
