TITL C-3289328-6581-463 -0.00417046481788852 125000 -1008.3217942484 0 0 185 (C1) n - 1
REM
REM in /nfs/bkarasulu/CARBON/AIRSS/Generating-Clusters/AIREBO/with-SteepDescent/Higher-Symm/SD-CG/HFTN-CG
REM
REM
REM
REM
REM
REM ./C.cell (b20cbc046b6831c77cfcea5457e17084)
REM
REM compiler GCC version 9.2.1 20190827 (Red Hat 9.2.1-1)
REM options -cpp -mtune=generic -march=x86-64 -g -O0 -fpre-include=/usr/include/finclude/math-vector-fortran.h
REM seed 1558422214 -1761807999 1975613537 -978383148 342212882 797452115 184863357 -1276950449 388278956 836150625 -1475853417 -1203778087 22004827 41216968 1708012278 -379683008 -1319372401 1114244779 -1169833516 118498837 -1307201765 -1965419835 -1650839350 958299484 -229438676 -435131949 -2031907021 -1878797530 -72752580 1465978120 -2127623163 230260467 403850453
REM
CELL 1.54180   50.00000   50.00000   50.00000   90.00000   90.00000   90.00000
LATT -1
SFAC C  
C      1  0.5252520000000  0.5489470000000  0.5385290000000 1.0
C      1  0.5474140000000  0.4762180000000  0.4662780000000 1.0
C      1  0.4751630000000  0.4547840000000  0.5250690000000 1.0
C      1  0.4545800000000  0.5188490000000  0.4590620000000 1.0
C      1  0.5762000000000  0.5506220000000  0.5006880000000 1.0
C      1  0.5328840000000  0.4396740000000  0.5046410000000 1.0
C      1  0.4246700000000  0.4496010000000  0.5114220000000 1.0
C      1  0.4534070000000  0.5648760000000  0.5030090000000 1.0
C      1  0.4869360000000  0.6010740000000  0.5349620000000 1.0
C      1  0.6004150000000  0.5162690000000  0.4665720000000 1.0
C      1  0.5081610000000  0.4016090000000  0.5287670000000 1.0
C      1  0.3954030000000  0.4890880000000  0.4735010000000 1.0
C      1  0.5778720000000  0.5071060000000  0.5861450000000 1.0
C      1  0.5273750000000  0.4219520000000  0.4153950000000 1.0
C      1  0.4245870000000  0.4830770000000  0.5910100000000 1.0
C      1  0.4858250000000  0.5769460000000  0.4211570000000 1.0
C      1  0.5031720000000  0.4684150000000  0.5223990000000 1.0
C      1  0.4753300000000  0.5017160000000  0.4691730000000 1.0
C      1  0.4991190000000  0.5380960000000  0.5258410000000 1.0
C      1  0.5344210000000  0.5049970000000  0.4715650000000 1.0
C      1  0.4991790000000  0.4819720000000  0.5978620000000 1.0
C      1  0.4907800000000  0.5049860000000  0.3965940000000 1.0
C      1  0.5026020000000  0.5158290000000  0.5993220000000 1.0
C      1  0.5212460000000  0.4939200000000  0.3903590000000 1.0
C      1  0.5882280000000  0.4556920000000  0.5544580000000 1.0
C      1  0.4688540000000  0.4137800000000  0.4297830000000 1.0
C      1  0.4159510000000  0.5452490000000  0.5638050000000 1.0
C      1  0.5409860000000  0.5902270000000  0.4422050000000 1.0
C      1  0.4051370000000  0.5486980000000  0.5122350000000 1.0
C      1  0.5422410000000  0.6042110000000  0.4889470000000 1.0
C      1  0.5967120000000  0.4593660000000  0.5159510000000 1.0
C      1  0.4491990000000  0.4050740000000  0.4800410000000 1.0
C      1  0.5666530000000  0.5751640000000  0.5330440000000 1.0
C      1  0.5824450000000  0.4312470000000  0.4540270000000 1.0
C      1  0.4193630000000  0.4258770000000  0.5461490000000 1.0
C      1  0.4421660000000  0.5604300000000  0.4523010000000 1.0
C      1  0.5370610000000  0.4700080000000  0.3942730000000 1.0
C      1  0.4694750000000  0.4683090000000  0.6048210000000 1.0
C      1  0.4711480000000  0.5326570000000  0.3988330000000 1.0
C      1  0.5321070000000  0.5329850000000  0.5960280000000 1.0
C      1  0.5147880000000  0.4745910000000  0.4271370000000 1.0
C      1  0.4784180000000  0.4890290000000  0.5718620000000 1.0
C      1  0.4803140000000  0.5079950000000  0.4285290000000 1.0
C      1  0.5139750000000  0.5120030000000  0.5675030000000 1.0
C      1  0.4140410000000  0.5746180000000  0.4921100000000 1.0
C      1  0.5923460000000  0.5783450000000  0.5258910000000 1.0
C      1  0.5823570000000  0.4238340000000  0.4872100000000 1.0
C      1  0.4011130000000  0.4163270000000  0.5264220000000 1.0
C      1  0.5072590000000  0.5688670000000  0.5016500000000 1.0
C      1  0.5652770000000  0.5037920000000  0.4986800000000 1.0
C      1  0.4994030000000  0.4355690000000  0.5000310000000 1.0
C      1  0.4254640000000  0.5008450000000  0.4961830000000 1.0
C      1  0.4278370000000  0.5049720000000  0.4329000000000 1.0
C      1  0.5046760000000  0.5710000000000  0.5644300000000 1.0
C      1  0.5682840000000  0.4890660000000  0.4343070000000 1.0
C      1  0.4734060000000  0.4324980000000  0.5578360000000 1.0
C      1  0.5307920000000  0.4095450000000  0.5458510000000 1.0
C      1  0.4014740000000  0.4648280000000  0.4580160000000 1.0
C      1  0.4645120000000  0.5912510000000  0.5488230000000 1.0
C      1  0.5964900000000  0.5428460000000  0.4531900000000 1.0
C      1  0.4641270000000  0.4388650000000  0.4189470000000 1.0
C      1  0.4395480000000  0.5325780000000  0.5832320000000 1.0
C      1  0.5342190000000  0.5617000000000  0.4327790000000 1.0
C      1  0.5598140000000  0.4713630000000  0.5644390000000 1.0
C      1  0.3971860000000  0.4655100000000  0.5212250000000 1.0
C      1  0.4663880000000  0.5985930000000  0.4862900000000 1.0
C      1  0.6044020000000  0.5413990000000  0.5172920000000 1.0
C      1  0.5345350000000  0.4121530000000  0.4851060000000 1.0
C      1  0.6099730000000  0.5116120000000  0.5222390000000 1.0
C      1  0.5065350000000  0.3991660000000  0.4713550000000 1.0
C      1  0.3976090000000  0.4945620000000  0.5393780000000 1.0
C      1  0.4958420000000  0.6069680000000  0.4710510000000 1.0
C      1  0.4516240000000  0.5556410000000  0.5309630000000 1.0
C      1  0.5544240000000  0.5542530000000  0.4761220000000 1.0
C      1  0.5418090000000  0.4482610000000  0.5360330000000 1.0
C      1  0.4484210000000  0.4451880000000  0.4614320000000 1.0
C      1  0.4982080000000  0.4727410000000  0.4546530000000 1.0
C      1  0.4845250000000  0.5014100000000  0.5427000000000 1.0
C      1  0.5006530000000  0.5037250000000  0.4504950000000 1.0
C      1  0.5178080000000  0.5029390000000  0.5359190000000 1.0
C      1  0.4390560000000  0.5930620000000  0.5355050000000 1.0
C      1  0.5909920000000  0.5673900000000  0.4675480000000 1.0
C      1  0.5562340000000  0.4112890000000  0.5315070000000 1.0
C      1  0.4040170000000  0.4393810000000  0.4737800000000 1.0
C      1  0.4933480000000  0.5389550000000  0.5653350000000 1.0
C      1  0.5359770000000  0.4978060000000  0.4281810000000 1.0
C      1  0.4931120000000  0.4592070000000  0.5646610000000 1.0
C      1  0.4569000000000  0.4873890000000  0.4312270000000 1.0
C      1  0.4641580000000  0.4433000000000  0.5883740000000 1.0
C      1  0.4394810000000  0.5228300000000  0.4063980000000 1.0
C      1  0.5254790000000  0.5632300000000  0.5849470000000 1.0
C      1  0.5647630000000  0.4749980000000  0.4035430000000 1.0
C      1  0.5277990000000  0.4078220000000  0.4462010000000 1.0
C      1  0.4150430000000  0.4751020000000  0.5612090000000 1.0
C      1  0.4785700000000  0.5924320000000  0.4487380000000 1.0
C      1  0.5934760000000  0.5119550000000  0.5585160000000 1.0
C      1  0.4465660000000  0.5199880000000  0.5066070000000 1.0
C      1  0.5241500000000  0.5495450000000  0.4825180000000 1.0
C      1  0.5464920000000  0.4806410000000  0.5085960000000 1.0
C      1  0.4719960000000  0.4496050000000  0.4855510000000 1.0
C      1  0.5262510000000  0.5206410000000  0.4063970000000 1.0
C      1  0.5181430000000  0.4553750000000  0.5864330000000 1.0
C      1  0.4720020000000  0.4791640000000  0.4027100000000 1.0
C      1  0.4794420000000  0.5409990000000  0.5942530000000 1.0
C      1  0.4085000000000  0.4452350000000  0.5639710000000 1.0
C      1  0.4510370000000  0.6052230000000  0.4425810000000 1.0
C      1  0.6184480000000  0.5286630000000  0.5622490000000 1.0
C      1  0.5572490000000  0.4091080000000  0.4597940000000 1.0
C      1  0.5085660000000  0.3886920000000  0.5036850000000 1.0
C      1  0.3979570000000  0.4924170000000  0.5057090000000 1.0
C      1  0.4933130000000  0.5979320000000  0.5037330000000 1.0
C      1  0.5973010000000  0.5088640000000  0.4958380000000 1.0
C      1  0.4621310000000  0.5130520000000  0.5897420000000 1.0
C      1  0.5188250000000  0.5462850000000  0.4107520000000 1.0
C      1  0.5331450000000  0.4854460000000  0.5770700000000 1.0
C      1  0.4920630000000  0.4560670000000  0.4098790000000 1.0
C      1  0.5616720000000  0.4121490000000  0.5018290000000 1.0
C      1  0.3935390000000  0.4378580000000  0.5039090000000 1.0
C      1  0.4385280000000  0.5935960000000  0.5015000000000 1.0
C      1  0.6049340000000  0.5684090000000  0.4966440000000 1.0
C      1  0.5469920000000  0.5937240000000  0.5393420000000 1.0
C      1  0.5851680000000  0.4641930000000  0.4503290000000 1.0
C      1  0.4463350000000  0.4215170000000  0.5418920000000 1.0
C      1  0.4202470000000  0.5348820000000  0.4472870000000 1.0
C      1  0.4408900000000  0.5143370000000  0.5370100000000 1.0
C      1  0.5090700000000  0.5516510000000  0.4521130000000 1.0
C      1  0.5562390000000  0.4855290000000  0.5375900000000 1.0
C      1  0.4866110000000  0.4348500000000  0.4586270000000 1.0
C      1  0.5248240000000  0.5227930000000  0.4467820000000 1.0
C      1  0.5205000000000  0.4715480000000  0.5487250000000 1.0
C      1  0.4704850000000  0.4647790000000  0.4486900000000 1.0
C      1  0.4699570000000  0.5312780000000  0.5419430000000 1.0
C      1  0.6377720000000  0.5445890000000  0.5674080000000 1.0
C      1  0.5811070000000  0.4007770000000  0.4389960000000 1.0
C      1  0.3896420000000  0.4378760000000  0.5826160000000 1.0
C      1  0.4328040000000  0.5874720000000  0.4413460000000 1.0
C      1  0.5512890000000  0.5513050000000  0.5196970000000 1.0
C      1  0.5557700000000  0.4570220000000  0.4899970000000 1.0
C      1  0.4474340000000  0.4368340000000  0.5039200000000 1.0
C      1  0.4433400000000  0.5418710000000  0.4807750000000 1.0
C      1  0.4759550000000  0.5294410000000  0.5025000000000 1.0
C      1  0.5233220000000  0.5206230000000  0.4944690000000 1.0
C      1  0.5177020000000  0.4813620000000  0.4992470000000 1.0
C      1  0.4760930000000  0.4804300000000  0.4927650000000 1.0
C      1  0.5578670000000  0.5446830000000  0.4444450000000 1.0
C      1  0.5582850000000  0.4399770000000  0.5646060000000 1.0
C      1  0.4382040000000  0.4522380000000  0.4297710000000 1.0
C      1  0.4486580000000  0.5568900000000  0.5640390000000 1.0
C      1  0.4262020000000  0.5023900000000  0.4665320000000 1.0
C      1  0.5140250000000  0.5805980000000  0.5331590000000 1.0
C      1  0.5729800000000  0.4983770000000  0.4666710000000 1.0
C      1  0.4832000000000  0.4221990000000  0.5267810000000 1.0
C      1  0.5100280000000  0.4599360000000  0.4790900000000 1.0
C      1  0.4668000000000  0.4848080000000  0.5239560000000 1.0
C      1  0.4797810000000  0.5572810000000  0.4880000000000 1.0
C      1  0.5433020000000  0.5187560000000  0.5198860000000 1.0
C      1  0.5737560000000  0.4395500000000  0.5282620000000 1.0
C      1  0.4281820000000  0.4253830000000  0.4708440000000 1.0
C      1  0.4202570000000  0.5646930000000  0.5372760000000 1.0
C      1  0.5618510000000  0.5852050000000  0.4683800000000 1.0
C      1  0.4421450000000  0.4849900000000  0.5452620000000 1.0
C      1  0.4760120000000  0.5592260000000  0.4556340000000 1.0
C      1  0.5631490000000  0.5155600000000  0.5473210000000 1.0
C      1  0.5172500000000  0.4349650000000  0.4571740000000 1.0
C      1  0.4731100000000  0.5717780000000  0.5753540000000 1.0
C      1  0.5769290000000  0.5219840000000  0.4347700000000 1.0
C      1  0.5298990000000  0.4264820000000  0.5726460000000 1.0
C      1  0.4174900000000  0.4725620000000  0.4337580000000 1.0
C      1  0.4745930000000  0.4047870000000  0.4615670000000 1.0
C      1  0.4106040000000  0.5259320000000  0.5370590000000 1.0
C      1  0.5256500000000  0.6038540000000  0.4645600000000 1.0
C      1  0.5978310000000  0.4845680000000  0.5388360000000 1.0
C      1  0.5872550000000  0.4571440000000  0.4838030000000 1.0
C      1  0.4562480000000  0.4067430000000  0.5129530000000 1.0
C      1  0.4095710000000  0.5434050000000  0.4789300000000 1.0
C      1  0.5317190000000  0.6023720000000  0.5139160000000 1.0
C      1  0.4494250000000  0.4876750000000  0.6012880000000 1.0
C      1  0.4927210000000  0.5546230000000  0.4082480000000 1.0
C      1  0.5513500000000  0.5078180000000  0.5917960000000 1.0
C      1  0.5216170000000  0.4451650000000  0.4014970000000 1.0
C      1  0.5342050000000  0.4585510000000  0.4465710000000 1.0
C      1  0.4538690000000  0.4657930000000  0.5681800000000 1.0
C      1  0.4667070000000  0.5362270000000  0.4323790000000 1.0
C      1  0.5401720000000  0.5332060000000  0.5629850000000 1.0
C      1  0.4962630000000  0.5060310000000  0.5024690000000 1.0
END
