TITL C-3289320-4661-627 465.498923808275 125000 -870.180253040575 0 0 157 (C1) n - 1
REM
REM in /nfs/bkarasulu/CARBON/AIRSS/Generating-Clusters/AIREBO/with-SteepDescent/Higher-Symm/SD-CG/HFTN-CG
REM
REM
REM
REM
REM
REM ./C.cell (b20cbc046b6831c77cfcea5457e17084)
REM
REM compiler GCC version 9.2.1 20190827 (Red Hat 9.2.1-1)
REM options -cpp -mtune=generic -march=x86-64 -g -O0 -fpre-include=/usr/include/finclude/math-vector-fortran.h
REM seed 1152687513 1580343824 1347249098 -532843794 1393726567 251030658 -1341170863 -1881026987 -1974756676 938904503 -805005113 83351745 -641193067 1316247482 -746111589 784106479 -1191754481 -653623765 -372539435 -410066090 459033943 1925292688 1172782647 -997888020 -1565749894 -1593774251 635077902 955623124 1802281040 -1838413768 -1232282423 181190855 -1184869824
REM
CELL 1.54180   50.00000   50.00000   50.00000   90.00000   90.00000   90.00000
LATT -1
SFAC C  
C      1  0.5214960000000  0.4189180000000  0.5595370000000 1.0
C      1  0.5016290000000  0.4833460000000  0.4741930000000 1.0
C      1  0.4156590000000  0.4926760000000  0.5407110000000 1.0
C      1  0.4205620000000  0.5176680000000  0.5804700000000 1.0
C      1  0.4975960000000  0.4262930000000  0.5746430000000 1.0
C      1  0.4262400000000  0.4718420000000  0.5577070000000 1.0
C      1  0.4510330000000  0.4673490000000  0.4577200000000 1.0
C      1  0.4579020000000  0.5927630000000  0.4963790000000 1.0
C      1  0.5472620000000  0.5394830000000  0.5309110000000 1.0
C      1  0.5003730000000  0.4517130000000  0.5874760000000 1.0
C      1  0.5691420000000  0.5115790000000  0.5897340000000 1.0
C      1  0.4808380000000  0.5867440000000  0.4747440000000 1.0
C      1  0.4960450000000  0.5329920000000  0.5971350000000 1.0
C      1  0.5144210000000  0.4458830000000  0.4740920000000 1.0
C      1  0.4766650000000  0.5043020000000  0.5252520000000 1.0
C      1  0.5140380000000  0.5005790000000  0.4461620000000 1.0
C      1  0.5529870000000  0.5801120000000  0.4762710000000 1.0
C      1  0.5872340000000  0.5005050000000  0.5668000000000 1.0
C      1  0.4573210000000  0.4057760000000  0.4571550000000 1.0
C      1  0.5129820000000  0.5794810000000  0.4382120000000 1.0
C      1  0.5712430000000  0.5610150000000  0.5199550000000 1.0
C      1  0.4818210000000  0.4422280000000  0.5365750000000 1.0
C      1  0.5418830000000  0.6087380000000  0.4886280000000 1.0
C      1  0.5415450000000  0.4395500000000  0.5667230000000 1.0
C      1  0.5041150000000  0.5629130000000  0.6070450000000 1.0
C      1  0.4725860000000  0.4159430000000  0.5673360000000 1.0
C      1  0.4681100000000  0.4475900000000  0.4164390000000 1.0
C      1  0.5642570000000  0.4462310000000  0.4660850000000 1.0
C      1  0.4153920000000  0.4805500000000  0.4699670000000 1.0
C      1  0.4085640000000  0.5515560000000  0.5036890000000 1.0
C      1  0.5284780000000  0.4917660000000  0.5967760000000 1.0
C      1  0.5041310000000  0.5820010000000  0.5903060000000 1.0
C      1  0.4864970000000  0.5351910000000  0.4644960000000 1.0
C      1  0.5048410000000  0.4792130000000  0.4002830000000 1.0
C      1  0.5573340000000  0.4307100000000  0.4299860000000 1.0
C      1  0.6010540000000  0.5223790000000  0.5128730000000 1.0
C      1  0.5292220000000  0.5206170000000  0.5527550000000 1.0
C      1  0.4769240000000  0.4975750000000  0.5542420000000 1.0
C      1  0.4534550000000  0.4246860000000  0.5432230000000 1.0
C      1  0.4638140000000  0.5270460000000  0.3849320000000 1.0
C      1  0.5550480000000  0.5936000000000  0.5389650000000 1.0
C      1  0.4665650000000  0.5356620000000  0.5874490000000 1.0
C      1  0.5353870000000  0.5439550000000  0.4596010000000 1.0
C      1  0.5523940000000  0.4773960000000  0.5609560000000 1.0
C      1  0.5709770000000  0.4939640000000  0.5377340000000 1.0
C      1  0.5035460000000  0.6008920000000  0.4555610000000 1.0
C      1  0.4888980000000  0.4513570000000  0.3969100000000 1.0
C      1  0.4558180000000  0.4738720000000  0.4267530000000 1.0
C      1  0.5829030000000  0.5203530000000  0.4398650000000 1.0
C      1  0.4894750000000  0.4891210000000  0.5013600000000 1.0
C      1  0.4405990000000  0.4351180000000  0.4534030000000 1.0
C      1  0.5871950000000  0.4710700000000  0.4707300000000 1.0
C      1  0.5020010000000  0.4626580000000  0.4472130000000 1.0
C      1  0.5480300000000  0.4181020000000  0.4556360000000 1.0
C      1  0.4743100000000  0.5246440000000  0.4911940000000 1.0
C      1  0.4327080000000  0.5450450000000  0.4806350000000 1.0
C      1  0.4956670000000  0.5923200000000  0.5319050000000 1.0
C      1  0.4714100000000  0.3960960000000  0.4802140000000 1.0
C      1  0.4608800000000  0.5151130000000  0.4340120000000 1.0
C      1  0.5120700000000  0.6076990000000  0.4871750000000 1.0
C      1  0.4913960000000  0.5277490000000  0.4316530000000 1.0
C      1  0.4215780000000  0.4597780000000  0.4457590000000 1.0
C      1  0.4441810000000  0.5202920000000  0.4067080000000 1.0
C      1  0.5620040000000  0.5904330000000  0.5077830000000 1.0
C      1  0.5050730000000  0.4143770000000  0.4327370000000 1.0
C      1  0.5709530000000  0.4658850000000  0.5001560000000 1.0
C      1  0.5056960000000  0.5758170000000  0.5596250000000 1.0
C      1  0.5592670000000  0.4973290000000  0.5059850000000 1.0
C      1  0.4184520000000  0.4988790000000  0.5094020000000 1.0
C      1  0.5106640000000  0.4299990000000  0.4080360000000 1.0
C      1  0.4319640000000  0.4915190000000  0.4196620000000 1.0
C      1  0.4997940000000  0.4214100000000  0.5164930000000 1.0
C      1  0.4516920000000  0.5021070000000  0.5029580000000 1.0
C      1  0.4416380000000  0.5326780000000  0.5384020000000 1.0
C      1  0.5247010000000  0.4876950000000  0.5454610000000 1.0
C      1  0.4460020000000  0.5217810000000  0.4596690000000 1.0
C      1  0.5212640000000  0.5720250000000  0.5233420000000 1.0
C      1  0.4440800000000  0.4945070000000  0.4732940000000 1.0
C      1  0.5878830000000  0.5388660000000  0.5316750000000 1.0
C      1  0.5202630000000  0.4104100000000  0.4568470000000 1.0
C      1  0.5433920000000  0.5102570000000  0.5819000000000 1.0
C      1  0.5301170000000  0.4644110000000  0.5832230000000 1.0
C      1  0.5628800000000  0.5291970000000  0.4184010000000 1.0
C      1  0.5575540000000  0.5572910000000  0.4158660000000 1.0
C      1  0.4684990000000  0.5680010000000  0.4512200000000 1.0
C      1  0.5966930000000  0.4920500000000  0.5189860000000 1.0
C      1  0.4984760000000  0.4502370000000  0.5012400000000 1.0
C      1  0.5081220000000  0.5100610000000  0.4078170000000 1.0
C      1  0.4457890000000  0.5097920000000  0.5883870000000 1.0
C      1  0.5233750000000  0.4116950000000  0.5317460000000 1.0
C      1  0.4594370000000  0.3878990000000  0.5048550000000 1.0
C      1  0.5478060000000  0.4561020000000  0.4275770000000 1.0
C      1  0.5882450000000  0.4453950000000  0.5458090000000 1.0
C      1  0.4827270000000  0.4897760000000  0.4401550000000 1.0
C      1  0.5665580000000  0.4432070000000  0.5221890000000 1.0
C      1  0.5055430000000  0.5746290000000  0.4934540000000 1.0
C      1  0.5641930000000  0.5085370000000  0.4740740000000 1.0
C      1  0.5771370000000  0.5312130000000  0.5561630000000 1.0
C      1  0.5545330000000  0.5468130000000  0.5690520000000 1.0
C      1  0.5457290000000  0.5723290000000  0.4439780000000 1.0
C      1  0.5281140000000  0.5443520000000  0.5057370000000 1.0
C      1  0.4877280000000  0.5505500000000  0.5571120000000 1.0
C      1  0.4193380000000  0.5213820000000  0.4299110000000 1.0
C      1  0.5470530000000  0.4161880000000  0.5153490000000 1.0
C      1  0.4085270000000  0.5218000000000  0.4862880000000 1.0
C      1  0.4524180000000  0.4782680000000  0.5784510000000 1.0
C      1  0.5840650000000  0.4666740000000  0.5632170000000 1.0
C      1  0.4708450000000  0.4624540000000  0.4930760000000 1.0
C      1  0.5240230000000  0.5162630000000  0.4746310000000 1.0
C      1  0.4531120000000  0.5716240000000  0.5190110000000 1.0
C      1  0.4244170000000  0.4586670000000  0.5200300000000 1.0
C      1  0.4996490000000  0.5264380000000  0.5369950000000 1.0
C      1  0.4298120000000  0.4439180000000  0.5474580000000 1.0
C      1  0.5381480000000  0.5128910000000  0.4146640000000 1.0
C      1  0.4987210000000  0.5011770000000  0.5992000000000 1.0
C      1  0.4580410000000  0.5628930000000  0.5682080000000 1.0
C      1  0.5795380000000  0.5691260000000  0.4484900000000 1.0
C      1  0.4646670000000  0.4693810000000  0.5479270000000 1.0
C      1  0.4438330000000  0.5742160000000  0.4703880000000 1.0
C      1  0.4757380000000  0.4257470000000  0.4371550000000 1.0
C      1  0.4327940000000  0.4246280000000  0.5008620000000 1.0
C      1  0.4044760000000  0.4716440000000  0.4963790000000 1.0
C      1  0.4831380000000  0.4340880000000  0.4678710000000 1.0
C      1  0.5335190000000  0.4833150000000  0.4762020000000 1.0
C      1  0.4010170000000  0.5149610000000  0.4563090000000 1.0
C      1  0.4645750000000  0.5256570000000  0.5564810000000 1.0
C      1  0.5083880000000  0.5529130000000  0.4720610000000 1.0
C      1  0.4062460000000  0.4385710000000  0.5005620000000 1.0
C      1  0.5374300000000  0.5707780000000  0.5532320000000 1.0
C      1  0.5017410000000  0.4936320000000  0.5674590000000 1.0
C      1  0.5108450000000  0.4600010000000  0.5313710000000 1.0
C      1  0.4452010000000  0.4077120000000  0.5193000000000 1.0
C      1  0.4810400000000  0.4725730000000  0.5941310000000 1.0
C      1  0.5057920000000  0.5189350000000  0.5027960000000 1.0
C      1  0.4519990000000  0.4717400000000  0.5182740000000 1.0
C      1  0.5956180000000  0.4963340000000  0.4494700000000 1.0
C      1  0.4179540000000  0.5178220000000  0.5524930000000 1.0
C      1  0.5002470000000  0.4100000000000  0.4843760000000 1.0
C      1  0.5217330000000  0.5430250000000  0.5772180000000 1.0
C      1  0.5689900000000  0.5404910000000  0.4634870000000 1.0
C      1  0.5191120000000  0.4584650000000  0.4214830000000 1.0
C      1  0.5392100000000  0.4477940000000  0.5379280000000 1.0
C      1  0.4414780000000  0.5716360000000  0.5472020000000 1.0
C      1  0.5470780000000  0.5038650000000  0.4449760000000 1.0
C      1  0.4034200000000  0.4862230000000  0.4382550000000 1.0
C      1  0.4867030000000  0.6061190000000  0.5090410000000 1.0
C      1  0.5564640000000  0.5525850000000  0.4927060000000 1.0
C      1  0.5369690000000  0.4653560000000  0.5011050000000 1.0
C      1  0.4184550000000  0.5552910000000  0.5296650000000 1.0
C      1  0.4526760000000  0.5419700000000  0.5076840000000 1.0
C      1  0.4909020000000  0.5611740000000  0.4344410000000 1.0
C      1  0.5941790000000  0.4997870000000  0.4875630000000 1.0
C      1  0.5426740000000  0.4362650000000  0.4904030000000 1.0
C      1  0.5279790000000  0.4956070000000  0.5137680000000 1.0
C      1  0.4533030000000  0.4374150000000  0.4838350000000 1.0
C      1  0.5522230000000  0.4734630000000  0.4520700000000 1.0
C      1  0.4887240000000  0.5261860000000  0.3876150000000 1.0
END
