TITL C-3289325-7307-527 0.000566647526927948 125000 -648.097062424812 0 0 112 (C1) n - 1
REM
REM in /nfs/bkarasulu/CARBON/AIRSS/Generating-Clusters/AIREBO/with-SteepDescent/Higher-Symm/SD-CG/HFTN-CG
REM
REM
REM
REM
REM
REM ./C.cell (b20cbc046b6831c77cfcea5457e17084)
REM
REM compiler GCC version 9.2.1 20190827 (Red Hat 9.2.1-1)
REM options -cpp -mtune=generic -march=x86-64 -g -O0 -fpre-include=/usr/include/finclude/math-vector-fortran.h
REM seed 71389166 1456332464 947205522 1835254398 821395369 860780182 -1904651250 1924743730 -273129726 -1556047487 1323646479 1359059414 -362261198 -2101315222 2117707873 1554422409 -425699538 -1119891151 1833448866 1821784562 -2084036374 -535146758 204944551 294293857 -369676105 812736612 58894827 1205404886 78173033 -1714178223 346970718 -1871680049 -1787411940
REM
CELL 1.54180   50.00000   50.00000   50.00000   90.00000   90.00000   90.00000
LATT -1
SFAC C  
C      1  0.5681390000000  0.5554200000000  0.4709550000000 1.0
C      1  0.5724340000000  0.4750960000000  0.4313490000000 1.0
C      1  0.5695360000000  0.4247040000000  0.4956770000000 1.0
C      1  0.5735320000000  0.4759080000000  0.5577670000000 1.0
C      1  0.5638050000000  0.5600130000000  0.5526930000000 1.0
C      1  0.4531540000000  0.5704110000000  0.5445650000000 1.0
C      1  0.4532470000000  0.5632960000000  0.4454310000000 1.0
C      1  0.4551090000000  0.4683460000000  0.4260090000000 1.0
C      1  0.4519900000000  0.4199600000000  0.5053350000000 1.0
C      1  0.4595550000000  0.4844010000000  0.5797380000000 1.0
C      1  0.4887860000000  0.5328200000000  0.5908520000000 1.0
C      1  0.4732150000000  0.6033500000000  0.5129450000000 1.0
C      1  0.4790090000000  0.5371650000000  0.4074610000000 1.0
C      1  0.4815390000000  0.4235870000000  0.4264580000000 1.0
C      1  0.4775410000000  0.4167070000000  0.5509390000000 1.0
C      1  0.5758940000000  0.4516950000000  0.4830360000000 1.0
C      1  0.5760910000000  0.4504320000000  0.5409960000000 1.0
C      1  0.5757530000000  0.5329450000000  0.5396890000000 1.0
C      1  0.5693130000000  0.5606680000000  0.5012950000000 1.0
C      1  0.5725900000000  0.4977520000000  0.4499280000000 1.0
C      1  0.4584460000000  0.4272460000000  0.5323670000000 1.0
C      1  0.4658700000000  0.5160240000000  0.5856740000000 1.0
C      1  0.4537140000000  0.5829670000000  0.5186100000000 1.0
C      1  0.4598000000000  0.5399360000000  0.4284680000000 1.0
C      1  0.4579680000000  0.4388830000000  0.4321630000000 1.0
C      1  0.4742380000000  0.4097220000000  0.4913770000000 1.0
C      1  0.4839760000000  0.4695910000000  0.5815430000000 1.0
C      1  0.4785790000000  0.5699220000000  0.5558810000000 1.0
C      1  0.4755770000000  0.5796950000000  0.4509540000000 1.0
C      1  0.4795950000000  0.4788590000000  0.4164930000000 1.0
C      1  0.5805010000000  0.5303030000000  0.4898140000000 1.0
C      1  0.5805960000000  0.5003640000000  0.4766220000000 1.0
C      1  0.5821440000000  0.4776800000000  0.4928740000000 1.0
C      1  0.5829420000000  0.4796840000000  0.5250520000000 1.0
C      1  0.5741440000000  0.5105640000000  0.5147500000000 1.0
C      1  0.5295050000000  0.5309160000000  0.4599400000000 1.0
C      1  0.5255080000000  0.4665670000000  0.4444080000000 1.0
C      1  0.5312210000000  0.4490080000000  0.5189460000000 1.0
C      1  0.5283750000000  0.4920810000000  0.5599540000000 1.0
C      1  0.5217550000000  0.5570600000000  0.5244640000000 1.0
C      1  0.5170650000000  0.5500540000000  0.5806350000000 1.0
C      1  0.5237380000000  0.5754090000000  0.4693670000000 1.0
C      1  0.5368280000000  0.4866620000000  0.4012210000000 1.0
C      1  0.5234170000000  0.4177800000000  0.4837960000000 1.0
C      1  0.5404140000000  0.4504490000000  0.5821470000000 1.0
C      1  0.5231820000000  0.4973030000000  0.5287630000000 1.0
C      1  0.5314950000000  0.5266380000000  0.5167010000000 1.0
C      1  0.5206940000000  0.5161210000000  0.4886700000000 1.0
C      1  0.5305120000000  0.4919820000000  0.4664340000000 1.0
C      1  0.5296220000000  0.4690050000000  0.4914820000000 1.0
C      1  0.4102080000000  0.5169140000000  0.4800050000000 1.0
C      1  0.4035840000000  0.4889010000000  0.4789260000000 1.0
C      1  0.3919330000000  0.4827390000000  0.5050970000000 1.0
C      1  0.4021630000000  0.5024970000000  0.5239040000000 1.0
C      1  0.4092040000000  0.5248770000000  0.5074170000000 1.0
C      1  0.4773850000000  0.4949150000000  0.4718400000000 1.0
C      1  0.4963300000000  0.4760520000000  0.4929240000000 1.0
C      1  0.4940070000000  0.4924520000000  0.5201580000000 1.0
C      1  0.4705320000000  0.5156200000000  0.5138280000000 1.0
C      1  0.4905160000000  0.5176370000000  0.4894360000000 1.0
C      1  0.5280860000000  0.5903400000000  0.4934650000000 1.0
C      1  0.5316590000000  0.5125910000000  0.4125180000000 1.0
C      1  0.5325520000000  0.4236470000000  0.4558750000000 1.0
C      1  0.5339300000000  0.4308860000000  0.5619230000000 1.0
C      1  0.5411090000000  0.5276590000000  0.5726980000000 1.0
C      1  0.4399790000000  0.5549110000000  0.4693530000000 1.0
C      1  0.4426750000000  0.4856150000000  0.4445210000000 1.0
C      1  0.4394310000000  0.4406170000000  0.4908110000000 1.0
C      1  0.4458380000000  0.4764650000000  0.5556140000000 1.0
C      1  0.4422450000000  0.5443270000000  0.5444560000000 1.0
C      1  0.5495650000000  0.4755670000000  0.5718920000000 1.0
C      1  0.5354580000000  0.5628500000000  0.5550400000000 1.0
C      1  0.5422750000000  0.5567040000000  0.4616120000000 1.0
C      1  0.5460840000000  0.4688000000000  0.4215950000000 1.0
C      1  0.5420470000000  0.4231810000000  0.5031470000000 1.0
C      1  0.5029970000000  0.4491900000000  0.4630590000000 1.0
C      1  0.5059200000000  0.4523160000000  0.5370370000000 1.0
C      1  0.5055210000000  0.5172210000000  0.5584250000000 1.0
C      1  0.4989460000000  0.5639300000000  0.4997520000000 1.0
C      1  0.5048830000000  0.5157560000000  0.4419440000000 1.0
C      1  0.4856700000000  0.5325720000000  0.4617010000000 1.0
C      1  0.4783930000000  0.4666460000000  0.4584480000000 1.0
C      1  0.4853360000000  0.4528950000000  0.5139280000000 1.0
C      1  0.4796090000000  0.5012230000000  0.5496860000000 1.0
C      1  0.4768920000000  0.5470510000000  0.5156440000000 1.0
C      1  0.4363760000000  0.5361870000000  0.5159770000000 1.0
C      1  0.4307950000000  0.5281850000000  0.4653770000000 1.0
C      1  0.4281760000000  0.4732910000000  0.4717450000000 1.0
C      1  0.4420760000000  0.4722640000000  0.5029650000000 1.0
C      1  0.4255040000000  0.4977140000000  0.5444660000000 1.0
C      1  0.4960480000000  0.4318620000000  0.4894340000000 1.0
C      1  0.5015870000000  0.4755740000000  0.5555110000000 1.0
C      1  0.4961810000000  0.5454360000000  0.5436180000000 1.0
C      1  0.4949500000000  0.5626290000000  0.4676030000000 1.0
C      1  0.4997660000000  0.4859400000000  0.4402290000000 1.0
C      1  0.4514370000000  0.5160060000000  0.5559330000000 1.0
C      1  0.4500320000000  0.5585440000000  0.4980860000000 1.0
C      1  0.4584080000000  0.5149630000000  0.4515090000000 1.0
C      1  0.4516960000000  0.4508400000000  0.4618040000000 1.0
C      1  0.4562510000000  0.4588000000000  0.5306240000000 1.0
C      1  0.5469010000000  0.5746340000000  0.5106550000000 1.0
C      1  0.5443870000000  0.5101200000000  0.4412210000000 1.0
C      1  0.5471780000000  0.4475190000000  0.4718270000000 1.0
C      1  0.5521230000000  0.4362310000000  0.5392440000000 1.0
C      1  0.5472900000000  0.5243830000000  0.5459190000000 1.0
C      1  0.5069780000000  0.4281710000000  0.4383830000000 1.0
C      1  0.5045140000000  0.4257900000000  0.5535400000000 1.0
C      1  0.5164190000000  0.5144000000000  0.5905200000000 1.0
C      1  0.4996690000000  0.5958170000000  0.5060900000000 1.0
C      1  0.5044710000000  0.5260060000000  0.4126030000000 1.0
C      1  0.5482390000000  0.4913690000000  0.5090830000000 1.0
C      1  0.4415060000000  0.5025770000000  0.5148620000000 1.0
END
