TITL C-3289322-3858-660 -0.00194114175556853 125000 -521.112986434643 0 0 98 (C1) n - 1
REM
REM in /nfs/bkarasulu/CARBON/AIRSS/Generating-Clusters/AIREBO/with-SteepDescent/Higher-Symm/SD-CG/HFTN-CG
REM
REM
REM
REM
REM
REM ./C.cell (b20cbc046b6831c77cfcea5457e17084)
REM
REM compiler GCC version 9.2.1 20190827 (Red Hat 9.2.1-1)
REM options -cpp -mtune=generic -march=x86-64 -g -O0 -fpre-include=/usr/include/finclude/math-vector-fortran.h
REM seed -1157336924 -362893928 -840713409 -2054304398 1914324698 981970309 -866714173 1784467994 1782218268 -1564539788 1490583171 2123194563 -741595574 -1287591130 1129458739 287198682 200230892 -1137778688 -803396983 -1895459319 921780496 -57928426 -1646059230 -666204074 -499649060 -855658488 2027456421 -1129744121 458209866 612218416 1117156108 -2101816960 -1545907571
REM
CELL 1.54180   50.00000   50.00000   50.00000   90.00000   90.00000   90.00000
LATT -1
SFAC C  
C      1  0.5164880000000  0.5257480000000  0.4362520000000 1.0
C      1  0.5116050000000  0.5628770000000  0.5005140000000 1.0
C      1  0.5117050000000  0.5149120000000  0.5587130000000 1.0
C      1  0.5187650000000  0.4567810000000  0.5263770000000 1.0
C      1  0.5085550000000  0.4552070000000  0.4607060000000 1.0
C      1  0.5176490000000  0.4961040000000  0.5333400000000 1.0
C      1  0.5277720000000  0.4812160000000  0.5044910000000 1.0
C      1  0.5227590000000  0.4812280000000  0.4708620000000 1.0
C      1  0.5109210000000  0.5092510000000  0.4654650000000 1.0
C      1  0.5244980000000  0.5380840000000  0.5135840000000 1.0
C      1  0.5179740000000  0.4872570000000  0.5862910000000 1.0
C      1  0.5204010000000  0.4188980000000  0.5150700000000 1.0
C      1  0.5177100000000  0.4695270000000  0.4246660000000 1.0
C      1  0.5176910000000  0.5643020000000  0.4433490000000 1.0
C      1  0.5246440000000  0.5751850000000  0.5392460000000 1.0
C      1  0.4427910000000  0.4601540000000  0.4763220000000 1.0
C      1  0.4340520000000  0.5120180000000  0.4573750000000 1.0
C      1  0.4289010000000  0.5411500000000  0.5043940000000 1.0
C      1  0.4261540000000  0.4991880000000  0.5394760000000 1.0
C      1  0.4257340000000  0.4691680000000  0.5235190000000 1.0
C      1  0.4941900000000  0.4786120000000  0.4997310000000 1.0
C      1  0.4710530000000  0.5018890000000  0.4681780000000 1.0
C      1  0.4891610000000  0.5166970000000  0.4891390000000 1.0
C      1  0.4701710000000  0.5252840000000  0.5136230000000 1.0
C      1  0.4759810000000  0.4805050000000  0.5244330000000 1.0
C      1  0.5036380000000  0.4183120000000  0.5898410000000 1.0
C      1  0.4653190000000  0.3931270000000  0.4616050000000 1.0
C      1  0.5085860000000  0.5251200000000  0.4061580000000 1.0
C      1  0.4719910000000  0.6130180000000  0.4589100000000 1.0
C      1  0.4686140000000  0.5600700000000  0.5994650000000 1.0
C      1  0.4744900000000  0.4149270000000  0.4711950000000 1.0
C      1  0.4922060000000  0.5069810000000  0.3997470000000 1.0
C      1  0.4789330000000  0.5901010000000  0.4677320000000 1.0
C      1  0.4773740000000  0.5493680000000  0.5780170000000 1.0
C      1  0.5000620000000  0.4363380000000  0.5721360000000 1.0
C      1  0.5676860000000  0.5040430000000  0.5674450000000 1.0
C      1  0.5709720000000  0.4321330000000  0.5258030000000 1.0
C      1  0.5595200000000  0.4462370000000  0.4437930000000 1.0
C      1  0.5656650000000  0.5300890000000  0.4447060000000 1.0
C      1  0.5769700000000  0.5843660000000  0.5121910000000 1.0
C      1  0.5532450000000  0.4590710000000  0.5025510000000 1.0
C      1  0.5550720000000  0.4784020000000  0.4668010000000 1.0
C      1  0.5407830000000  0.5609980000000  0.4854930000000 1.0
C      1  0.5512080000000  0.5454530000000  0.5293650000000 1.0
C      1  0.5449400000000  0.4811380000000  0.5442070000000 1.0
C      1  0.5393390000000  0.5110540000000  0.5781770000000 1.0
C      1  0.5421770000000  0.4335710000000  0.5347320000000 1.0
C      1  0.5316230000000  0.4437690000000  0.4391340000000 1.0
C      1  0.5431130000000  0.5423430000000  0.4380900000000 1.0
C      1  0.5520850000000  0.5790240000000  0.5240240000000 1.0
C      1  0.4827110000000  0.4632110000000  0.4422580000000 1.0
C      1  0.4929230000000  0.5424120000000  0.4527940000000 1.0
C      1  0.4972600000000  0.5609530000000  0.5313920000000 1.0
C      1  0.4936580000000  0.4865180000000  0.5636210000000 1.0
C      1  0.4936040000000  0.4375240000000  0.5130700000000 1.0
C      1  0.4905260000000  0.5377990000000  0.5529830000000 1.0
C      1  0.4955310000000  0.4579970000000  0.5508550000000 1.0
C      1  0.4880830000000  0.4395310000000  0.4828690000000 1.0
C      1  0.4889030000000  0.4866250000000  0.4229820000000 1.0
C      1  0.4872170000000  0.5624790000000  0.4783790000000 1.0
C      1  0.5395220000000  0.4714160000000  0.5739210000000 1.0
C      1  0.5404890000000  0.4283740000000  0.4953840000000 1.0
C      1  0.5416610000000  0.4821620000000  0.4357730000000 1.0
C      1  0.5392380000000  0.5741170000000  0.4618490000000 1.0
C      1  0.5424900000000  0.5595450000000  0.5597910000000 1.0
C      1  0.4731180000000  0.5577680000000  0.5089580000000 1.0
C      1  0.4754860000000  0.5089610000000  0.5430360000000 1.0
C      1  0.4688900000000  0.4504770000000  0.5324970000000 1.0
C      1  0.4736970000000  0.4692210000000  0.4742710000000 1.0
C      1  0.4783760000000  0.5145580000000  0.4395410000000 1.0
C      1  0.5682490000000  0.4638120000000  0.5328560000000 1.0
C      1  0.5681880000000  0.4480610000000  0.4750090000000 1.0
C      1  0.5750580000000  0.4983700000000  0.4501790000000 1.0
C      1  0.5624320000000  0.5378670000000  0.4981620000000 1.0
C      1  0.5524890000000  0.5141050000000  0.5406280000000 1.0
C      1  0.4015040000000  0.4907380000000  0.5168590000000 1.0
C      1  0.4247230000000  0.4767150000000  0.4918740000000 1.0
C      1  0.4153210000000  0.5012280000000  0.4770280000000 1.0
C      1  0.4045610000000  0.5217440000000  0.4918880000000 1.0
C      1  0.4093270000000  0.5229240000000  0.5245840000000 1.0
C      1  0.4401730000000  0.4465460000000  0.5346420000000 1.0
C      1  0.4348870000000  0.4384050000000  0.4631900000000 1.0
C      1  0.4477380000000  0.5173550000000  0.4346620000000 1.0
C      1  0.4439620000000  0.5658270000000  0.5103630000000 1.0
C      1  0.4472170000000  0.5074430000000  0.5573820000000 1.0
C      1  0.4276590000000  0.4156450000000  0.4523930000000 1.0
C      1  0.4382380000000  0.5244910000000  0.4101050000000 1.0
C      1  0.4345860000000  0.5894370000000  0.5156030000000 1.0
C      1  0.4444840000000  0.5122610000000  0.5828810000000 1.0
C      1  0.4290010000000  0.4246840000000  0.5433720000000 1.0
C      1  0.5822250000000  0.4814880000000  0.5584290000000 1.0
C      1  0.5801350000000  0.4292290000000  0.4998740000000 1.0
C      1  0.5783290000000  0.4675600000000  0.4361670000000 1.0
C      1  0.5782260000000  0.5235550000000  0.4729130000000 1.0
C      1  0.5873690000000  0.5607820000000  0.5012290000000 1.0
C      1  0.5493240000000  0.5073730000000  0.5074510000000 1.0
C      1  0.5106660000000  0.5165810000000  0.5115070000000 1.0
C      1  0.4496890000000  0.5212260000000  0.4862730000000 1.0
END
