TITL C-3289333-7213-194 -0.00897713983057511 125000 -1021.88860294908 0 0 182 (C1) n - 1
REM
REM in /nfs/bkarasulu/CARBON/AIRSS/Generating-Clusters/AIREBO/with-SteepDescent/Higher-Symm/SD-CG/HFTN-CG
REM
REM
REM
REM
REM
REM ./C.cell (b20cbc046b6831c77cfcea5457e17084)
REM
REM compiler GCC version 9.2.1 20190827 (Red Hat 9.2.1-1)
REM options -cpp -mtune=generic -march=x86-64 -g -O0 -fpre-include=/usr/include/finclude/math-vector-fortran.h
REM seed -776718218 -1094559162 -2124257499 -497780666 -68861577 -99834916 1243698275 447546555 -1761506080 130647093 1131975280 -1700226841 -1860850981 753539801 683678306 -1771145555 1689561015 1820620104 67074551 -161743295 -387754370 -1009999699 368099370 -749147872 -1596092585 477534463 656520249 -655118781 663008510 1700692644 1587257144 -1041527766 93990219
REM
CELL 1.54180   50.00000   50.00000   50.00000   90.00000   90.00000   90.00000
LATT -1
SFAC C  
C      1  0.5424010000000  0.5414830000000  0.5937570000000 1.0
C      1  0.6005810000000  0.5462080000000  0.5194530000000 1.0
C      1  0.5714480000000  0.5612800000000  0.4270440000000 1.0
C      1  0.4988350000000  0.5494380000000  0.4037310000000 1.0
C      1  0.4165590000000  0.5556770000000  0.4537600000000 1.0
C      1  0.3973430000000  0.5441230000000  0.5299150000000 1.0
C      1  0.4490750000000  0.5476210000000  0.5900990000000 1.0
C      1  0.4402470000000  0.4716060000000  0.4751870000000 1.0
C      1  0.4388710000000  0.4730150000000  0.5278400000000 1.0
C      1  0.4958710000000  0.4719830000000  0.5600440000000 1.0
C      1  0.5433930000000  0.4746300000000  0.5369250000000 1.0
C      1  0.5612350000000  0.4746430000000  0.4884220000000 1.0
C      1  0.5327270000000  0.4777100000000  0.4413320000000 1.0
C      1  0.4785170000000  0.4715480000000  0.4388160000000 1.0
C      1  0.3916470000000  0.5107260000000  0.4822180000000 1.0
C      1  0.4164390000000  0.5049120000000  0.5690830000000 1.0
C      1  0.4941400000000  0.5118940000000  0.6143910000000 1.0
C      1  0.5807280000000  0.5142370000000  0.5667210000000 1.0
C      1  0.6094170000000  0.5023590000000  0.4762380000000 1.0
C      1  0.5438010000000  0.5122580000000  0.3977660000000 1.0
C      1  0.4548950000000  0.5066670000000  0.3998360000000 1.0
C      1  0.5820640000000  0.5196120000000  0.4759830000000 1.0
C      1  0.5266670000000  0.5347640000000  0.4166400000000 1.0
C      1  0.4576390000000  0.5234010000000  0.4268460000000 1.0
C      1  0.4011850000000  0.5364170000000  0.4986280000000 1.0
C      1  0.4373160000000  0.5281170000000  0.5678230000000 1.0
C      1  0.5091620000000  0.5346590000000  0.5960610000000 1.0
C      1  0.5820140000000  0.5350940000000  0.5456790000000 1.0
C      1  0.4369530000000  0.4065490000000  0.5318260000000 1.0
C      1  0.4878150000000  0.4202470000000  0.5653720000000 1.0
C      1  0.5443350000000  0.4206270000000  0.5514180000000 1.0
C      1  0.5707400000000  0.4170090000000  0.4998200000000 1.0
C      1  0.5382300000000  0.4235190000000  0.4441390000000 1.0
C      1  0.4771540000000  0.4163670000000  0.4340790000000 1.0
C      1  0.4354970000000  0.4087720000000  0.4679110000000 1.0
C      1  0.5187810000000  0.5479510000000  0.5286270000000 1.0
C      1  0.5393240000000  0.5579430000000  0.5040540000000 1.0
C      1  0.5284810000000  0.5501060000000  0.4743890000000 1.0
C      1  0.4966750000000  0.5592520000000  0.4665420000000 1.0
C      1  0.4681950000000  0.5526360000000  0.4769680000000 1.0
C      1  0.4622420000000  0.5440010000000  0.5086540000000 1.0
C      1  0.4866280000000  0.5518590000000  0.5310160000000 1.0
C      1  0.4275720000000  0.4805140000000  0.6102730000000 1.0
C      1  0.5335320000000  0.4831230000000  0.6270890000000 1.0
C      1  0.6192770000000  0.4848790000000  0.5520130000000 1.0
C      1  0.6160930000000  0.4701160000000  0.4368720000000 1.0
C      1  0.5153010000000  0.4829660000000  0.3672930000000 1.0
C      1  0.4131230000000  0.4742870000000  0.4043410000000 1.0
C      1  0.3700220000000  0.4726350000000  0.5112200000000 1.0
C      1  0.5461040000000  0.4521670000000  0.4301500000000 1.0
C      1  0.4770310000000  0.4459910000000  0.4201920000000 1.0
C      1  0.4192430000000  0.4376760000000  0.4754730000000 1.0
C      1  0.4313390000000  0.4362930000000  0.5473230000000 1.0
C      1  0.4860210000000  0.4487940000000  0.5781460000000 1.0
C      1  0.5492780000000  0.4508660000000  0.5593690000000 1.0
C      1  0.5798780000000  0.4485540000000  0.4997570000000 1.0
C      1  0.4920960000000  0.4745180000000  0.5278680000000 1.0
C      1  0.5207310000000  0.4662800000000  0.5165570000000 1.0
C      1  0.5328560000000  0.4626440000000  0.4897320000000 1.0
C      1  0.5176790000000  0.4717310000000  0.4677190000000 1.0
C      1  0.4909150000000  0.4634520000000  0.4655050000000 1.0
C      1  0.4679800000000  0.4629770000000  0.4869230000000 1.0
C      1  0.4659160000000  0.4594560000000  0.5182000000000 1.0
C      1  0.4983950000000  0.5780950000000  0.5451040000000 1.0
C      1  0.5321240000000  0.5767700000000  0.5410180000000 1.0
C      1  0.5477580000000  0.5859090000000  0.4865020000000 1.0
C      1  0.5323220000000  0.5790660000000  0.4569870000000 1.0
C      1  0.4894480000000  0.5891750000000  0.4574160000000 1.0
C      1  0.4560370000000  0.5786310000000  0.4898030000000 1.0
C      1  0.4555050000000  0.5749340000000  0.5214680000000 1.0
C      1  0.4947140000000  0.6053630000000  0.5282230000000 1.0
C      1  0.5242160000000  0.6037670000000  0.5287380000000 1.0
C      1  0.5397880000000  0.6111390000000  0.5078700000000 1.0
C      1  0.5313320000000  0.6162730000000  0.4780720000000 1.0
C      1  0.5062150000000  0.6161950000000  0.4687030000000 1.0
C      1  0.4777790000000  0.6108980000000  0.4807870000000 1.0
C      1  0.4734630000000  0.5999260000000  0.5091320000000 1.0
C      1  0.4615040000000  0.4004950000000  0.4881890000000 1.0
C      1  0.4664700000000  0.3935760000000  0.5209860000000 1.0
C      1  0.4949990000000  0.4026000000000  0.5372000000000 1.0
C      1  0.5253850000000  0.4020550000000  0.5301390000000 1.0
C      1  0.5419180000000  0.3989380000000  0.4997460000000 1.0
C      1  0.5249890000000  0.4078380000000  0.4712550000000 1.0
C      1  0.4761880000000  0.3927130000000  0.4585210000000 1.0
C      1  0.5635680000000  0.4169760000000  0.4664200000000 1.0
C      1  0.5109890000000  0.4129210000000  0.4337440000000 1.0
C      1  0.4446320000000  0.4082910000000  0.4403400000000 1.0
C      1  0.4269760000000  0.4161600000000  0.5006460000000 1.0
C      1  0.4569840000000  0.4159540000000  0.5575640000000 1.0
C      1  0.5185800000000  0.4076200000000  0.5690850000000 1.0
C      1  0.5664650000000  0.4088640000000  0.5295200000000 1.0
C      1  0.5129090000000  0.5641600000000  0.5795780000000 1.0
C      1  0.5961510000000  0.5660860000000  0.5466810000000 1.0
C      1  0.5821570000000  0.5518590000000  0.4795630000000 1.0
C      1  0.5433710000000  0.5634040000000  0.4153240000000 1.0
C      1  0.4621490000000  0.5557630000000  0.4301030000000 1.0
C      1  0.3995530000000  0.5600040000000  0.4811780000000 1.0
C      1  0.4378290000000  0.5444410000000  0.5402730000000 1.0
C      1  0.5225290000000  0.5407110000000  0.5591670000000 1.0
C      1  0.5610300000000  0.5404540000000  0.5194630000000 1.0
C      1  0.5577300000000  0.5378270000000  0.4625070000000 1.0
C      1  0.5058250000000  0.5412530000000  0.4427170000000 1.0
C      1  0.4464120000000  0.5394920000000  0.4554760000000 1.0
C      1  0.4305450000000  0.5320710000000  0.5116770000000 1.0
C      1  0.4671860000000  0.5366920000000  0.5512720000000 1.0
C      1  0.4831350000000  0.5781130000000  0.5727330000000 1.0
C      1  0.5629800000000  0.5708790000000  0.5466950000000 1.0
C      1  0.5808670000000  0.5840990000000  0.4842280000000 1.0
C      1  0.5238840000000  0.5790780000000  0.4304600000000 1.0
C      1  0.4673430000000  0.5856590000000  0.4344710000000 1.0
C      1  0.4250810000000  0.5792490000000  0.4848930000000 1.0
C      1  0.4344580000000  0.5762480000000  0.5452200000000 1.0
C      1  0.4513220000000  0.4653020000000  0.6137240000000 1.0
C      1  0.5514510000000  0.4694400000000  0.6098940000000 1.0
C      1  0.6192640000000  0.4660530000000  0.5306270000000 1.0
C      1  0.6004900000000  0.4488760000000  0.4277470000000 1.0
C      1  0.4955500000000  0.4635640000000  0.3736410000000 1.0
C      1  0.4066190000000  0.4602240000000  0.4270460000000 1.0
C      1  0.3836230000000  0.4578270000000  0.5300410000000 1.0
C      1  0.5573040000000  0.5173250000000  0.5817870000000 1.0
C      1  0.6103380000000  0.5207400000000  0.5033030000000 1.0
C      1  0.5663220000000  0.5308100000000  0.4152220000000 1.0
C      1  0.4804440000000  0.5268710000000  0.3948300000000 1.0
C      1  0.4102730000000  0.5236550000000  0.4619190000000 1.0
C      1  0.4054200000000  0.5215570000000  0.5447300000000 1.0
C      1  0.4700550000000  0.5310210000000  0.6021300000000 1.0
C      1  0.5923650000000  0.4559350000000  0.5268940000000 1.0
C      1  0.5737430000000  0.4417470000000  0.4454710000000 1.0
C      1  0.5004880000000  0.4525850000000  0.4000050000000 1.0
C      1  0.4290690000000  0.4554220000000  0.4499490000000 1.0
C      1  0.4152730000000  0.4539120000000  0.5255500000000 1.0
C      1  0.4580680000000  0.4531310000000  0.5885480000000 1.0
C      1  0.5371560000000  0.4580850000000  0.5874070000000 1.0
C      1  0.5761850000000  0.5717070000000  0.4526100000000 1.0
C      1  0.4963900000000  0.5738750000000  0.4211570000000 1.0
C      1  0.4399770000000  0.5798420000000  0.4541500000000 1.0
C      1  0.4165540000000  0.5690990000000  0.5171100000000 1.0
C      1  0.4553460000000  0.5703940000000  0.5715630000000 1.0
C      1  0.5466430000000  0.5674960000000  0.5763650000000 1.0
C      1  0.5814180000000  0.5741760000000  0.5167880000000 1.0
C      1  0.4347350000000  0.5077800000000  0.4596150000000 1.0
C      1  0.4293780000000  0.5041580000000  0.5299490000000 1.0
C      1  0.4846560000000  0.5235300000000  0.5751590000000 1.0
C      1  0.5335610000000  0.5157180000000  0.5646210000000 1.0
C      1  0.5768680000000  0.5158810000000  0.5086680000000 1.0
C      1  0.5466150000000  0.5193350000000  0.4400670000000 1.0
C      1  0.4907580000000  0.5181870000000  0.4270240000000 1.0
C      1  0.5337800000000  0.5063430000000  0.5023660000000 1.0
C      1  0.5261670000000  0.5168890000000  0.4748460000000 1.0
C      1  0.5010560000000  0.5077970000000  0.4642260000000 1.0
C      1  0.4784500000000  0.5051070000000  0.4759270000000 1.0
C      1  0.4699040000000  0.5126940000000  0.5040210000000 1.0
C      1  0.4884200000000  0.5050760000000  0.5253260000000 1.0
C      1  0.5170590000000  0.5160740000000  0.5240880000000 1.0
C      1  0.4959280000000  0.4114930000000  0.4712000000000 1.0
C      1  0.4841160000000  0.4348450000000  0.4779330000000 1.0
C      1  0.4567860000000  0.4290140000000  0.5058310000000 1.0
C      1  0.4807770000000  0.4303350000000  0.5275370000000 1.0
C      1  0.5095240000000  0.4386620000000  0.5278750000000 1.0
C      1  0.5355430000000  0.4293540000000  0.5135390000000 1.0
C      1  0.5395880000000  0.4346120000000  0.4824640000000 1.0
C      1  0.4348410000000  0.4562750000000  0.5715990000000 1.0
C      1  0.5094750000000  0.4620140000000  0.5959970000000 1.0
C      1  0.5786230000000  0.4638060000000  0.5513640000000 1.0
C      1  0.5913610000000  0.4559630000000  0.4709200000000 1.0
C      1  0.5278790000000  0.4612840000000  0.4054300000000 1.0
C      1  0.4459930000000  0.4582590000000  0.4204720000000 1.0
C      1  0.4027210000000  0.4565080000000  0.4949260000000 1.0
C      1  0.3867080000000  0.4842060000000  0.4889990000000 1.0
C      1  0.4201000000000  0.4803610000000  0.5816720000000 1.0
C      1  0.5060350000000  0.4860720000000  0.6151730000000 1.0
C      1  0.5917410000000  0.4883780000000  0.5622390000000 1.0
C      1  0.6091630000000  0.4774170000000  0.4637950000000 1.0
C      1  0.5345870000000  0.4868260000000  0.3896610000000 1.0
C      1  0.4416360000000  0.4825580000000  0.4016000000000 1.0
C      1  0.5498190000000  0.4951110000000  0.4637500000000 1.0
C      1  0.5030040000000  0.4919160000000  0.4365720000000 1.0
C      1  0.4596920000000  0.4902760000000  0.4581070000000 1.0
C      1  0.4444720000000  0.4927320000000  0.5014910000000 1.0
C      1  0.4822530000000  0.5003540000000  0.5563250000000 1.0
C      1  0.5207680000000  0.4925560000000  0.5493730000000 1.0
C      1  0.5591850000000  0.4920540000000  0.5141200000000 1.0
END
