TITL C-3289328-6581-581 0.0017658867680503 125000 -439.067078784613 0 0 79 (C1) n - 1
REM
REM in /nfs/bkarasulu/CARBON/AIRSS/Generating-Clusters/AIREBO/with-SteepDescent/Higher-Symm/SD-CG/HFTN-CG
REM
REM
REM
REM
REM
REM ./C.cell (b20cbc046b6831c77cfcea5457e17084)
REM
REM compiler GCC version 9.2.1 20190827 (Red Hat 9.2.1-1)
REM options -cpp -mtune=generic -march=x86-64 -g -O0 -fpre-include=/usr/include/finclude/math-vector-fortran.h
REM seed -1172200844 1831814394 1981548901 -53272994 -1985555446 -1965976097 1847382656 1686063322 -963702089 736754507 -359308920 731156216 2049134070 976153608 -1464336890 -698690435 332603544 786673490 -2014944267 -1489368046 494461340 1697480887 -414796 1065884100 23171195 -112309583 143724190 -1673773736 1264015075 1723650456 -47924882 -1724595613 1875978714
REM
CELL 1.54180   50.00000   50.00000   50.00000   90.00000   90.00000   90.00000
LATT -1
SFAC C  
C      1  0.4760360000000  0.5038650000000  0.5711810000000 1.0
C      1  0.5245440000000  0.5012190000000  0.5876710000000 1.0
C      1  0.5369240000000  0.5793190000000  0.4912120000000 1.0
C      1  0.4527730000000  0.5878840000000  0.5024340000000 1.0
C      1  0.5467830000000  0.5122360000000  0.4961490000000 1.0
C      1  0.4444500000000  0.5074040000000  0.4992700000000 1.0
C      1  0.4863280000000  0.4657320000000  0.4334750000000 1.0
C      1  0.5149030000000  0.4648680000000  0.4314080000000 1.0
C      1  0.5526010000000  0.4788110000000  0.5290310000000 1.0
C      1  0.4455920000000  0.4770530000000  0.5286310000000 1.0
C      1  0.5176310000000  0.4600570000000  0.5273250000000 1.0
C      1  0.4796430000000  0.4559580000000  0.5159650000000 1.0
C      1  0.5558950000000  0.5069810000000  0.5266690000000 1.0
C      1  0.4345700000000  0.5059320000000  0.5316210000000 1.0
C      1  0.5180850000000  0.5589660000000  0.4697680000000 1.0
C      1  0.4866100000000  0.5514200000000  0.4655900000000 1.0
C      1  0.4696860000000  0.4635990000000  0.5475830000000 1.0
C      1  0.5335160000000  0.4704750000000  0.5529070000000 1.0
C      1  0.5485230000000  0.4643570000000  0.5029440000000 1.0
C      1  0.4402350000000  0.4639830000000  0.5036920000000 1.0
C      1  0.4687520000000  0.4082290000000  0.5272950000000 1.0
C      1  0.5303510000000  0.4297250000000  0.5187050000000 1.0
C      1  0.4889420000000  0.5240280000000  0.4257100000000 1.0
C      1  0.5177930000000  0.5212970000000  0.4237570000000 1.0
C      1  0.5708630000000  0.5438960000000  0.4964720000000 1.0
C      1  0.4317870000000  0.5453330000000  0.4994400000000 1.0
C      1  0.5752160000000  0.5174800000000  0.4801780000000 1.0
C      1  0.4423570000000  0.5275250000000  0.4744850000000 1.0
C      1  0.4507450000000  0.4823880000000  0.4771010000000 1.0
C      1  0.5534020000000  0.4700270000000  0.4697500000000 1.0
C      1  0.5309910000000  0.4507180000000  0.4529470000000 1.0
C      1  0.4710830000000  0.4587840000000  0.4630770000000 1.0
C      1  0.5280520000000  0.4911160000000  0.4256610000000 1.0
C      1  0.4755970000000  0.4947550000000  0.4278360000000 1.0
C      1  0.5116400000000  0.5267170000000  0.5437580000000 1.0
C      1  0.4804930000000  0.5218980000000  0.5445430000000 1.0
C      1  0.4877530000000  0.4852130000000  0.5100660000000 1.0
C      1  0.5179330000000  0.4910570000000  0.5132940000000 1.0
C      1  0.5291330000000  0.4909230000000  0.4811770000000 1.0
C      1  0.4794010000000  0.4990590000000  0.4820280000000 1.0
C      1  0.4745160000000  0.5305250000000  0.5830160000000 1.0
C      1  0.5229860000000  0.5242970000000  0.5748290000000 1.0
C      1  0.5160620000000  0.4175060000000  0.4903620000000 1.0
C      1  0.4828130000000  0.4176020000000  0.4975350000000 1.0
C      1  0.5600290000000  0.5013500000000  0.4581330000000 1.0
C      1  0.4448270000000  0.5030300000000  0.4507320000000 1.0
C      1  0.5497690000000  0.4220490000000  0.4913460000000 1.0
C      1  0.4497190000000  0.4149280000000  0.5027920000000 1.0
C      1  0.4815970000000  0.5290150000000  0.4906760000000 1.0
C      1  0.5069150000000  0.5468150000000  0.4993710000000 1.0
C      1  0.4816740000000  0.4334810000000  0.5397650000000 1.0
C      1  0.5119720000000  0.4317540000000  0.5456050000000 1.0
C      1  0.4327040000000  0.4369560000000  0.4999830000000 1.0
C      1  0.5661780000000  0.4393950000000  0.4771830000000 1.0
C      1  0.4602880000000  0.5557710000000  0.5384050000000 1.0
C      1  0.5390940000000  0.5571550000000  0.5348040000000 1.0
C      1  0.4906080000000  0.4982100000000  0.4559050000000 1.0
C      1  0.5171000000000  0.4968080000000  0.4552010000000 1.0
C      1  0.4549760000000  0.5626590000000  0.4602010000000 1.0
C      1  0.5451240000000  0.5489740000000  0.4542640000000 1.0
C      1  0.5588060000000  0.5385020000000  0.5236910000000 1.0
C      1  0.4411980000000  0.5373450000000  0.5259130000000 1.0
C      1  0.4416410000000  0.5689990000000  0.4844630000000 1.0
C      1  0.5568680000000  0.5616710000000  0.4788480000000 1.0
C      1  0.4896740000000  0.4473150000000  0.4865320000000 1.0
C      1  0.5224840000000  0.4506200000000  0.4856400000000 1.0
C      1  0.5272690000000  0.5761890000000  0.5171910000000 1.0
C      1  0.4704240000000  0.5769240000000  0.5217130000000 1.0
C      1  0.4654890000000  0.5300470000000  0.4496500000000 1.0
C      1  0.5442160000000  0.5232570000000  0.4427360000000 1.0
C      1  0.4853150000000  0.5516090000000  0.5603880000000 1.0
C      1  0.5193940000000  0.5546650000000  0.5611700000000 1.0
C      1  0.5221030000000  0.5249350000000  0.5155300000000 1.0
C      1  0.4715190000000  0.5123240000000  0.5186360000000 1.0
C      1  0.5113120000000  0.4246590000000  0.4574640000000 1.0
C      1  0.4844850000000  0.4299880000000  0.4509190000000 1.0
C      1  0.5154140000000  0.4784660000000  0.5729780000000 1.0
C      1  0.4866680000000  0.4787850000000  0.5677220000000 1.0
C      1  0.4974550000000  0.5741220000000  0.5160730000000 1.0
END
