TITL C-3289330-4660-257 0.00430120558548263 125000 -519.843668645661 0 0 100 (C1) n - 1
REM
REM in /nfs/bkarasulu/CARBON/AIRSS/Generating-Clusters/AIREBO/with-SteepDescent/Higher-Symm/SD-CG/HFTN-CG
REM
REM
REM
REM
REM
REM ./C.cell (b20cbc046b6831c77cfcea5457e17084)
REM
REM compiler GCC version 9.2.1 20190827 (Red Hat 9.2.1-1)
REM options -cpp -mtune=generic -march=x86-64 -g -O0 -fpre-include=/usr/include/finclude/math-vector-fortran.h
REM seed 1432592834 -146598600 -10130104 2104887914 582619314 940972263 217662281 -1763709653 -1374121373 1422550021 -1287085300 -254821668 -286125068 -1922948795 -426385495 -1803443356 121542689 -1310355281 -1232488555 -1223404733 -1701866502 358407425 -1229795451 489080107 -564900512 175330380 -578245780 -1456098494 -1113724767 -1767896866 -1384135498 -584544365 -663569654
REM
CELL 1.54180   50.00000   50.00000   50.00000   90.00000   90.00000   90.00000
LATT -1
SFAC C  
C      1  0.4912550000000  0.4276200000000  0.4732920000000 1.0
C      1  0.4588650000000  0.4873990000000  0.4308860000000 1.0
C      1  0.4323390000000  0.4543950000000  0.4918080000000 1.0
C      1  0.5000660000000  0.4458020000000  0.5335830000000 1.0
C      1  0.4923630000000  0.5670200000000  0.5453680000000 1.0
C      1  0.5078390000000  0.5521600000000  0.4753770000000 1.0
C      1  0.5247740000000  0.4833320000000  0.5546440000000 1.0
C      1  0.4750820000000  0.5066780000000  0.5452860000000 1.0
C      1  0.5524320000000  0.5070660000000  0.4104620000000 1.0
C      1  0.5509940000000  0.4779730000000  0.5119410000000 1.0
C      1  0.4510100000000  0.5284640000000  0.5049170000000 1.0
C      1  0.5525330000000  0.5276770000000  0.4970680000000 1.0
C      1  0.4898860000000  0.4734810000000  0.4306600000000 1.0
C      1  0.4347700000000  0.5024710000000  0.4590240000000 1.0
C      1  0.4729410000000  0.4369650000000  0.4979590000000 1.0
C      1  0.5091870000000  0.4597990000000  0.5699170000000 1.0
C      1  0.4961470000000  0.5296180000000  0.5589360000000 1.0
C      1  0.5037930000000  0.5323960000000  0.4413410000000 1.0
C      1  0.5686160000000  0.4938900000000  0.5349710000000 1.0
C      1  0.4401330000000  0.5036070000000  0.5262770000000 1.0
C      1  0.5537320000000  0.5026380000000  0.4725480000000 1.0
C      1  0.5360590000000  0.4420450000000  0.5038980000000 1.0
C      1  0.4676360000000  0.5658630000000  0.4970440000000 1.0
C      1  0.5274570000000  0.5582650000000  0.5024750000000 1.0
C      1  0.4616190000000  0.4960970000000  0.3980580000000 1.0
C      1  0.4095490000000  0.4692930000000  0.4793700000000 1.0
C      1  0.4963680000000  0.3827850000000  0.4968710000000 1.0
C      1  0.5386750000000  0.4780320000000  0.5914780000000 1.0
C      1  0.4601820000000  0.5136500000000  0.5817190000000 1.0
C      1  0.5307010000000  0.5204200000000  0.3997730000000 1.0
C      1  0.5936030000000  0.4592450000000  0.5105800000000 1.0
C      1  0.4206780000000  0.5373640000000  0.5174490000000 1.0
C      1  0.5787990000000  0.5335320000000  0.4762740000000 1.0
C      1  0.5237490000000  0.4168180000000  0.5475130000000 1.0
C      1  0.4861880000000  0.5925070000000  0.5311250000000 1.0
C      1  0.5174950000000  0.5895140000000  0.4650720000000 1.0
C      1  0.4513410000000  0.5203760000000  0.4273530000000 1.0
C      1  0.4237170000000  0.4492080000000  0.5228640000000 1.0
C      1  0.5179090000000  0.4347510000000  0.4533180000000 1.0
C      1  0.5365500000000  0.5073120000000  0.5756760000000 1.0
C      1  0.4598890000000  0.4811630000000  0.5569490000000 1.0
C      1  0.5482910000000  0.4795500000000  0.4266570000000 1.0
C      1  0.5631900000000  0.4642590000000  0.4852170000000 1.0
C      1  0.4352580000000  0.5480950000000  0.4820510000000 1.0
C      1  0.5687840000000  0.5518320000000  0.5146570000000 1.0
C      1  0.4846330000000  0.4321380000000  0.5550210000000 1.0
C      1  0.5213680000000  0.5653500000000  0.5604420000000 1.0
C      1  0.4873160000000  0.5668840000000  0.4519480000000 1.0
C      1  0.4302810000000  0.4745230000000  0.5409010000000 1.0
C      1  0.5423680000000  0.4404830000000  0.4719280000000 1.0
C      1  0.4747490000000  0.5444040000000  0.4284850000000 1.0
C      1  0.5648820000000  0.4753150000000  0.4553370000000 1.0
C      1  0.4320620000000  0.5345040000000  0.4523850000000 1.0
C      1  0.5678280000000  0.5241530000000  0.5337930000000 1.0
C      1  0.4633140000000  0.4304740000000  0.5300740000000 1.0
C      1  0.5409620000000  0.5671640000000  0.5324120000000 1.0
C      1  0.4587010000000  0.5679440000000  0.4665410000000 1.0
C      1  0.5286270000000  0.5329710000000  0.5678740000000 1.0
C      1  0.4756220000000  0.4571590000000  0.5746490000000 1.0
C      1  0.5199850000000  0.4613180000000  0.4313910000000 1.0
C      1  0.5056790000000  0.4863770000000  0.5896290000000 1.0
C      1  0.5835230000000  0.5033600000000  0.4889370000000 1.0
C      1  0.4869020000000  0.5886280000000  0.5043430000000 1.0
C      1  0.4899020000000  0.4968030000000  0.4081750000000 1.0
C      1  0.5063880000000  0.5183130000000  0.4133420000000 1.0
C      1  0.4894960000000  0.5079490000000  0.5842950000000 1.0
C      1  0.4152140000000  0.5089170000000  0.5037590000000 1.0
C      1  0.5895710000000  0.4875060000000  0.5111720000000 1.0
C      1  0.4141310000000  0.4958400000000  0.4796390000000 1.0
C      1  0.5129110000000  0.5874400000000  0.4927800000000 1.0
C      1  0.5008230000000  0.4084450000000  0.4965980000000 1.0
C      1  0.5165810000000  0.4238630000000  0.5167190000000 1.0
C      1  0.4984730000000  0.5222590000000  0.4734550000000 1.0
C      1  0.4686750000000  0.4868940000000  0.5183820000000 1.0
C      1  0.5198760000000  0.4716710000000  0.4997630000000 1.0
C      1  0.4988680000000  0.5402590000000  0.5267520000000 1.0
C      1  0.4946410000000  0.4736970000000  0.5301970000000 1.0
C      1  0.4931990000000  0.4802790000000  0.4804390000000 1.0
C      1  0.5199080000000  0.4992920000000  0.4713610000000 1.0
C      1  0.4637740000000  0.4867380000000  0.4635090000000 1.0
C      1  0.5191680000000  0.4950210000000  0.5244710000000 1.0
C      1  0.4634980000000  0.4687040000000  0.4923350000000 1.0
C      1  0.5241940000000  0.5255100000000  0.5122320000000 1.0
C      1  0.4817670000000  0.5350940000000  0.5002450000000 1.0
C      1  0.4228720000000  0.5043810000000  0.4272290000000 1.0
C      1  0.4418830000000  0.4256660000000  0.5059650000000 1.0
C      1  0.4869060000000  0.4428320000000  0.4431660000000 1.0
C      1  0.5579110000000  0.4844230000000  0.5631880000000 1.0
C      1  0.4453140000000  0.5183070000000  0.5566050000000 1.0
C      1  0.5593410000000  0.5115740000000  0.4402230000000 1.0
C      1  0.5693670000000  0.4426110000000  0.5106980000000 1.0
C      1  0.4369840000000  0.5650020000000  0.5117360000000 1.0
C      1  0.5556970000000  0.5587080000000  0.4835270000000 1.0
C      1  0.5227940000000  0.4326080000000  0.5668600000000 1.0
C      1  0.4917180000000  0.5585290000000  0.5771400000000 1.0
C      1  0.5203050000000  0.5618760000000  0.4454150000000 1.0
C      1  0.5317360000000  0.4711030000000  0.4616500000000 1.0
C      1  0.4652320000000  0.5352580000000  0.4598210000000 1.0
C      1  0.4491970000000  0.4491830000000  0.5533970000000 1.0
C      1  0.5496640000000  0.5407210000000  0.5475880000000 1.0
END
