TITL C-3289330-4660-54 4.86089918247652e-08 125000 -94.1292695591285 0 0 16 (Td) n - 1
REM
REM in /nfs/bkarasulu/CARBON/AIRSS/Generating-Clusters/AIREBO/with-SteepDescent/Higher-Symm/SD-CG/HFTN-CG
REM
REM
REM
REM
REM
REM ./C.cell (b20cbc046b6831c77cfcea5457e17084)
REM
REM compiler GCC version 9.2.1 20190827 (Red Hat 9.2.1-1)
REM options -cpp -mtune=generic -march=x86-64 -g -O0 -fpre-include=/usr/include/finclude/math-vector-fortran.h
REM seed 2113409264 -68377346 -525595233 -1413155335 -2019001313 -915458839 1039187989 2046271103 -320239680 -1367600969 1945695586 -567321704 -629658414 1396113697 1715537252 641175033 2076675757 -1903969582 -2070604564 -199891804 -1423311276 601188638 -1286400120 346945832 -891670845 -1398722198 1839370527 -789298899 -937977153 -270175422 401030374 -756184044 16875711
REM
CELL 1.54180   50.00000   50.00000   50.00000   90.00000   90.00000   90.00000
LATT -1
SFAC C  
C      1  0.4555570000000  0.5129520000000  0.4948920000000 1.0
C      1  0.4865770000000  0.4563580000000  0.5098080000000 1.0
C      1  0.5040940000000  0.4904920000000  0.4558120000000 1.0
C      1  0.5440680000000  0.5052300000000  0.5065310000000 1.0
C      1  0.4555730000000  0.4930860000000  0.5136330000000 1.0
C      1  0.5408240000000  0.4866190000000  0.4868080000000 1.0
C      1  0.5041220000000  0.4554200000000  0.4888990000000 1.0
C      1  0.4922600000000  0.5441510000000  0.4928000000000 1.0
C      1  0.5130640000000  0.5419580000000  0.5103570000000 1.0
C      1  0.4923030000000  0.4892140000000  0.5446290000000 1.0
C      1  0.5130920000000  0.5068860000000  0.5434440000000 1.0
C      1  0.4865330000000  0.5112950000000  0.4579790000000 1.0
C      1  0.4756920000000  0.5255080000000  0.4797340000000 1.0
C      1  0.4757300000000  0.4772400000000  0.5252700000000 1.0
C      1  0.5183600000000  0.4749610000000  0.4744690000000 1.0
C      1  0.5262410000000  0.5201780000000  0.5223910000000 1.0
END
