TITL C-3289327-5623-652 644.360710105585 125000 -430.060635227517 0 0 76 (C1) n - 1
REM
REM in /nfs/bkarasulu/CARBON/AIRSS/Generating-Clusters/AIREBO/with-SteepDescent/Higher-Symm/SD-CG/HFTN-CG
REM
REM
REM
REM
REM
REM ./C.cell (b20cbc046b6831c77cfcea5457e17084)
REM
REM compiler GCC version 9.2.1 20190827 (Red Hat 9.2.1-1)
REM options -cpp -mtune=generic -march=x86-64 -g -O0 -fpre-include=/usr/include/finclude/math-vector-fortran.h
REM seed -62808384 781449120 281963007 -1902697767 385162494 -131346943 -1310566387 516159428 -1740496614 -542348320 -1756474720 2021174341 1116727523 1204410312 841056322 231181257 277071629 -1442097086 1747808895 502109842 -1999349351 -1030639477 49790040 -1325192036 -1278975748 1537890874 -979550203 -1257322697 1140310307 1966963920 616791546 1629314645 8011646
REM
CELL 1.54180   50.00000   50.00000   50.00000   90.00000   90.00000   90.00000
LATT -1
SFAC C  
C      1  0.4264080000000  0.4922940000000  0.4582410000000 1.0
C      1  0.4982850000000  0.4543960000000  0.4289190000000 1.0
C      1  0.4724160000000  0.4346760000000  0.5057640000000 1.0
C      1  0.4380160000000  0.4952730000000  0.5473670000000 1.0
C      1  0.5702270000000  0.5015960000000  0.5511870000000 1.0
C      1  0.5694260000000  0.4882610000000  0.4496220000000 1.0
C      1  0.4965300000000  0.5486300000000  0.5624850000000 1.0
C      1  0.4831840000000  0.4610590000000  0.5559660000000 1.0
C      1  0.4833310000000  0.5503400000000  0.4394940000000 1.0
C      1  0.4480600000000  0.5571220000000  0.4855730000000 1.0
C      1  0.5358450000000  0.4419550000000  0.4719050000000 1.0
C      1  0.5434990000000  0.5588890000000  0.4998620000000 1.0
C      1  0.4448980000000  0.4533320000000  0.4979500000000 1.0
C      1  0.5126580000000  0.4335750000000  0.4523640000000 1.0
C      1  0.4476550000000  0.4890290000000  0.4343790000000 1.0
C      1  0.4281030000000  0.5419550000000  0.5086500000000 1.0
C      1  0.5683600000000  0.5433700000000  0.5106070000000 1.0
C      1  0.5611970000000  0.4478160000000  0.4938630000000 1.0
C      1  0.4961330000000  0.5745390000000  0.5436650000000 1.0
C      1  0.5061490000000  0.5706560000000  0.4544320000000 1.0
C      1  0.4838110000000  0.4341370000000  0.5348000000000 1.0
C      1  0.4651970000000  0.5039900000000  0.5751190000000 1.0
C      1  0.5484470000000  0.5001190000000  0.4306350000000 1.0
C      1  0.5431890000000  0.4983070000000  0.5693850000000 1.0
C      1  0.4498000000000  0.5620760000000  0.5354410000000 1.0
C      1  0.5743600000000  0.5197190000000  0.4532130000000 1.0
C      1  0.5141590000000  0.4561820000000  0.5691850000000 1.0
C      1  0.4624910000000  0.4272250000000  0.4741050000000 1.0
C      1  0.5518290000000  0.5647930000000  0.4710460000000 1.0
C      1  0.5358160000000  0.4322900000000  0.5342390000000 1.0
C      1  0.5624940000000  0.4699790000000  0.5500520000000 1.0
C      1  0.4323280000000  0.5220260000000  0.5580070000000 1.0
C      1  0.4273850000000  0.4600580000000  0.4523090000000 1.0
C      1  0.5375170000000  0.5467130000000  0.4294640000000 1.0
C      1  0.4693520000000  0.4433170000000  0.4272760000000 1.0
C      1  0.4697980000000  0.5518460000000  0.5788370000000 1.0
C      1  0.4519930000000  0.5294970000000  0.5803490000000 1.0
C      1  0.5542360000000  0.4557640000000  0.5235200000000 1.0
C      1  0.5343310000000  0.5682120000000  0.4491010000000 1.0
C      1  0.4457420000000  0.4589240000000  0.4264700000000 1.0
C      1  0.5391910000000  0.4679860000000  0.5729470000000 1.0
C      1  0.5589790000000  0.5288700000000  0.4265460000000 1.0
C      1  0.5647400000000  0.5339940000000  0.4775410000000 1.0
C      1  0.4263150000000  0.5439390000000  0.5395080000000 1.0
C      1  0.4343680000000  0.4413700000000  0.4723840000000 1.0
C      1  0.5130420000000  0.4355850000000  0.5484120000000 1.0
C      1  0.4792100000000  0.4290200000000  0.4525880000000 1.0
C      1  0.4660530000000  0.5729780000000  0.5556430000000 1.0
C      1  0.4546020000000  0.5074050000000  0.4706910000000 1.0
C      1  0.4992060000000  0.4836680000000  0.4442490000000 1.0
C      1  0.4826150000000  0.4639730000000  0.4916410000000 1.0
C      1  0.4563360000000  0.4979850000000  0.5218870000000 1.0
C      1  0.5436790000000  0.5081600000000  0.5220570000000 1.0
C      1  0.5340490000000  0.4932390000000  0.4739390000000 1.0
C      1  0.5005980000000  0.5234550000000  0.5442900000000 1.0
C      1  0.5030940000000  0.4838220000000  0.5404250000000 1.0
C      1  0.5122660000000  0.5324730000000  0.4448140000000 1.0
C      1  0.4668570000000  0.5501170000000  0.5130270000000 1.0
C      1  0.5220890000000  0.4619570000000  0.4957130000000 1.0
C      1  0.5151150000000  0.5427490000000  0.4989130000000 1.0
C      1  0.4577550000000  0.4825420000000  0.4943130000000 1.0
C      1  0.5018240000000  0.4620140000000  0.4675330000000 1.0
C      1  0.4736600000000  0.4973660000000  0.4444100000000 1.0
C      1  0.4528000000000  0.5213170000000  0.5016690000000 1.0
C      1  0.5383490000000  0.5198760000000  0.4930150000000 1.0
C      1  0.5448020000000  0.4824570000000  0.5052200000000 1.0
C      1  0.4971020000000  0.5475810000000  0.5225860000000 1.0
C      1  0.4990120000000  0.5440470000000  0.4739200000000 1.0
C      1  0.4998980000000  0.4600080000000  0.5196990000000 1.0
C      1  0.4771140000000  0.5029490000000  0.5449940000000 1.0
C      1  0.5214970000000  0.5029810000000  0.4468880000000 1.0
C      1  0.5258570000000  0.5057400000000  0.5450480000000 1.0
C      1  0.4571330000000  0.4751160000000  0.5653740000000 1.0
C      1  0.4660120000000  0.5391970000000  0.4667410000000 1.0
C      1  0.5559420000000  0.4692510000000  0.4692360000000 1.0
C      1  0.5695380000000  0.5233620000000  0.5301560000000 1.0
END
