TITL C-3289328-6581-696 0.00016661522980646 125000 -210.712183959348 0 0 39 (C1) n - 1
REM
REM in /nfs/bkarasulu/CARBON/AIRSS/Generating-Clusters/AIREBO/with-SteepDescent/Higher-Symm/SD-CG/HFTN-CG
REM
REM
REM
REM
REM
REM ./C.cell (b20cbc046b6831c77cfcea5457e17084)
REM
REM compiler GCC version 9.2.1 20190827 (Red Hat 9.2.1-1)
REM options -cpp -mtune=generic -march=x86-64 -g -O0 -fpre-include=/usr/include/finclude/math-vector-fortran.h
REM seed -1055886994 -96611801 -1838771756 1240057100 358316963 -271938938 -2103743036 1808504113 -1039944994 14825167 -1689962691 685252526 171868146 -591833340 2043989824 476894748 2039470673 1552805290 -1008672691 774437440 -2021588324 -1577030357 1961044513 1633320045 1467475664 -1314247824 1301937452 655859516 1779599668 -1599906085 -1764783359 206220789 -637692956
REM
CELL 1.54180   50.00000   50.00000   50.00000   90.00000   90.00000   90.00000
LATT -1
SFAC C  
C      1  0.4318550000000  0.5099120000000  0.5085450000000 1.0
C      1  0.5510980000000  0.5091270000000  0.4871170000000 1.0
C      1  0.5639790000000  0.5067480000000  0.5141300000000 1.0
C      1  0.4337550000000  0.5174720000000  0.4814570000000 1.0
C      1  0.4977570000000  0.4919700000000  0.4606150000000 1.0
C      1  0.4888780000000  0.4984340000000  0.5491230000000 1.0
C      1  0.5181890000000  0.5033560000000  0.5547670000000 1.0
C      1  0.4789230000000  0.5012960000000  0.4413730000000 1.0
C      1  0.4952190000000  0.3853270000000  0.5009260000000 1.0
C      1  0.5258040000000  0.4086160000000  0.5108710000000 1.0
C      1  0.5318170000000  0.6043940000000  0.4983800000000 1.0
C      1  0.4869440000000  0.5847530000000  0.5041920000000 1.0
C      1  0.4996150000000  0.4140740000000  0.4904690000000 1.0
C      1  0.5190040000000  0.3791400000000  0.5194180000000 1.0
C      1  0.5052240000000  0.6078800000000  0.5133680000000 1.0
C      1  0.5158770000000  0.5794640000000  0.4877500000000 1.0
C      1  0.4522690000000  0.4917120000000  0.4419080000000 1.0
C      1  0.5203760000000  0.4797670000000  0.5333040000000 1.0
C      1  0.4984180000000  0.5141050000000  0.4823670000000 1.0
C      1  0.4803320000000  0.5183490000000  0.5309160000000 1.0
C      1  0.4324990000000  0.5002620000000  0.4591560000000 1.0
C      1  0.5458190000000  0.4796360000000  0.5134120000000 1.0
C      1  0.4537510000000  0.5184360000000  0.5237290000000 1.0
C      1  0.5265410000000  0.5278660000000  0.4923290000000 1.0
C      1  0.4818090000000  0.5300990000000  0.4421520000000 1.0
C      1  0.5278910000000  0.5269560000000  0.5412490000000 1.0
C      1  0.5177840000000  0.4741080000000  0.4643990000000 1.0
C      1  0.4834590000000  0.4703890000000  0.5454710000000 1.0
C      1  0.4485940000000  0.5412530000000  0.4776890000000 1.0
C      1  0.5554930000000  0.5259600000000  0.5335570000000 1.0
C      1  0.4112810000000  0.4957990000000  0.5185710000000 1.0
C      1  0.5458680000000  0.4852220000000  0.4738520000000 1.0
C      1  0.5026740000000  0.4540330000000  0.5307890000000 1.0
C      1  0.4791320000000  0.5402330000000  0.4728300000000 1.0
C      1  0.5313350000000  0.4590730000000  0.4913100000000 1.0
C      1  0.5054720000000  0.5336840000000  0.5183840000000 1.0
C      1  0.4962020000000  0.5536050000000  0.4957660000000 1.0
C      1  0.5140150000000  0.4396820000000  0.5065680000000 1.0
C      1  0.5173080000000  0.4977870000000  0.5054580000000 1.0
END
