TITL C-3289335-9438-549 -0.000898767962849122 125000 -318.664081838307 0 0 61 (C1) n - 1
REM
REM in /nfs/bkarasulu/CARBON/AIRSS/Generating-Clusters/AIREBO/with-SteepDescent/Higher-Symm/SD-CG/HFTN-CG
REM
REM
REM
REM
REM
REM ./C.cell (b20cbc046b6831c77cfcea5457e17084)
REM
REM compiler GCC version 9.2.1 20190827 (Red Hat 9.2.1-1)
REM options -cpp -mtune=generic -march=x86-64 -g -O0 -fpre-include=/usr/include/finclude/math-vector-fortran.h
REM seed 1435840546 709305233 -1617942755 518601534 1604049699 49797461 689133684 755215546 1017685238 1131606866 2103896193 222298654 -406326430 1472503872 -63071322 -2014051254 -906588445 -474254556 -2057254927 875194733 -1072288653 250426201 337279065 -1652459640 1163807412 -1917726096 -1003747251 -567914018 -1952577359 677906118 795583082 -1712189855 -1758162015
REM
CELL 1.54180   50.00000   50.00000   50.00000   90.00000   90.00000   90.00000
LATT -1
SFAC C  
C      1  0.5169840000000  0.4403250000000  0.4905230000000 1.0
C      1  0.4561930000000  0.4479850000000  0.4883620000000 1.0
C      1  0.4339530000000  0.4958670000000  0.4904910000000 1.0
C      1  0.4599660000000  0.5467270000000  0.4912800000000 1.0
C      1  0.5169350000000  0.5613230000000  0.4864690000000 1.0
C      1  0.5578800000000  0.5305980000000  0.4974590000000 1.0
C      1  0.5585150000000  0.4782930000000  0.4956730000000 1.0
C      1  0.4847360000000  0.4546190000000  0.4376990000000 1.0
C      1  0.4546450000000  0.4933940000000  0.4242230000000 1.0
C      1  0.4581190000000  0.5183470000000  0.4257870000000 1.0
C      1  0.4959610000000  0.5439500000000  0.4401880000000 1.0
C      1  0.5533230000000  0.5262740000000  0.4209910000000 1.0
C      1  0.5136400000000  0.4889060000000  0.4240790000000 1.0
C      1  0.4968320000000  0.4682090000000  0.4176110000000 1.0
C      1  0.4798300000000  0.5575390000000  0.5458890000000 1.0
C      1  0.5290780000000  0.5542330000000  0.5446580000000 1.0
C      1  0.5578450000000  0.5107240000000  0.5529770000000 1.0
C      1  0.5433640000000  0.4596700000000  0.5599600000000 1.0
C      1  0.4950890000000  0.4384330000000  0.5427140000000 1.0
C      1  0.4544410000000  0.4651810000000  0.5452780000000 1.0
C      1  0.4462750000000  0.5164760000000  0.5526190000000 1.0
C      1  0.4479620000000  0.4917070000000  0.5390480000000 1.0
C      1  0.4625160000000  0.5361680000000  0.5405810000000 1.0
C      1  0.5040730000000  0.5555050000000  0.5315200000000 1.0
C      1  0.5434430000000  0.5307150000000  0.5391710000000 1.0
C      1  0.5499590000000  0.4842030000000  0.5468420000000 1.0
C      1  0.5236830000000  0.4443840000000  0.5462520000000 1.0
C      1  0.4763860000000  0.4551890000000  0.5300990000000 1.0
C      1  0.5404260000000  0.5477820000000  0.4658640000000 1.0
C      1  0.5695890000000  0.5207710000000  0.4683640000000 1.0
C      1  0.5447700000000  0.4673440000000  0.4677510000000 1.0
C      1  0.5010550000000  0.4377100000000  0.4614600000000 1.0
C      1  0.4365390000000  0.4531950000000  0.4615860000000 1.0
C      1  0.4417550000000  0.5057140000000  0.4600160000000 1.0
C      1  0.4661120000000  0.5626130000000  0.4618530000000 1.0
C      1  0.4828740000000  0.4726100000000  0.4665000000000 1.0
C      1  0.4545380000000  0.4767040000000  0.4513400000000 1.0
C      1  0.4620260000000  0.5308380000000  0.4547900000000 1.0
C      1  0.4915040000000  0.5319640000000  0.4716990000000 1.0
C      1  0.5465550000000  0.5219540000000  0.4477150000000 1.0
C      1  0.5259700000000  0.5001650000000  0.4527030000000 1.0
C      1  0.5158080000000  0.4681780000000  0.4581490000000 1.0
C      1  0.5233220000000  0.4529320000000  0.5183860000000 1.0
C      1  0.4778260000000  0.4714390000000  0.5001210000000 1.0
C      1  0.4577900000000  0.4970990000000  0.5099810000000 1.0
C      1  0.4709360000000  0.5260480000000  0.5124850000000 1.0
C      1  0.5022880000000  0.5359380000000  0.5037230000000 1.0
C      1  0.5310910000000  0.5185830000000  0.5120870000000 1.0
C      1  0.5343810000000  0.4850230000000  0.5166260000000 1.0
C      1  0.4838190000000  0.4321470000000  0.4892250000000 1.0
C      1  0.4269410000000  0.4655710000000  0.4906760000000 1.0
C      1  0.4346890000000  0.5292070000000  0.4838600000000 1.0
C      1  0.4860040000000  0.5686330000000  0.4874610000000 1.0
C      1  0.5500000000000  0.5614000000000  0.4943890000000 1.0
C      1  0.5758800000000  0.5020000000000  0.4937950000000 1.0
C      1  0.5506120000000  0.4453450000000  0.4907880000000 1.0
C      1  0.5076460000000  0.5062590000000  0.4774830000000 1.0
C      1  0.5036740000000  0.4908720000000  0.5032390000000 1.0
C      1  0.5021750000000  0.5001920000000  0.5612640000000 1.0
C      1  0.4954250000000  0.5033090000000  0.5864130000000 1.0
C      1  0.5081350000000  0.4946810000000  0.5367450000000 1.0
END
