TITL C-3289325-7307-448 -0.000982985441304898 125000 -584.212691400278 0 0 109 (C1) n - 1
REM
REM in /nfs/bkarasulu/CARBON/AIRSS/Generating-Clusters/AIREBO/with-SteepDescent/Higher-Symm/SD-CG/HFTN-CG
REM
REM
REM
REM
REM
REM ./C.cell (b20cbc046b6831c77cfcea5457e17084)
REM
REM compiler GCC version 9.2.1 20190827 (Red Hat 9.2.1-1)
REM options -cpp -mtune=generic -march=x86-64 -g -O0 -fpre-include=/usr/include/finclude/math-vector-fortran.h
REM seed 2081604209 1356283957 -1294197704 1568779565 -734760949 442959296 1587761278 884521003 -1620775774 2041020000 1928304903 1328949687 -1366399919 -929532173 -57985246 1455285924 -808640558 -1454189648 -990413065 -509997030 -81710307 -1316211344 533791356 -823264973 -823461535 309695928 -1050971912 -1424676945 1582528800 1284023542 1501416396 584493747 -232886569
REM
CELL 1.54180   50.00000   50.00000   50.00000   90.00000   90.00000   90.00000
LATT -1
SFAC C  
C      1  0.4675640000000  0.5159080000000  0.5066290000000 1.0
C      1  0.5105380000000  0.5156540000000  0.5416110000000 1.0
C      1  0.5415510000000  0.5190310000000  0.4890990000000 1.0
C      1  0.4873110000000  0.5134860000000  0.4690680000000 1.0
C      1  0.4602410000000  0.4855870000000  0.5121390000000 1.0
C      1  0.5102450000000  0.4851220000000  0.5379520000000 1.0
C      1  0.5265740000000  0.4906480000000  0.4898070000000 1.0
C      1  0.4769650000000  0.4837400000000  0.4645880000000 1.0
C      1  0.5331620000000  0.5255840000000  0.5198940000000 1.0
C      1  0.5170160000000  0.5249030000000  0.4662860000000 1.0
C      1  0.4636260000000  0.5335130000000  0.4797910000000 1.0
C      1  0.4842880000000  0.5294610000000  0.5304570000000 1.0
C      1  0.5292170000000  0.4756570000000  0.5166760000000 1.0
C      1  0.5081040000000  0.4795680000000  0.4650100000000 1.0
C      1  0.4590630000000  0.4706060000000  0.4862190000000 1.0
C      1  0.4818010000000  0.4764380000000  0.5321300000000 1.0
C      1  0.5507070000000  0.5337220000000  0.4334250000000 1.0
C      1  0.4244750000000  0.5075480000000  0.4483790000000 1.0
C      1  0.4440850000000  0.5122210000000  0.5691460000000 1.0
C      1  0.5596200000000  0.5232560000000  0.5533410000000 1.0
C      1  0.5512600000000  0.4808620000000  0.4381010000000 1.0
C      1  0.4309220000000  0.4573190000000  0.4520360000000 1.0
C      1  0.4499130000000  0.4660320000000  0.5656780000000 1.0
C      1  0.5644400000000  0.4714510000000  0.5515010000000 1.0
C      1  0.4787650000000  0.4840280000000  0.5651380000000 1.0
C      1  0.5598970000000  0.4821150000000  0.5223020000000 1.0
C      1  0.5197970000000  0.4850690000000  0.4335560000000 1.0
C      1  0.4290810000000  0.4606410000000  0.4823620000000 1.0
C      1  0.4744160000000  0.5182040000000  0.5609830000000 1.0
C      1  0.5657290000000  0.5158070000000  0.5207330000000 1.0
C      1  0.5219280000000  0.5191100000000  0.4363630000000 1.0
C      1  0.4316910000000  0.5289040000000  0.4721160000000 1.0
C      1  0.4811450000000  0.4486300000000  0.4460380000000 1.0
C      1  0.4501760000000  0.4388710000000  0.5226610000000 1.0
C      1  0.5189200000000  0.4465030000000  0.5496580000000 1.0
C      1  0.5471580000000  0.4462420000000  0.4803990000000 1.0
C      1  0.4792720000000  0.5558960000000  0.4467500000000 1.0
C      1  0.4466420000000  0.5620540000000  0.5120720000000 1.0
C      1  0.5165210000000  0.5571030000000  0.5623080000000 1.0
C      1  0.5580080000000  0.5539830000000  0.4797970000000 1.0
C      1  0.5084670000000  0.5455160000000  0.5932500000000 1.0
C      1  0.5888060000000  0.5402000000000  0.4788510000000 1.0
C      1  0.4800350000000  0.5423560000000  0.4155700000000 1.0
C      1  0.4167990000000  0.5457820000000  0.5107630000000 1.0
C      1  0.5195740000000  0.4588070000000  0.5813530000000 1.0
C      1  0.5790180000000  0.4571360000000  0.4756550000000 1.0
C      1  0.4806890000000  0.4661800000000  0.4169170000000 1.0
C      1  0.4235360000000  0.4578290000000  0.5216170000000 1.0
C      1  0.5938290000000  0.4820660000000  0.4864700000000 1.0
C      1  0.4998280000000  0.4871330000000  0.4076860000000 1.0
C      1  0.4119860000000  0.4824160000000  0.4997750000000 1.0
C      1  0.5005820000000  0.4858340000000  0.5911550000000 1.0
C      1  0.5911190000000  0.5122350000000  0.4985980000000 1.0
C      1  0.4873020000000  0.5118800000000  0.4076440000000 1.0
C      1  0.4167280000000  0.5141080000000  0.4975050000000 1.0
C      1  0.5016200000000  0.5167660000000  0.6050830000000 1.0
C      1  0.4863280000000  0.4146910000000  0.4882940000000 1.0
C      1  0.4902950000000  0.4128580000000  0.5220470000000 1.0
C      1  0.5211230000000  0.4156610000000  0.5079530000000 1.0
C      1  0.5174630000000  0.4138170000000  0.4741520000000 1.0
C      1  0.4847870000000  0.5952010000000  0.4864650000000 1.0
C      1  0.4964060000000  0.5822500000000  0.5134770000000 1.0
C      1  0.5283990000000  0.5780730000000  0.5101580000000 1.0
C      1  0.5163540000000  0.5850030000000  0.4789980000000 1.0
C      1  0.4358170000000  0.5617740000000  0.4798220000000 1.0
C      1  0.4830370000000  0.5510610000000  0.5634980000000 1.0
C      1  0.5675960000000  0.5481800000000  0.5104470000000 1.0
C      1  0.5107610000000  0.5513070000000  0.4370100000000 1.0
C      1  0.4374910000000  0.4324850000000  0.4946950000000 1.0
C      1  0.4889550000000  0.4516610000000  0.5626730000000 1.0
C      1  0.5593460000000  0.4506800000000  0.5092720000000 1.0
C      1  0.5120980000000  0.4520590000000  0.4364640000000 1.0
C      1  0.4858590000000  0.5774440000000  0.5422350000000 1.0
C      1  0.5548380000000  0.5663940000000  0.5285010000000 1.0
C      1  0.5267650000000  0.5756700000000  0.4475710000000 1.0
C      1  0.4588310000000  0.5881270000000  0.4794930000000 1.0
C      1  0.4799230000000  0.4245440000000  0.5451150000000 1.0
C      1  0.5465060000000  0.4298730000000  0.5259820000000 1.0
C      1  0.5267310000000  0.4294550000000  0.4508790000000 1.0
C      1  0.4551160000000  0.4197870000000  0.4757530000000 1.0
C      1  0.4578700000000  0.5633070000000  0.5433340000000 1.0
C      1  0.5489120000000  0.5518260000000  0.5533970000000 1.0
C      1  0.5513360000000  0.5585830000000  0.4487650000000 1.0
C      1  0.4543790000000  0.5718580000000  0.4531810000000 1.0
C      1  0.4516320000000  0.4400480000000  0.5548640000000 1.0
C      1  0.5515050000000  0.4454960000000  0.5530360000000 1.0
C      1  0.5514150000000  0.4525870000000  0.4473040000000 1.0
C      1  0.4530770000000  0.4361340000000  0.4515820000000 1.0
C      1  0.4783530000000  0.4501480000000  0.5145300000000 1.0
C      1  0.5116650000000  0.4468830000000  0.5164380000000 1.0
C      1  0.5169050000000  0.4525680000000  0.4833210000000 1.0
C      1  0.4834060000000  0.4476040000000  0.4802680000000 1.0
C      1  0.4784970000000  0.5541770000000  0.5105150000000 1.0
C      1  0.5177100000000  0.5524900000000  0.5288030000000 1.0
C      1  0.5240260000000  0.5527080000000  0.4796230000000 1.0
C      1  0.4904000000000  0.5544620000000  0.4786670000000 1.0
C      1  0.4750600000000  0.5173140000000  0.4378800000000 1.0
C      1  0.4385990000000  0.5229820000000  0.5209210000000 1.0
C      1  0.5124040000000  0.5192230000000  0.5729310000000 1.0
C      1  0.5703580000000  0.5125480000000  0.4716610000000 1.0
C      1  0.4638140000000  0.4853610000000  0.4360120000000 1.0
C      1  0.4301160000000  0.4906910000000  0.5273620000000 1.0
C      1  0.5253280000000  0.4895950000000  0.5681040000000 1.0
C      1  0.5590570000000  0.4838140000000  0.4824300000000 1.0
C      1  0.5634450000000  0.5075180000000  0.4419830000000 1.0
C      1  0.4341330000000  0.4891630000000  0.5582890000000 1.0
C      1  0.5551200000000  0.4964420000000  0.5650190000000 1.0
C      1  0.4348500000000  0.4830650000000  0.4405710000000 1.0
C      1  0.4995420000000  0.5074390000000  0.4998020000000 1.0
END
