TITL C-3289334-2237-604 -0.0022442228279881 125000 -804.444199271849 0 0 152 (C1) n - 1
REM
REM in /nfs/bkarasulu/CARBON/AIRSS/Generating-Clusters/AIREBO/with-SteepDescent/Higher-Symm/SD-CG/HFTN-CG
REM
REM
REM
REM
REM
REM ./C.cell (b20cbc046b6831c77cfcea5457e17084)
REM
REM compiler GCC version 9.2.1 20190827 (Red Hat 9.2.1-1)
REM options -cpp -mtune=generic -march=x86-64 -g -O0 -fpre-include=/usr/include/finclude/math-vector-fortran.h
REM seed 1294938326 976895145 1062397244 1695705628 -1919791890 2023384781 536201038 -127368011 -562145556 1818629319 -1262923567 2027107287 919991705 588396774 1855317751 -21947984 -531083489 583944603 831986867 -1130737472 -935954247 -1362970796 -828194861 -1795781361 -922815752 -1481889576 2103722952 1412542517 2089897329 -2132152979 -1728297193 -958331296 -1841096931
REM
CELL 1.54180   50.00000   50.00000   50.00000   90.00000   90.00000   90.00000
LATT -1
SFAC C  
C      1  0.5278060000000  0.4817700000000  0.5937590000000 1.0
C      1  0.5007070000000  0.4631800000000  0.5981000000000 1.0
C      1  0.4746950000000  0.4842040000000  0.5919280000000 1.0
C      1  0.4606770000000  0.5135740000000  0.6009760000000 1.0
C      1  0.4851360000000  0.5291260000000  0.5831140000000 1.0
C      1  0.5118820000000  0.5328150000000  0.5966530000000 1.0
C      1  0.5321320000000  0.5124660000000  0.5986300000000 1.0
C      1  0.5437900000000  0.4383800000000  0.4767890000000 1.0
C      1  0.4660730000000  0.4441150000000  0.4734290000000 1.0
C      1  0.4275720000000  0.4827700000000  0.4750270000000 1.0
C      1  0.4409290000000  0.5401070000000  0.4757560000000 1.0
C      1  0.4890770000000  0.5743130000000  0.4674360000000 1.0
C      1  0.5471080000000  0.5515890000000  0.4795740000000 1.0
C      1  0.5683300000000  0.4950910000000  0.4690440000000 1.0
C      1  0.5306420000000  0.4255710000000  0.3939280000000 1.0
C      1  0.5069590000000  0.4394050000000  0.4070220000000 1.0
C      1  0.4340230000000  0.4767950000000  0.3905410000000 1.0
C      1  0.4467520000000  0.5016180000000  0.3963610000000 1.0
C      1  0.4901100000000  0.5438660000000  0.3955720000000 1.0
C      1  0.5266980000000  0.5643710000000  0.4067000000000 1.0
C      1  0.5652430000000  0.5044980000000  0.4157060000000 1.0
C      1  0.5912550000000  0.5447800000000  0.5007550000000 1.0
C      1  0.5965050000000  0.4599450000000  0.4972840000000 1.0
C      1  0.5311160000000  0.3947140000000  0.5001680000000 1.0
C      1  0.4393350000000  0.4215460000000  0.4924800000000 1.0
C      1  0.4013010000000  0.4933910000000  0.5045570000000 1.0
C      1  0.4344160000000  0.5842220000000  0.4990780000000 1.0
C      1  0.5179680000000  0.6052030000000  0.4934410000000 1.0
C      1  0.4564890000000  0.5703910000000  0.4768750000000 1.0
C      1  0.5211950000000  0.5744770000000  0.4789240000000 1.0
C      1  0.5683840000000  0.5253350000000  0.4847250000000 1.0
C      1  0.5673440000000  0.4628940000000  0.4800450000000 1.0
C      1  0.5216350000000  0.4109240000000  0.4718210000000 1.0
C      1  0.4349310000000  0.4539480000000  0.4829880000000 1.0
C      1  0.4233210000000  0.5137210000000  0.4884750000000 1.0
C      1  0.4109140000000  0.5691540000000  0.5023770000000 1.0
C      1  0.4937310000000  0.6174290000000  0.4954830000000 1.0
C      1  0.5705680000000  0.5659430000000  0.4971490000000 1.0
C      1  0.5947390000000  0.4891870000000  0.4916560000000 1.0
C      1  0.5543100000000  0.4126590000000  0.4939530000000 1.0
C      1  0.4626720000000  0.4121360000000  0.4762640000000 1.0
C      1  0.4035490000000  0.4649800000000  0.5072210000000 1.0
C      1  0.5281920000000  0.4774250000000  0.5620720000000 1.0
C      1  0.5034470000000  0.4623720000000  0.5535310000000 1.0
C      1  0.4725470000000  0.4711270000000  0.5481530000000 1.0
C      1  0.4646190000000  0.5001750000000  0.5637000000000 1.0
C      1  0.4844510000000  0.5430990000000  0.5520870000000 1.0
C      1  0.5160160000000  0.5304480000000  0.5521660000000 1.0
C      1  0.5380820000000  0.5046610000000  0.5500800000000 1.0
C      1  0.5383300000000  0.5258020000000  0.4592150000000 1.0
C      1  0.5444900000000  0.4773850000000  0.4524210000000 1.0
C      1  0.5211400000000  0.4451020000000  0.4521300000000 1.0
C      1  0.4730810000000  0.4605010000000  0.4473860000000 1.0
C      1  0.4455770000000  0.4998630000000  0.4522800000000 1.0
C      1  0.4663050000000  0.5401860000000  0.4531250000000 1.0
C      1  0.5055020000000  0.5475100000000  0.4544740000000 1.0
C      1  0.3967590000000  0.5063480000000  0.5325140000000 1.0
C      1  0.4472540000000  0.5954970000000  0.5257290000000 1.0
C      1  0.5349300000000  0.6049770000000  0.5202120000000 1.0
C      1  0.6026900000000  0.5393610000000  0.5265340000000 1.0
C      1  0.5904830000000  0.4543000000000  0.5274090000000 1.0
C      1  0.5135980000000  0.4033200000000  0.5230270000000 1.0
C      1  0.4454720000000  0.4177330000000  0.5226480000000 1.0
C      1  0.4737590000000  0.5115970000000  0.5117570000000 1.0
C      1  0.4780610000000  0.5446960000000  0.5182810000000 1.0
C      1  0.5171600000000  0.5367620000000  0.5187010000000 1.0
C      1  0.5273860000000  0.5053900000000  0.5178060000000 1.0
C      1  0.5105670000000  0.4712460000000  0.5060470000000 1.0
C      1  0.4902810000000  0.4558340000000  0.5246160000000 1.0
C      1  0.4661360000000  0.4805050000000  0.5044470000000 1.0
C      1  0.4726880000000  0.5748100000000  0.5034270000000 1.0
C      1  0.5330050000000  0.5724480000000  0.5104790000000 1.0
C      1  0.5644480000000  0.5197580000000  0.5162230000000 1.0
C      1  0.5599060000000  0.4568940000000  0.5127550000000 1.0
C      1  0.5062710000000  0.4258450000000  0.4986260000000 1.0
C      1  0.4533740000000  0.4543530000000  0.5099440000000 1.0
C      1  0.4269620000000  0.5185120000000  0.5218060000000 1.0
C      1  0.5550550000000  0.4519760000000  0.4323080000000 1.0
C      1  0.5145370000000  0.4167450000000  0.4390360000000 1.0
C      1  0.4571560000000  0.4432930000000  0.4250720000000 1.0
C      1  0.4250050000000  0.4895730000000  0.4272860000000 1.0
C      1  0.4503270000000  0.5448600000000  0.4250050000000 1.0
C      1  0.5013420000000  0.5748810000000  0.4356170000000 1.0
C      1  0.5586900000000  0.5471880000000  0.4423460000000 1.0
C      1  0.4996780000000  0.4492650000000  0.4748570000000 1.0
C      1  0.4774430000000  0.4822780000000  0.4731370000000 1.0
C      1  0.4619420000000  0.5112380000000  0.4798400000000 1.0
C      1  0.4800010000000  0.5394650000000  0.4842480000000 1.0
C      1  0.5101040000000  0.5355160000000  0.4854330000000 1.0
C      1  0.5270570000000  0.5073850000000  0.4839190000000 1.0
C      1  0.5175810000000  0.4781850000000  0.4735490000000 1.0
C      1  0.5279420000000  0.4457610000000  0.5157000000000 1.0
C      1  0.4756650000000  0.4302950000000  0.5127890000000 1.0
C      1  0.4442540000000  0.4897970000000  0.5269660000000 1.0
C      1  0.4478120000000  0.5414710000000  0.5326120000000 1.0
C      1  0.5034610000000  0.5660300000000  0.5258230000000 1.0
C      1  0.5482230000000  0.5440050000000  0.5213620000000 1.0
C      1  0.5557320000000  0.4870200000000  0.5191250000000 1.0
C      1  0.4554910000000  0.5436890000000  0.5884740000000 1.0
C      1  0.5206610000000  0.5589200000000  0.5895530000000 1.0
C      1  0.5572040000000  0.5210640000000  0.5873380000000 1.0
C      1  0.5582590000000  0.4703070000000  0.5944660000000 1.0
C      1  0.5201470000000  0.4358590000000  0.5922430000000 1.0
C      1  0.4686490000000  0.4522010000000  0.5927400000000 1.0
C      1  0.4360420000000  0.4928240000000  0.5967950000000 1.0
C      1  0.4073340000000  0.5454610000000  0.5150840000000 1.0
C      1  0.4733280000000  0.6045530000000  0.5094800000000 1.0
C      1  0.5619930000000  0.5844100000000  0.5236420000000 1.0
C      1  0.5920980000000  0.5028580000000  0.5149650000000 1.0
C      1  0.5682280000000  0.4239780000000  0.5147060000000 1.0
C      1  0.4858230000000  0.4017350000000  0.4860630000000 1.0
C      1  0.4228720000000  0.4521630000000  0.5213000000000 1.0
C      1  0.4825480000000  0.5225600000000  0.4323300000000 1.0
C      1  0.5107560000000  0.5385630000000  0.4220800000000 1.0
C      1  0.5360110000000  0.5185320000000  0.4270220000000 1.0
C      1  0.5387570000000  0.4857970000000  0.4209770000000 1.0
C      1  0.5172080000000  0.4630690000000  0.4262680000000 1.0
C      1  0.4851020000000  0.4708440000000  0.4181780000000 1.0
C      1  0.4637010000000  0.4969330000000  0.4236540000000 1.0
C      1  0.5714100000000  0.4573960000000  0.5509780000000 1.0
C      1  0.5086410000000  0.4110580000000  0.5491940000000 1.0
C      1  0.4385030000000  0.4373290000000  0.5476130000000 1.0
C      1  0.4123120000000  0.5085460000000  0.5576620000000 1.0
C      1  0.4556290000000  0.5799930000000  0.5483620000000 1.0
C      1  0.5370180000000  0.5852080000000  0.5478040000000 1.0
C      1  0.5920250000000  0.5161700000000  0.5445560000000 1.0
C      1  0.4404990000000  0.4704140000000  0.5522040000000 1.0
C      1  0.4426290000000  0.5205230000000  0.5585210000000 1.0
C      1  0.4870870000000  0.5769810000000  0.5527570000000 1.0
C      1  0.5369700000000  0.5559730000000  0.5604760000000 1.0
C      1  0.5693470000000  0.5048890000000  0.5627900000000 1.0
C      1  0.5407450000000  0.4496010000000  0.5470790000000 1.0
C      1  0.4886910000000  0.4325740000000  0.5569370000000 1.0
C      1  0.4426860000000  0.5547120000000  0.5626190000000 1.0
C      1  0.5120520000000  0.5846220000000  0.5709470000000 1.0
C      1  0.5583670000000  0.5478270000000  0.5824050000000 1.0
C      1  0.5733620000000  0.4758170000000  0.5719620000000 1.0
C      1  0.5272660000000  0.4283210000000  0.5661950000000 1.0
C      1  0.4636710000000  0.4372460000000  0.5690770000000 1.0
C      1  0.4259350000000  0.4869550000000  0.5723900000000 1.0
C      1  0.5419730000000  0.4285300000000  0.4226780000000 1.0
C      1  0.4850670000000  0.4255130000000  0.4229180000000 1.0
C      1  0.4347610000000  0.4591770000000  0.4154830000000 1.0
C      1  0.4333620000000  0.5218380000000  0.4176260000000 1.0
C      1  0.4769190000000  0.5592610000000  0.4175590000000 1.0
C      1  0.5350280000000  0.5670330000000  0.4359670000000 1.0
C      1  0.5732040000000  0.5164260000000  0.4429390000000 1.0
C      1  0.4946620000000  0.4833580000000  0.3880380000000 1.0
C      1  0.4988360000000  0.4908120000000  0.4496650000000 1.0
C      1  0.4941550000000  0.5044030000000  0.5524040000000 1.0
C      1  0.5025000000000  0.5000370000000  0.4171320000000 1.0
C      1  0.4976550000000  0.4949950000000  0.5239070000000 1.0
END
