TITL C-3289321-8710-489 -0.00193526313010831 125000 -211.311046094182 0 0 37 (C1) n - 1
REM
REM in /nfs/bkarasulu/CARBON/AIRSS/Generating-Clusters/AIREBO/with-SteepDescent/Higher-Symm/SD-CG/HFTN-CG
REM
REM
REM
REM
REM
REM ./C.cell (b20cbc046b6831c77cfcea5457e17084)
REM
REM compiler GCC version 9.2.1 20190827 (Red Hat 9.2.1-1)
REM options -cpp -mtune=generic -march=x86-64 -g -O0 -fpre-include=/usr/include/finclude/math-vector-fortran.h
REM seed 1255517523 -348346876 -1520573580 -1529207832 1041394156 -1411622763 -1185794720 654168503 -1791703211 1292966039 -586692766 904531769 1372802357 -243842356 -1345247282 83654538 -1157034593 90810149 1178349093 1185309338 691442614 600784064 799267827 -413258130 2096827846 -757947449 1939601272 764419217 2077343819 2093496036 1273171315 -1848000703 -1117230477
REM
CELL 1.54180   50.00000   50.00000   50.00000   90.00000   90.00000   90.00000
LATT -1
SFAC C  
C      1  0.5661230000000  0.4814060000000  0.4988800000000 1.0
C      1  0.4648080000000  0.4818570000000  0.4438740000000 1.0
C      1  0.4715470000000  0.4768690000000  0.5563900000000 1.0
C      1  0.5398840000000  0.5309620000000  0.5075470000000 1.0
C      1  0.4877430000000  0.5325690000000  0.4597170000000 1.0
C      1  0.4721380000000  0.5298700000000  0.5299040000000 1.0
C      1  0.4744260000000  0.5475030000000  0.4795650000000 1.0
C      1  0.4955220000000  0.5454720000000  0.5318880000000 1.0
C      1  0.5303370000000  0.5465390000000  0.4864830000000 1.0
C      1  0.4733870000000  0.5024150000000  0.5435190000000 1.0
C      1  0.5520850000000  0.5053240000000  0.4997360000000 1.0
C      1  0.4740730000000  0.5075530000000  0.4532200000000 1.0
C      1  0.4976730000000  0.5703470000000  0.5186150000000 1.0
C      1  0.5175910000000  0.5708910000000  0.4927570000000 1.0
C      1  0.4857090000000  0.5715790000000  0.4886530000000 1.0
C      1  0.5430480000000  0.4830890000000  0.4662630000000 1.0
C      1  0.4410020000000  0.4858930000000  0.4861610000000 1.0
C      1  0.5136010000000  0.4833970000000  0.5528550000000 1.0
C      1  0.5010240000000  0.5025050000000  0.5264280000000 1.0
C      1  0.5226460000000  0.5035650000000  0.4840670000000 1.0
C      1  0.4719650000000  0.5055090000000  0.4845800000000 1.0
C      1  0.4846660000000  0.4651340000000  0.4871720000000 1.0
C      1  0.5001290000000  0.4425120000000  0.5315120000000 1.0
C      1  0.5310930000000  0.4433670000000  0.4933530000000 1.0
C      1  0.4341160000000  0.5120050000000  0.4953090000000 1.0
C      1  0.5298040000000  0.5071460000000  0.5537190000000 1.0
C      1  0.5377640000000  0.5064780000000  0.4476320000000 1.0
C      1  0.4600400000000  0.4700980000000  0.4704420000000 1.0
C      1  0.4966360000000  0.4601270000000  0.5536230000000 1.0
C      1  0.5519280000000  0.4599790000000  0.4836460000000 1.0
C      1  0.5253670000000  0.4345240000000  0.5201150000000 1.0
C      1  0.5073990000000  0.4447730000000  0.4775010000000 1.0
C      1  0.4799010000000  0.4447920000000  0.5116530000000 1.0
C      1  0.5215760000000  0.5284060000000  0.5310920000000 1.0
C      1  0.5177200000000  0.5290580000000  0.4633870000000 1.0
C      1  0.4597050000000  0.5303080000000  0.5022020000000 1.0
C      1  0.4980910000000  0.4937660000000  0.4978220000000 1.0
END
