TITL C-3289328-6581-421 0.00471851149334858 125000 -885.832571059236 0 0 157 (C1) n - 1
REM
REM in /nfs/bkarasulu/CARBON/AIRSS/Generating-Clusters/AIREBO/with-SteepDescent/Higher-Symm/SD-CG/HFTN-CG
REM
REM
REM
REM
REM
REM ./C.cell (b20cbc046b6831c77cfcea5457e17084)
REM
REM compiler GCC version 9.2.1 20190827 (Red Hat 9.2.1-1)
REM options -cpp -mtune=generic -march=x86-64 -g -O0 -fpre-include=/usr/include/finclude/math-vector-fortran.h
REM seed -265437546 -310363690 1724771441 -2043316881 443699140 -1775152898 -1061531316 -1647024727 -1591005936 -902473595 814922535 -1797904394 -1974240684 672300421 363669109 22228693 218894478 503399904 1594558520 -624844837 -1838849748 -698506099 1195100707 -216792340 -275070515 -1494447169 1259950031 -2117525529 509682984 -362782735 -1234872669 -943222339 1555887675
REM
CELL 1.54180   50.00000   50.00000   50.00000   90.00000   90.00000   90.00000
LATT -1
SFAC C  
C      1  0.5796850000000  0.5280370000000  0.5836900000000 1.0
C      1  0.4698130000000  0.5813160000000  0.5831310000000 1.0
C      1  0.4290210000000  0.4657970000000  0.5764670000000 1.0
C      1  0.5327580000000  0.4168950000000  0.5848510000000 1.0
C      1  0.5852400000000  0.4670310000000  0.5903220000000 1.0
C      1  0.4659710000000  0.4145580000000  0.5867740000000 1.0
C      1  0.4230920000000  0.5403450000000  0.5797470000000 1.0
C      1  0.5346630000000  0.5827400000000  0.5879940000000 1.0
C      1  0.5133460000000  0.5970900000000  0.5259760000000 1.0
C      1  0.4036200000000  0.5162050000000  0.5251890000000 1.0
C      1  0.4856900000000  0.4067620000000  0.5221170000000 1.0
C      1  0.5973680000000  0.4893870000000  0.5332440000000 1.0
C      1  0.5167000000000  0.4069270000000  0.5280510000000 1.0
C      1  0.4088300000000  0.4836830000000  0.5301740000000 1.0
C      1  0.4807960000000  0.6066030000000  0.5299370000000 1.0
C      1  0.6060610000000  0.5211800000000  0.5311350000000 1.0
C      1  0.5345270000000  0.5178680000000  0.4529250000000 1.0
C      1  0.4845020000000  0.5327990000000  0.4510420000000 1.0
C      1  0.4686570000000  0.4858660000000  0.4499680000000 1.0
C      1  0.5140150000000  0.4705600000000  0.4508390000000 1.0
C      1  0.5356080000000  0.4906380000000  0.4442430000000 1.0
C      1  0.4890520000000  0.4674730000000  0.4383300000000 1.0
C      1  0.4644920000000  0.5129570000000  0.4398850000000 1.0
C      1  0.5115580000000  0.5324350000000  0.4383810000000 1.0
C      1  0.5136240000000  0.5343930000000  0.5889820000000 1.0
C      1  0.4681240000000  0.5150120000000  0.5940660000000 1.0
C      1  0.4884620000000  0.4636670000000  0.5934760000000 1.0
C      1  0.5343450000000  0.4859620000000  0.5913410000000 1.0
C      1  0.5154910000000  0.4657230000000  0.5902480000000 1.0
C      1  0.4727140000000  0.4856380000000  0.5964320000000 1.0
C      1  0.4863280000000  0.5341400000000  0.5875390000000 1.0
C      1  0.5311230000000  0.5130650000000  0.5863680000000 1.0
C      1  0.5721170000000  0.5499230000000  0.5083410000000 1.0
C      1  0.4503230000000  0.5734320000000  0.5075730000000 1.0
C      1  0.4215960000000  0.4422630000000  0.5075370000000 1.0
C      1  0.5558630000000  0.4275130000000  0.5074530000000 1.0
C      1  0.5740350000000  0.4513740000000  0.5104900000000 1.0
C      1  0.4420380000000  0.4215710000000  0.5070220000000 1.0
C      1  0.4277030000000  0.5531490000000  0.5094170000000 1.0
C      1  0.5486270000000  0.5698780000000  0.5096340000000 1.0
C      1  0.5219990000000  0.4672530000000  0.5438740000000 1.0
C      1  0.5356890000000  0.5177410000000  0.5350700000000 1.0
C      1  0.4844990000000  0.5346000000000  0.5375840000000 1.0
C      1  0.4698460000000  0.4876180000000  0.5439720000000 1.0
C      1  0.5171640000000  0.5428420000000  0.5421850000000 1.0
C      1  0.5454710000000  0.4867600000000  0.5451680000000 1.0
C      1  0.4892630000000  0.4603810000000  0.5501430000000 1.0
C      1  0.4548680000000  0.5181330000000  0.5430790000000 1.0
C      1  0.5070370000000  0.5277720000000  0.4075750000000 1.0
C      1  0.4590590000000  0.5034670000000  0.4083630000000 1.0
C      1  0.4914070000000  0.4678030000000  0.4081270000000 1.0
C      1  0.5391650000000  0.4896940000000  0.4137610000000 1.0
C      1  0.5180440000000  0.4679210000000  0.4001720000000 1.0
C      1  0.4635480000000  0.4743900000000  0.4040150000000 1.0
C      1  0.4815040000000  0.5266940000000  0.3995740000000 1.0
C      1  0.5355880000000  0.5206640000000  0.4086830000000 1.0
C      1  0.5779460000000  0.5584510000000  0.4601250000000 1.0
C      1  0.4376650000000  0.5788660000000  0.4577720000000 1.0
C      1  0.4177750000000  0.4416840000000  0.4579150000000 1.0
C      1  0.5564600000000  0.4175370000000  0.4560490000000 1.0
C      1  0.5758300000000  0.4391680000000  0.4592320000000 1.0
C      1  0.4383440000000  0.4208830000000  0.4545580000000 1.0
C      1  0.4151660000000  0.5601120000000  0.4590700000000 1.0
C      1  0.5565120000000  0.5767390000000  0.4578920000000 1.0
C      1  0.4627230000000  0.5652860000000  0.4454870000000 1.0
C      1  0.4241020000000  0.4657930000000  0.4369080000000 1.0
C      1  0.5350360000000  0.4275070000000  0.4319450000000 1.0
C      1  0.5711370000000  0.5316090000000  0.4448400000000 1.0
C      1  0.4582740000000  0.4282790000000  0.4291590000000 1.0
C      1  0.4375180000000  0.5424090000000  0.4405510000000 1.0
C      1  0.5347480000000  0.5646930000000  0.4389430000000 1.0
C      1  0.5670360000000  0.4628930000000  0.4393770000000 1.0
C      1  0.4226020000000  0.5583850000000  0.5592620000000 1.0
C      1  0.4502340000000  0.4268550000000  0.5592440000000 1.0
C      1  0.5740020000000  0.4503060000000  0.5629730000000 1.0
C      1  0.5513400000000  0.5717540000000  0.5609700000000 1.0
C      1  0.4263620000000  0.4454140000000  0.5588380000000 1.0
C      1  0.4494410000000  0.5737970000000  0.5573700000000 1.0
C      1  0.5713370000000  0.5482810000000  0.5586990000000 1.0
C      1  0.5519220000000  0.4293850000000  0.5603270000000 1.0
C      1  0.4101190000000  0.5481010000000  0.5359940000000 1.0
C      1  0.4561880000000  0.4118530000000  0.5341450000000 1.0
C      1  0.5901960000000  0.4565200000000  0.5382240000000 1.0
C      1  0.5442280000000  0.5873270000000  0.5363690000000 1.0
C      1  0.4111710000000  0.4519660000000  0.5367510000000 1.0
C      1  0.4562660000000  0.5914200000000  0.5336480000000 1.0
C      1  0.5888630000000  0.5438490000000  0.5346320000000 1.0
C      1  0.5466340000000  0.4151940000000  0.5347400000000 1.0
C      1  0.4882730000000  0.6139870000000  0.5003210000000 1.0
C      1  0.3923710000000  0.4753200000000  0.4863180000000 1.0
C      1  0.5145080000000  0.3946720000000  0.4971770000000 1.0
C      1  0.6116470000000  0.5102420000000  0.5026900000000 1.0
C      1  0.4819760000000  0.3945620000000  0.4908610000000 1.0
C      1  0.3962940000000  0.5001910000000  0.4960860000000 1.0
C      1  0.5207140000000  0.6085260000000  0.4948080000000 1.0
C      1  0.6031920000000  0.4772160000000  0.5020290000000 1.0
C      1  0.4427570000000  0.5182210000000  0.5748490000000 1.0
C      1  0.4764930000000  0.4435310000000  0.5724220000000 1.0
C      1  0.5579840000000  0.4780370000000  0.5730680000000 1.0
C      1  0.5239290000000  0.5555610000000  0.5703080000000 1.0
C      1  0.4509810000000  0.4864160000000  0.5724500000000 1.0
C      1  0.4753550000000  0.5530340000000  0.5646800000000 1.0
C      1  0.5519760000000  0.5209920000000  0.5647430000000 1.0
C      1  0.5245810000000  0.4460230000000  0.5689700000000 1.0
C      1  0.4837510000000  0.5375840000000  0.5036990000000 1.0
C      1  0.4627010000000  0.4853710000000  0.5109070000000 1.0
C      1  0.5147210000000  0.4628760000000  0.5140080000000 1.0
C      1  0.5376830000000  0.5130770000000  0.5014330000000 1.0
C      1  0.4823640000000  0.4608830000000  0.5170500000000 1.0
C      1  0.4642640000000  0.5122290000000  0.4946530000000 1.0
C      1  0.5140150000000  0.5336790000000  0.4915550000000 1.0
C      1  0.5307990000000  0.4816920000000  0.4937470000000 1.0
C      1  0.5165570000000  0.5637710000000  0.5200160000000 1.0
C      1  0.4363780000000  0.5224590000000  0.5212000000000 1.0
C      1  0.4735600000000  0.4342850000000  0.5061310000000 1.0
C      1  0.5665150000000  0.4833170000000  0.5209570000000 1.0
C      1  0.5230460000000  0.4340900000000  0.5085960000000 1.0
C      1  0.4332700000000  0.4725930000000  0.5111670000000 1.0
C      1  0.4834720000000  0.5697520000000  0.5147170000000 1.0
C      1  0.5692950000000  0.5164150000000  0.5135150000000 1.0
C      1  0.5953200000000  0.4490040000000  0.4840820000000 1.0
C      1  0.5438510000000  0.5867170000000  0.4839690000000 1.0
C      1  0.4099280000000  0.5477600000000  0.4835160000000 1.0
C      1  0.4559930000000  0.4119360000000  0.4782750000000 1.0
C      1  0.5899370000000  0.5569920000000  0.4841560000000 1.0
C      1  0.5405120000000  0.4106390000000  0.4817710000000 1.0
C      1  0.4062740000000  0.4504550000000  0.4820090000000 1.0
C      1  0.4474530000000  0.5914470000000  0.4811600000000 1.0
C      1  0.4843230000000  0.4132950000000  0.4191610000000 1.0
C      1  0.5873140000000  0.4847680000000  0.4315220000000 1.0
C      1  0.5089710000000  0.5807500000000  0.4279230000000 1.0
C      1  0.4162560000000  0.5172560000000  0.4320700000000 1.0
C      1  0.4839420000000  0.5794130000000  0.4277400000000 1.0
C      1  0.5896910000000  0.5093560000000  0.4345490000000 1.0
C      1  0.5091490000000  0.4130050000000  0.4213760000000 1.0
C      1  0.4100630000000  0.4931780000000  0.4318900000000 1.0
C      1  0.4806620000000  0.5849170000000  0.4844130000000 1.0
C      1  0.4335720000000  0.4854690000000  0.4836450000000 1.0
C      1  0.5126360000000  0.4299080000000  0.4789430000000 1.0
C      1  0.5832920000000  0.5071780000000  0.4848620000000 1.0
C      1  0.4835500000000  0.4317240000000  0.4764440000000 1.0
C      1  0.4246920000000  0.5177320000000  0.4895560000000 1.0
C      1  0.5123750000000  0.5825890000000  0.4740340000000 1.0
C      1  0.5775890000000  0.4769940000000  0.4801310000000 1.0
C      1  0.4489700000000  0.5236160000000  0.4664910000000 1.0
C      1  0.4687080000000  0.4468430000000  0.4538880000000 1.0
C      1  0.5499560000000  0.4706860000000  0.4677450000000 1.0
C      1  0.5180650000000  0.5517420000000  0.4656010000000 1.0
C      1  0.4448850000000  0.4707390000000  0.4609870000000 1.0
C      1  0.4774870000000  0.5528600000000  0.4735200000000 1.0
C      1  0.5564960000000  0.5237490000000  0.4745180000000 1.0
C      1  0.5279280000000  0.4451540000000  0.4583180000000 1.0
C      1  0.5451150000000  0.4556170000000  0.4166620000000 1.0
C      1  0.5498430000000  0.5404360000000  0.4237560000000 1.0
C      1  0.4522040000000  0.5367140000000  0.4104150000000 1.0
C      1  0.4452900000000  0.4554220000000  0.4153420000000 1.0
C      1  0.4953930000000  0.5056300000000  0.5450540000000 1.0
END
