TITL C-3289333-7213-629 0.00228540881034554 125000 -247.053312238863 0 0 44 (C1) n - 1
REM
REM in /nfs/bkarasulu/CARBON/AIRSS/Generating-Clusters/AIREBO/with-SteepDescent/Higher-Symm/SD-CG/HFTN-CG
REM
REM
REM
REM
REM
REM ./C.cell (b20cbc046b6831c77cfcea5457e17084)
REM
REM compiler GCC version 9.2.1 20190827 (Red Hat 9.2.1-1)
REM options -cpp -mtune=generic -march=x86-64 -g -O0 -fpre-include=/usr/include/finclude/math-vector-fortran.h
REM seed -1585720433 -342447862 1410841883 -765987547 1179880966 741800153 1575133453 1634036842 -2094344574 1307009658 -641091978 1143478277 209066240 -878791473 1415555870 655139102 -1850840853 -1273396856 1202712804 -353430963 293674221 -1696303625 1201621030 -922393353 -1077958271 2010183997 1005431415 714874134 864091511 -81361870 -109324311 -1854843626 407081939
REM
CELL 1.54180   50.00000   50.00000   50.00000   90.00000   90.00000   90.00000
LATT -1
SFAC C  
C      1  0.4465930000000  0.4951320000000  0.4943350000000 1.0
C      1  0.4892600000000  0.5016600000000  0.5569830000000 1.0
C      1  0.5524570000000  0.4921480000000  0.5025270000000 1.0
C      1  0.5063050000000  0.5009020000000  0.4493520000000 1.0
C      1  0.5230860000000  0.5268480000000  0.4556570000000 1.0
C      1  0.4492270000000  0.5224330000000  0.4800750000000 1.0
C      1  0.4695280000000  0.5250660000000  0.5471570000000 1.0
C      1  0.5474770000000  0.5149960000000  0.5168820000000 1.0
C      1  0.5390330000000  0.5572580000000  0.4957170000000 1.0
C      1  0.4834570000000  0.5614210000000  0.4752790000000 1.0
C      1  0.4901100000000  0.5631070000000  0.5026320000000 1.0
C      1  0.5162820000000  0.5603220000000  0.5121290000000 1.0
C      1  0.4971950000000  0.4858800000000  0.5776670000000 1.0
C      1  0.5752430000000  0.4757060000000  0.4986700000000 1.0
C      1  0.5012150000000  0.4850970000000  0.4276140000000 1.0
C      1  0.4269950000000  0.4771540000000  0.4996360000000 1.0
C      1  0.4909730000000  0.4598800000000  0.4341160000000 1.0
C      1  0.4367630000000  0.4539210000000  0.5112030000000 1.0
C      1  0.5110900000000  0.4631720000000  0.5690260000000 1.0
C      1  0.5675260000000  0.4518640000000  0.4864100000000 1.0
C      1  0.5339710000000  0.5559230000000  0.4681770000000 1.0
C      1  0.4563180000000  0.5539910000000  0.4728630000000 1.0
C      1  0.4674620000000  0.5490350000000  0.5229320000000 1.0
C      1  0.5151240000000  0.5438740000000  0.5357900000000 1.0
C      1  0.4649620000000  0.4543360000000  0.5126400000000 1.0
C      1  0.5121460000000  0.4618040000000  0.5404880000000 1.0
C      1  0.5393190000000  0.4515580000000  0.4834290000000 1.0
C      1  0.4892370000000  0.4555400000000  0.4622630000000 1.0
C      1  0.5042320000000  0.5546780000000  0.4583550000000 1.0
C      1  0.4448320000000  0.5480450000000  0.5020410000000 1.0
C      1  0.4899640000000  0.5501980000000  0.5481240000000 1.0
C      1  0.5579870000000  0.5397120000000  0.5074690000000 1.0
C      1  0.5023230000000  0.4908220000000  0.5288690000000 1.0
C      1  0.5275040000000  0.4811900000000  0.4837690000000 1.0
C      1  0.4941990000000  0.4857070000000  0.4772750000000 1.0
C      1  0.4768320000000  0.4856670000000  0.5067100000000 1.0
C      1  0.4842120000000  0.4350040000000  0.5084070000000 1.0
C      1  0.5111810000000  0.4397730000000  0.5234150000000 1.0
C      1  0.5211460000000  0.4335110000000  0.4940060000000 1.0
C      1  0.4938330000000  0.4332570000000  0.4788070000000 1.0
C      1  0.5426580000000  0.5032980000000  0.4654260000000 1.0
C      1  0.4689460000000  0.5032400000000  0.4627210000000 1.0
C      1  0.4585660000000  0.4990860000000  0.5320710000000 1.0
C      1  0.5232330000000  0.5167810000000  0.5308870000000 1.0
END
