TITL C-3289320-4661-463 0.000214988614557468 125000 -1022.26023487578 0 0 186 (C1) n - 1
REM
REM in /nfs/bkarasulu/CARBON/AIRSS/Generating-Clusters/AIREBO/with-SteepDescent/Higher-Symm/SD-CG/HFTN-CG
REM
REM
REM
REM
REM
REM ./C.cell (b20cbc046b6831c77cfcea5457e17084)
REM
REM compiler GCC version 9.2.1 20190827 (Red Hat 9.2.1-1)
REM options -cpp -mtune=generic -march=x86-64 -g -O0 -fpre-include=/usr/include/finclude/math-vector-fortran.h
REM seed -446260120 747189440 -854328546 1222575566 2057129269 -1578606800 1333270699 756111326 1646733279 -1219309004 645624643 -1419412126 -938085249 -577303619 -1461753078 781384568 -1520753411 -1328196644 -1153620817 -1541928711 -614152195 -1951774558 -437251986 1277528663 -405165785 589347158 558650567 -1307741680 1156788624 -1399319833 756409866 -1334077942 -2110293816
REM
CELL 1.54180   50.00000   50.00000   50.00000   90.00000   90.00000   90.00000
LATT -1
SFAC C  
C      1  0.4633100000000  0.4126200000000  0.4972550000000 1.0
C      1  0.5272730000000  0.4189490000000  0.5071620000000 1.0
C      1  0.4868470000000  0.5206240000000  0.3847050000000 1.0
C      1  0.5179730000000  0.5248290000000  0.3977240000000 1.0
C      1  0.4180040000000  0.5265790000000  0.4935320000000 1.0
C      1  0.5792060000000  0.5289160000000  0.4965920000000 1.0
C      1  0.3783480000000  0.5264030000000  0.4892240000000 1.0
C      1  0.6242550000000  0.5250500000000  0.4918180000000 1.0
C      1  0.4728800000000  0.5571750000000  0.4518260000000 1.0
C      1  0.5251650000000  0.5702550000000  0.4443510000000 1.0
C      1  0.5644480000000  0.4299400000000  0.4532760000000 1.0
C      1  0.4341850000000  0.4293330000000  0.4562800000000 1.0
C      1  0.4154340000000  0.5045140000000  0.5552070000000 1.0
C      1  0.5910060000000  0.5117050000000  0.5567540000000 1.0
C      1  0.5208590000000  0.4187900000000  0.4782590000000 1.0
C      1  0.4873920000000  0.4173550000000  0.4736750000000 1.0
C      1  0.5287440000000  0.4492680000000  0.5225610000000 1.0
C      1  0.4763530000000  0.4423000000000  0.5075050000000 1.0
C      1  0.4417660000000  0.5567660000000  0.5506020000000 1.0
C      1  0.5599970000000  0.5651760000000  0.5484160000000 1.0
C      1  0.4801800000000  0.4580320000000  0.4406740000000 1.0
C      1  0.5130320000000  0.4609910000000  0.4356100000000 1.0
C      1  0.5531920000000  0.5499560000000  0.5194150000000 1.0
C      1  0.4535990000000  0.5416360000000  0.5233860000000 1.0
C      1  0.5559950000000  0.4687250000000  0.5677860000000 1.0
C      1  0.4535170000000  0.4700490000000  0.5652770000000 1.0
C      1  0.5868880000000  0.5688490000000  0.5278810000000 1.0
C      1  0.4177410000000  0.5593640000000  0.5266660000000 1.0
C      1  0.5140590000000  0.6024700000000  0.4976300000000 1.0
C      1  0.4819560000000  0.6038670000000  0.4999750000000 1.0
C      1  0.5878880000000  0.4519650000000  0.4648630000000 1.0
C      1  0.4093870000000  0.4521690000000  0.4625640000000 1.0
C      1  0.4252210000000  0.5212340000000  0.4058010000000 1.0
C      1  0.5657200000000  0.5196980000000  0.4296130000000 1.0
C      1  0.5208800000000  0.5471150000000  0.5242900000000 1.0
C      1  0.4868260000000  0.5454600000000  0.5295350000000 1.0
C      1  0.4680830000000  0.4895970000000  0.5337120000000 1.0
C      1  0.5241400000000  0.4958380000000  0.5270910000000 1.0
C      1  0.3930690000000  0.5134350000000  0.5379300000000 1.0
C      1  0.6095220000000  0.5185120000000  0.5331290000000 1.0
C      1  0.5654600000000  0.5499760000000  0.4188470000000 1.0
C      1  0.4353740000000  0.5490180000000  0.4079920000000 1.0
C      1  0.4424790000000  0.5455970000000  0.5928740000000 1.0
C      1  0.5614660000000  0.5473190000000  0.5840130000000 1.0
C      1  0.4039960000000  0.5472820000000  0.4667260000000 1.0
C      1  0.5938540000000  0.5382570000000  0.4695840000000 1.0
C      1  0.6037240000000  0.4965580000000  0.5104690000000 1.0
C      1  0.3911260000000  0.4921680000000  0.5144030000000 1.0
C      1  0.5119590000000  0.4278700000000  0.5429850000000 1.0
C      1  0.4798070000000  0.4410580000000  0.5389440000000 1.0
C      1  0.5501520000000  0.5623050000000  0.4594590000000 1.0
C      1  0.4453250000000  0.5543110000000  0.4656170000000 1.0
C      1  0.5548460000000  0.4606620000000  0.4945080000000 1.0
C      1  0.4386910000000  0.4620020000000  0.4887240000000 1.0
C      1  0.5730560000000  0.5037220000000  0.5165870000000 1.0
C      1  0.4216390000000  0.5040730000000  0.5116620000000 1.0
C      1  0.4899230000000  0.5226810000000  0.5039250000000 1.0
C      1  0.5238210000000  0.5199680000000  0.5040300000000 1.0
C      1  0.4488440000000  0.4546300000000  0.5350840000000 1.0
C      1  0.5582530000000  0.4588260000000  0.5364970000000 1.0
C      1  0.5907500000000  0.5014830000000  0.5893490000000 1.0
C      1  0.4137570000000  0.4967120000000  0.5882150000000 1.0
C      1  0.4819840000000  0.5868110000000  0.4531190000000 1.0
C      1  0.5095140000000  0.5919300000000  0.4496790000000 1.0
C      1  0.4815040000000  0.3918890000000  0.5150340000000 1.0
C      1  0.5059820000000  0.4008860000000  0.5235700000000 1.0
C      1  0.4725960000000  0.4289390000000  0.4452400000000 1.0
C      1  0.5250420000000  0.4307250000000  0.4466650000000 1.0
C      1  0.4526480000000  0.5281890000000  0.5654780000000 1.0
C      1  0.5525270000000  0.5245440000000  0.5646340000000 1.0
C      1  0.4153600000000  0.4561630000000  0.5408760000000 1.0
C      1  0.5896040000000  0.4589090000000  0.5488600000000 1.0
C      1  0.5433680000000  0.4857240000000  0.4243170000000 1.0
C      1  0.4503990000000  0.4907030000000  0.4100410000000 1.0
C      1  0.6210300000000  0.4999840000000  0.4754700000000 1.0
C      1  0.3900100000000  0.5038540000000  0.4762520000000 1.0
C      1  0.4143560000000  0.4788370000000  0.4420630000000 1.0
C      1  0.5800740000000  0.4800020000000  0.4553440000000 1.0
C      1  0.4703510000000  0.6039640000000  0.4732520000000 1.0
C      1  0.5202860000000  0.6108060000000  0.4683190000000 1.0
C      1  0.4550910000000  0.5136890000000  0.3917660000000 1.0
C      1  0.5436400000000  0.5120570000000  0.4048810000000 1.0
C      1  0.5140060000000  0.4548610000000  0.4021700000000 1.0
C      1  0.4843780000000  0.4702630000000  0.4093290000000 1.0
C      1  0.5615420000000  0.5888430000000  0.5163350000000 1.0
C      1  0.4434000000000  0.5803220000000  0.5184230000000 1.0
C      1  0.5146130000000  0.5428150000000  0.4800520000000 1.0
C      1  0.4814640000000  0.5412990000000  0.4767580000000 1.0
C      1  0.5504130000000  0.5315330000000  0.4550830000000 1.0
C      1  0.4371670000000  0.5253460000000  0.4697070000000 1.0
C      1  0.5428980000000  0.4503800000000  0.4679070000000 1.0
C      1  0.4586120000000  0.4447720000000  0.4718850000000 1.0
C      1  0.5452820000000  0.4225940000000  0.5472720000000 1.0
C      1  0.4380210000000  0.4234960000000  0.5434550000000 1.0
C      1  0.5138960000000  0.4899390000000  0.4797420000000 1.0
C      1  0.4823290000000  0.4986250000000  0.4841820000000 1.0
C      1  0.5824460000000  0.5657630000000  0.4645420000000 1.0
C      1  0.4208900000000  0.5670470000000  0.4504060000000 1.0
C      1  0.5118840000000  0.4935740000000  0.4259490000000 1.0
C      1  0.4875760000000  0.5042970000000  0.4128850000000 1.0
C      1  0.5942650000000  0.4799560000000  0.5649500000000 1.0
C      1  0.4123800000000  0.4734000000000  0.5644070000000 1.0
C      1  0.4891910000000  0.5770410000000  0.5419380000000 1.0
C      1  0.5201400000000  0.5889310000000  0.5435980000000 1.0
C      1  0.5206740000000  0.5311600000000  0.5543160000000 1.0
C      1  0.4864480000000  0.5325060000000  0.5608520000000 1.0
C      1  0.4315930000000  0.4516290000000  0.4311610000000 1.0
C      1  0.5615590000000  0.4397930000000  0.4223370000000 1.0
C      1  0.5155820000000  0.5609660000000  0.5837280000000 1.0
C      1  0.4865230000000  0.5698160000000  0.5750710000000 1.0
C      1  0.4117450000000  0.5059680000000  0.4250500000000 1.0
C      1  0.5880200000000  0.5023030000000  0.4406380000000 1.0
C      1  0.4558370000000  0.5783630000000  0.5637880000000 1.0
C      1  0.5362070000000  0.5748160000000  0.5616570000000 1.0
C      1  0.5800400000000  0.5682710000000  0.4326980000000 1.0
C      1  0.4217610000000  0.5681750000000  0.4235160000000 1.0
C      1  0.3951520000000  0.4527240000000  0.5134880000000 1.0
C      1  0.5988170000000  0.4460930000000  0.5046700000000 1.0
C      1  0.5411620000000  0.5563120000000  0.4084640000000 1.0
C      1  0.4636100000000  0.5498510000000  0.4064350000000 1.0
C      1  0.4452360000000  0.4989450000000  0.5811670000000 1.0
C      1  0.5605130000000  0.4970360000000  0.5778620000000 1.0
C      1  0.5172260000000  0.5706970000000  0.5000620000000 1.0
C      1  0.4866040000000  0.5620940000000  0.5005520000000 1.0
C      1  0.5141470000000  0.5443480000000  0.4253030000000 1.0
C      1  0.4819890000000  0.5338530000000  0.4287810000000 1.0
C      1  0.3924480000000  0.4310960000000  0.5391580000000 1.0
C      1  0.6083460000000  0.4474320000000  0.5311540000000 1.0
C      1  0.4816630000000  0.3865910000000  0.4610760000000 1.0
C      1  0.5151710000000  0.3927590000000  0.4589610000000 1.0
C      1  0.4860560000000  0.5206450000000  0.5922680000000 1.0
C      1  0.5171580000000  0.5272010000000  0.5878360000000 1.0
C      1  0.6060000000000  0.5170170000000  0.4563760000000 1.0
C      1  0.4092060000000  0.5162600000000  0.4551440000000 1.0
C      1  0.5279430000000  0.4711610000000  0.5997420000000 1.0
C      1  0.4662590000000  0.4584330000000  0.6042680000000 1.0
C      1  0.5138760000000  0.4897220000000  0.5553440000000 1.0
C      1  0.4842110000000  0.4839170000000  0.5605710000000 1.0
C      1  0.5287860000000  0.4966780000000  0.5807350000000 1.0
C      1  0.4747290000000  0.4893390000000  0.5931580000000 1.0
C      1  0.5541470000000  0.4377490000000  0.5702070000000 1.0
C      1  0.4376220000000  0.4404080000000  0.5704040000000 1.0
C      1  0.5567410000000  0.4208230000000  0.5199380000000 1.0
C      1  0.4359250000000  0.4197140000000  0.5136950000000 1.0
C      1  0.5109050000000  0.4134530000000  0.4231790000000 1.0
C      1  0.4852780000000  0.4122600000000  0.4227550000000 1.0
C      1  0.4692060000000  0.5920600000000  0.5222960000000 1.0
C      1  0.5344870000000  0.5992310000000  0.5218840000000 1.0
C      1  0.6045030000000  0.4723910000000  0.4865410000000 1.0
C      1  0.4004120000000  0.4735050000000  0.4875160000000 1.0
C      1  0.5440730000000  0.5584440000000  0.5984250000000 1.0
C      1  0.4715960000000  0.5485130000000  0.5942290000000 1.0
C      1  0.5519800000000  0.5164230000000  0.4850960000000 1.0
C      1  0.4527070000000  0.5016990000000  0.4751170000000 1.0
C      1  0.6037320000000  0.5477410000000  0.5067040000000 1.0
C      1  0.3981910000000  0.5519380000000  0.4998270000000 1.0
C      1  0.3912390000000  0.5407820000000  0.5371000000000 1.0
C      1  0.6139660000000  0.5506260000000  0.5374740000000 1.0
C      1  0.4431310000000  0.5121690000000  0.5370310000000 1.0
C      1  0.5683380000000  0.5276010000000  0.5369540000000 1.0
C      1  0.5721140000000  0.4386730000000  0.5048950000000 1.0
C      1  0.4212110000000  0.4400100000000  0.5001870000000 1.0
C      1  0.4617540000000  0.4372950000000  0.5865730000000 1.0
C      1  0.5309210000000  0.4452910000000  0.5881690000000 1.0
C      1  0.5615910000000  0.5672800000000  0.4913840000000 1.0
C      1  0.4440440000000  0.5567230000000  0.4967440000000 1.0
C      1  0.5520940000000  0.4835870000000  0.5169990000000 1.0
C      1  0.4426560000000  0.4799970000000  0.5132920000000 1.0
C      1  0.5446300000000  0.4579350000000  0.4115180000000 1.0
C      1  0.4518160000000  0.4600680000000  0.4128280000000 1.0
C      1  0.4904600000000  0.4498020000000  0.4787610000000 1.0
C      1  0.5133720000000  0.4621510000000  0.4684030000000 1.0
C      1  0.4650250000000  0.4862400000000  0.4404110000000 1.0
C      1  0.5352360000000  0.4945790000000  0.4561300000000 1.0
C      1  0.5149310000000  0.4762120000000  0.6239870000000 1.0
C      1  0.4909770000000  0.4894290000000  0.6230270000000 1.0
C      1  0.4824680000000  0.4306200000000  0.5696790000000 1.0
C      1  0.5101240000000  0.4303520000000  0.5768510000000 1.0
C      1  0.5146000000000  0.4723310000000  0.5088190000000 1.0
C      1  0.4818790000000  0.4748900000000  0.5085520000000 1.0
C      1  0.4405190000000  0.4779770000000  0.4599200000000 1.0
C      1  0.5581850000000  0.4864750000000  0.4755140000000 1.0
C      1  0.5176580000000  0.5234880000000  0.4526400000000 1.0
C      1  0.4865580000000  0.5097360000000  0.4523230000000 1.0
C      1  0.4515900000000  0.4016600000000  0.4662330000000 1.0
C      1  0.5483040000000  0.3999990000000  0.4565290000000 1.0
END
