TITL C-3289327-5623-58 0.000869205112415338 125000 -440.88317436255 0 0 84 (C1) n - 1
REM
REM in /nfs/bkarasulu/CARBON/AIRSS/Generating-Clusters/AIREBO/with-SteepDescent/Higher-Symm/SD-CG/HFTN-CG
REM
REM
REM
REM
REM
REM ./C.cell (b20cbc046b6831c77cfcea5457e17084)
REM
REM compiler GCC version 9.2.1 20190827 (Red Hat 9.2.1-1)
REM options -cpp -mtune=generic -march=x86-64 -g -O0 -fpre-include=/usr/include/finclude/math-vector-fortran.h
REM seed 1203879842 -232850810 2022267170 -215915096 -347343922 -117072568 206153468 -1840570774 35873885 251186973 -943496650 -1085853407 -733739161 1062374123 2074693492 -1673339112 -626344350 1438407979 1424075504 1326156111 -2068503122 -921591898 -1587031576 -2096563986 1564364893 -1166390520 -113000475 1160551108 1523705476 -640508018 -1727276747 -1941251533 -1123053474
REM
CELL 1.54180   50.00000   50.00000   50.00000   90.00000   90.00000   90.00000
LATT -1
SFAC C  
C      1  0.4949860000000  0.4163930000000  0.4860390000000 1.0
C      1  0.4943700000000  0.5512620000000  0.4880540000000 1.0
C      1  0.4910820000000  0.5688380000000  0.5314750000000 1.0
C      1  0.4974090000000  0.4537400000000  0.5198590000000 1.0
C      1  0.4401210000000  0.5007290000000  0.4792200000000 1.0
C      1  0.5678560000000  0.5041420000000  0.4849420000000 1.0
C      1  0.5636330000000  0.4941800000000  0.5276920000000 1.0
C      1  0.4265890000000  0.5164650000000  0.5131890000000 1.0
C      1  0.4399160000000  0.5378280000000  0.4443110000000 1.0
C      1  0.5638520000000  0.4593210000000  0.4516840000000 1.0
C      1  0.4454820000000  0.4632890000000  0.5333220000000 1.0
C      1  0.5623680000000  0.5389690000000  0.5452690000000 1.0
C      1  0.5441250000000  0.4328470000000  0.4435600000000 1.0
C      1  0.4609950000000  0.5573280000000  0.4481930000000 1.0
C      1  0.4612340000000  0.4355930000000  0.5337420000000 1.0
C      1  0.5396090000000  0.5562820000000  0.5350230000000 1.0
C      1  0.5165650000000  0.4450760000000  0.4265880000000 1.0
C      1  0.4847850000000  0.5542960000000  0.4314690000000 1.0
C      1  0.5198970000000  0.5603700000000  0.5615820000000 1.0
C      1  0.4762970000000  0.4550210000000  0.5567580000000 1.0
C      1  0.4494230000000  0.5155880000000  0.4288350000000 1.0
C      1  0.5440240000000  0.4632630000000  0.4264860000000 1.0
C      1  0.5542430000000  0.5231960000000  0.5682040000000 1.0
C      1  0.4489950000000  0.4743260000000  0.5652900000000 1.0
C      1  0.5087460000000  0.5314430000000  0.5476130000000 1.0
C      1  0.4993350000000  0.4789070000000  0.5641830000000 1.0
C      1  0.5104410000000  0.4724910000000  0.4457510000000 1.0
C      1  0.4955740000000  0.5293180000000  0.4540630000000 1.0
C      1  0.5247810000000  0.5073520000000  0.5621140000000 1.0
C      1  0.4724210000000  0.4943320000000  0.5509020000000 1.0
C      1  0.4776370000000  0.5060340000000  0.4439850000000 1.0
C      1  0.5396550000000  0.4906920000000  0.4462040000000 1.0
C      1  0.4521970000000  0.4831890000000  0.5057460000000 1.0
C      1  0.5445370000000  0.5200000000000  0.5040330000000 1.0
C      1  0.4561770000000  0.5229910000000  0.4992870000000 1.0
C      1  0.5486880000000  0.4804990000000  0.5003560000000 1.0
C      1  0.4756430000000  0.4380090000000  0.5038530000000 1.0
C      1  0.5248290000000  0.5476820000000  0.5056200000000 1.0
C      1  0.5183510000000  0.4652190000000  0.4986900000000 1.0
C      1  0.4695910000000  0.5518200000000  0.5113480000000 1.0
C      1  0.4789420000000  0.4995480000000  0.5190950000000 1.0
C      1  0.5316600000000  0.5014660000000  0.5294760000000 1.0
C      1  0.4731140000000  0.5020100000000  0.4774420000000 1.0
C      1  0.5299590000000  0.4954680000000  0.4760560000000 1.0
C      1  0.5056590000000  0.4845720000000  0.5312600000000 1.0
C      1  0.5022820000000  0.5243410000000  0.5158480000000 1.0
C      1  0.4996390000000  0.4821750000000  0.4759160000000 1.0
C      1  0.5079470000000  0.5205730000000  0.4825150000000 1.0
C      1  0.4590560000000  0.5562720000000  0.5650660000000 1.0
C      1  0.5375100000000  0.4425860000000  0.5478570000000 1.0
C      1  0.4655530000000  0.4414300000000  0.4571460000000 1.0
C      1  0.5388820000000  0.5555990000000  0.4501470000000 1.0
C      1  0.5613150000000  0.4623630000000  0.5520680000000 1.0
C      1  0.4371510000000  0.5353380000000  0.5592670000000 1.0
C      1  0.4450330000000  0.4646180000000  0.4555610000000 1.0
C      1  0.5620160000000  0.5350560000000  0.4516660000000 1.0
C      1  0.4101710000000  0.5249140000000  0.4921000000000 1.0
C      1  0.5719970000000  0.4634140000000  0.4825790000000 1.0
C      1  0.4185250000000  0.4784130000000  0.5056830000000 1.0
C      1  0.5857740000000  0.5250270000000  0.5017380000000 1.0
C      1  0.5213700000000  0.4349750000000  0.4933960000000 1.0
C      1  0.4526650000000  0.5775090000000  0.4947920000000 1.0
C      1  0.4752580000000  0.3980440000000  0.5032770000000 1.0
C      1  0.5282230000000  0.5815650000000  0.4994170000000 1.0
C      1  0.5648670000000  0.5088930000000  0.4443970000000 1.0
C      1  0.4498280000000  0.4872410000000  0.4428960000000 1.0
C      1  0.5549920000000  0.4910310000000  0.5600820000000 1.0
C      1  0.4422700000000  0.5073020000000  0.5589970000000 1.0
C      1  0.5139930000000  0.5543970000000  0.4416730000000 1.0
C      1  0.4924540000000  0.4435190000000  0.4486060000000 1.0
C      1  0.4875550000000  0.5552180000000  0.5601140000000 1.0
C      1  0.5093810000000  0.4495980000000  0.5501720000000 1.0
C      1  0.4685810000000  0.5652660000000  0.4738270000000 1.0
C      1  0.5173510000000  0.4267840000000  0.4621110000000 1.0
C      1  0.4606700000000  0.4058470000000  0.5222550000000 1.0
C      1  0.5165000000000  0.5799910000000  0.5272650000000 1.0
C      1  0.5824540000000  0.4864370000000  0.4598500000000 1.0
C      1  0.4256240000000  0.5281240000000  0.4664840000000 1.0
C      1  0.4271930000000  0.4918530000000  0.5356880000000 1.0
C      1  0.5767330000000  0.5227590000000  0.5275490000000 1.0
C      1  0.5533440000000  0.4545000000000  0.5217940000000 1.0
C      1  0.4458520000000  0.5553060000000  0.5354740000000 1.0
C      1  0.4565720000000  0.4556260000000  0.4863090000000 1.0
C      1  0.5476260000000  0.5447110000000  0.4805520000000 1.0
END
