TITL C-3289331-6719-261 -0.000474398302286083 125000 -470.753881394878 0 0 91 (C1) n - 1
REM
REM in /nfs/bkarasulu/CARBON/AIRSS/Generating-Clusters/AIREBO/with-SteepDescent/Higher-Symm/SD-CG/HFTN-CG
REM
REM
REM
REM
REM
REM ./C.cell (b20cbc046b6831c77cfcea5457e17084)
REM
REM compiler GCC version 9.2.1 20190827 (Red Hat 9.2.1-1)
REM options -cpp -mtune=generic -march=x86-64 -g -O0 -fpre-include=/usr/include/finclude/math-vector-fortran.h
REM seed -620830999 245518109 1432967460 -1426899098 -345273910 1239133812 560320049 -20896437 -4837890 -1487073166 351393062 1803414376 2104582935 -1138321018 1109348030 1608728523 1481587262 1911068208 -1382867783 576023264 -1650069598 -133841281 1516281288 -1915002638 1949135729 -228845662 -42134605 -203837021 1287643739 1495621372 -1123707620 -994607845 432573384
REM
CELL 1.54180   50.00000   50.00000   50.00000   90.00000   90.00000   90.00000
LATT -1
SFAC C  
C      1  0.4687500000000  0.4876800000000  0.5320910000000 1.0
C      1  0.5239200000000  0.4930740000000  0.5017840000000 1.0
C      1  0.4815500000000  0.4860010000000  0.4555690000000 1.0
C      1  0.4694360000000  0.5187710000000  0.5361160000000 1.0
C      1  0.5287360000000  0.5275590000000  0.5034450000000 1.0
C      1  0.4846840000000  0.5179210000000  0.4657060000000 1.0
C      1  0.5300690000000  0.4881720000000  0.5317130000000 1.0
C      1  0.4614720000000  0.4865470000000  0.5018530000000 1.0
C      1  0.5112900000000  0.4886270000000  0.4626580000000 1.0
C      1  0.5363480000000  0.5175080000000  0.5307160000000 1.0
C      1  0.4729370000000  0.5154840000000  0.5038430000000 1.0
C      1  0.5158620000000  0.5182280000000  0.4558860000000 1.0
C      1  0.5138240000000  0.4852150000000  0.5829960000000 1.0
C      1  0.5642160000000  0.4835900000000  0.4475620000000 1.0
C      1  0.4202440000000  0.4832230000000  0.4655280000000 1.0
C      1  0.5189190000000  0.5180150000000  0.5774220000000 1.0
C      1  0.5655480000000  0.5159700000000  0.4447790000000 1.0
C      1  0.4213590000000  0.5132730000000  0.4717470000000 1.0
C      1  0.4827910000000  0.4829750000000  0.5883910000000 1.0
C      1  0.4335320000000  0.4788420000000  0.4382530000000 1.0
C      1  0.5677300000000  0.4805880000000  0.4802380000000 1.0
C      1  0.4869150000000  0.5138930000000  0.5853220000000 1.0
C      1  0.4378440000000  0.5107770000000  0.4427470000000 1.0
C      1  0.5758000000000  0.5106200000000  0.4742390000000 1.0
C      1  0.5603250000000  0.5289680000000  0.5495630000000 1.0
C      1  0.5150130000000  0.5219560000000  0.4242700000000 1.0
C      1  0.4326110000000  0.5282030000000  0.5239180000000 1.0
C      1  0.5536940000000  0.4718830000000  0.5481780000000 1.0
C      1  0.5185590000000  0.4692880000000  0.4214350000000 1.0
C      1  0.4331910000000  0.4766370000000  0.5179320000000 1.0
C      1  0.4423090000000  0.5255550000000  0.5554640000000 1.0
C      1  0.4822870000000  0.5173090000000  0.4170470000000 1.0
C      1  0.5803680000000  0.5199800000000  0.5235490000000 1.0
C      1  0.4431470000000  0.4759800000000  0.5507600000000 1.0
C      1  0.4858840000000  0.4682530000000  0.4268920000000 1.0
C      1  0.5785110000000  0.4704460000000  0.5269090000000 1.0
C      1  0.4882000000000  0.5394080000000  0.5485330000000 1.0
C      1  0.5523490000000  0.5467270000000  0.4934060000000 1.0
C      1  0.4722970000000  0.5449960000000  0.4565620000000 1.0
C      1  0.4825910000000  0.4618530000000  0.5411920000000 1.0
C      1  0.5383400000000  0.4728010000000  0.4874600000000 1.0
C      1  0.4714440000000  0.4570450000000  0.4623760000000 1.0
C      1  0.5211410000000  0.5368590000000  0.5491970000000 1.0
C      1  0.4557270000000  0.5418980000000  0.5065480000000 1.0
C      1  0.5322530000000  0.5427630000000  0.4666510000000 1.0
C      1  0.5151210000000  0.4638620000000  0.5414470000000 1.0
C      1  0.4562310000000  0.4593150000000  0.4902660000000 1.0
C      1  0.5233170000000  0.4617740000000  0.4621310000000 1.0
C      1  0.4223510000000  0.4618730000000  0.4889760000000 1.0
C      1  0.5311740000000  0.4605720000000  0.5712440000000 1.0
C      1  0.5452040000000  0.4580200000000  0.4393260000000 1.0
C      1  0.4199120000000  0.5319910000000  0.4925190000000 1.0
C      1  0.5424440000000  0.5432960000000  0.5749120000000 1.0
C      1  0.5432660000000  0.5382970000000  0.4347860000000 1.0
C      1  0.5758110000000  0.4593320000000  0.5011600000000 1.0
C      1  0.4671680000000  0.4630790000000  0.5714540000000 1.0
C      1  0.4543730000000  0.4562930000000  0.4329780000000 1.0
C      1  0.5755380000000  0.5280020000000  0.4965640000000 1.0
C      1  0.4674220000000  0.5377240000000  0.5754010000000 1.0
C      1  0.4612520000000  0.5258310000000  0.4344190000000 1.0
C      1  0.4524570000000  0.5690000000000  0.4670850000000 1.0
C      1  0.4839920000000  0.5672540000000  0.5676030000000 1.0
C      1  0.5538370000000  0.5767250000000  0.4774200000000 1.0
C      1  0.4547890000000  0.4286330000000  0.4539010000000 1.0
C      1  0.4810070000000  0.4335700000000  0.5600160000000 1.0
C      1  0.5617810000000  0.4369770000000  0.4903750000000 1.0
C      1  0.5388360000000  0.5701780000000  0.4476410000000 1.0
C      1  0.5181860000000  0.5665360000000  0.5655340000000 1.0
C      1  0.4348440000000  0.5584020000000  0.4866000000000 1.0
C      1  0.5484520000000  0.4315950000000  0.4614440000000 1.0
C      1  0.5150000000000  0.4334630000000  0.5566840000000 1.0
C      1  0.4380600000000  0.4313520000000  0.4836170000000 1.0
C      1  0.4839040000000  0.4318530000000  0.5252290000000 1.0
C      1  0.5297150000000  0.4406840000000  0.4953710000000 1.0
C      1  0.4858500000000  0.4272470000000  0.4701900000000 1.0
C      1  0.4880530000000  0.5695550000000  0.5328050000000 1.0
C      1  0.5316940000000  0.5717250000000  0.5036560000000 1.0
C      1  0.4853530000000  0.5694000000000  0.4760500000000 1.0
C      1  0.5176450000000  0.4362100000000  0.5218130000000 1.0
C      1  0.4690960000000  0.4293990000000  0.5000540000000 1.0
C      1  0.5148720000000  0.4303970000000  0.4672310000000 1.0
C      1  0.5215110000000  0.5655050000000  0.5307970000000 1.0
C      1  0.4745200000000  0.5665480000000  0.5063260000000 1.0
C      1  0.5147300000000  0.5710850000000  0.4735310000000 1.0
C      1  0.5932130000000  0.4949430000000  0.5277500000000 1.0
C      1  0.4159920000000  0.5013250000000  0.5178570000000 1.0
C      1  0.4312770000000  0.4995880000000  0.5648310000000 1.0
C      1  0.4786230000000  0.4921780000000  0.4062780000000 1.0
C      1  0.5244710000000  0.4945580000000  0.4097060000000 1.0
C      1  0.5698480000000  0.4984520000000  0.5599850000000 1.0
C      1  0.5011930000000  0.5156730000000  0.4929890000000 1.0
END
