TITL C-3289333-7213-568 0.00498829761956102 125000 -140.284915708666 0 0 26 (C1) n - 1
REM
REM in /nfs/bkarasulu/CARBON/AIRSS/Generating-Clusters/AIREBO/with-SteepDescent/Higher-Symm/SD-CG/HFTN-CG
REM
REM
REM
REM
REM
REM ./C.cell (b20cbc046b6831c77cfcea5457e17084)
REM
REM compiler GCC version 9.2.1 20190827 (Red Hat 9.2.1-1)
REM options -cpp -mtune=generic -march=x86-64 -g -O0 -fpre-include=/usr/include/finclude/math-vector-fortran.h
REM seed 1611157215 -459729869 -1750098529 -690087708 -1424620025 225286363 509105117 -1416385525 1526942331 -1223358586 -1574603108 -95707443 664052719 -770503511 1569263927 1851982500 -640255150 504866633 -146065241 1316385979 -565298414 -120088317 -539805334 -37773373 -569325590 -119111167 -1859413680 1070529952 -1559659522 -645823854 1284791055 -1111805090 -1294639053
REM
CELL 1.54180   50.00000   50.00000   50.00000   90.00000   90.00000   90.00000
LATT -1
SFAC C  
C      1  0.5435350000000  0.5164550000000  0.4867930000000 1.0
C      1  0.5199510000000  0.4714710000000  0.4841600000000 1.0
C      1  0.4681450000000  0.4666200000000  0.4856390000000 1.0
C      1  0.4694000000000  0.5064370000000  0.4842240000000 1.0
C      1  0.5028240000000  0.5439410000000  0.4897410000000 1.0
C      1  0.5437910000000  0.5151190000000  0.5196790000000 1.0
C      1  0.5185570000000  0.4671410000000  0.5163490000000 1.0
C      1  0.4712830000000  0.4634790000000  0.5180710000000 1.0
C      1  0.4673450000000  0.5106250000000  0.5169330000000 1.0
C      1  0.5027840000000  0.5443540000000  0.5197920000000 1.0
C      1  0.4955660000000  0.4476070000000  0.4823080000000 1.0
C      1  0.4421440000000  0.4857310000000  0.4846990000000 1.0
C      1  0.4758440000000  0.5374500000000  0.4822810000000 1.0
C      1  0.5314660000000  0.5416510000000  0.4804040000000 1.0
C      1  0.5455120000000  0.4871930000000  0.4799110000000 1.0
C      1  0.4962210000000  0.4502800000000  0.5221530000000 1.0
C      1  0.4544570000000  0.4862240000000  0.5254440000000 1.0
C      1  0.4737280000000  0.5380200000000  0.5221800000000 1.0
C      1  0.5312270000000  0.5411580000000  0.5292170000000 1.0
C      1  0.5379730000000  0.4828440000000  0.5279940000000 1.0
C      1  0.4977110000000  0.4259610000000  0.5030770000000 1.0
C      1  0.4571190000000  0.5544450000000  0.5009720000000 1.0
C      1  0.5363100000000  0.5601990000000  0.5048650000000 1.0
C      1  0.5625570000000  0.4885850000000  0.5078360000000 1.0
C      1  0.4280910000000  0.4847180000000  0.5103260000000 1.0
C      1  0.4927630000000  0.4854080000000  0.4737320000000 1.0
END
