TITL C-3289329-2751-322 -1.16081561343157e-05 125000 -330.155472793213 0 0 59 (C1) n - 1
REM
REM in /nfs/bkarasulu/CARBON/AIRSS/Generating-Clusters/AIREBO/with-SteepDescent/Higher-Symm/SD-CG/HFTN-CG
REM
REM
REM
REM
REM
REM ./C.cell (b20cbc046b6831c77cfcea5457e17084)
REM
REM compiler GCC version 9.2.1 20190827 (Red Hat 9.2.1-1)
REM options -cpp -mtune=generic -march=x86-64 -g -O0 -fpre-include=/usr/include/finclude/math-vector-fortran.h
REM seed -985848745 463360538 -1885882942 1651039753 -1255697395 615045932 1960127144 1297924632 -1839765323 -1990039634 -1022381825 -769376427 -223782581 1750357862 945354530 1177193633 954232196 -1067741438 1382268706 1351823445 -1326930487 -1622569165 562403312 103997663 -128901417 -1221174269 -635302049 1633079438 -1308029005 1823162076 1363725880 2030119235 -483280360
REM
CELL 1.54180   50.00000   50.00000   50.00000   90.00000   90.00000   90.00000
LATT -1
SFAC C  
C      1  0.4408140000000  0.5190970000000  0.5462570000000 1.0
C      1  0.5075710000000  0.4398540000000  0.5398060000000 1.0
C      1  0.5469610000000  0.5390480000000  0.5401810000000 1.0
C      1  0.4449700000000  0.5327810000000  0.4570910000000 1.0
C      1  0.5011290000000  0.4380010000000  0.4550460000000 1.0
C      1  0.5534150000000  0.5281030000000  0.4553740000000 1.0
C      1  0.4380440000000  0.4928970000000  0.5542170000000 1.0
C      1  0.5308100000000  0.4499340000000  0.5513630000000 1.0
C      1  0.5269110000000  0.5550510000000  0.5507060000000 1.0
C      1  0.4375190000000  0.5119790000000  0.4393810000000 1.0
C      1  0.5242410000000  0.4424030000000  0.4395000000000 1.0
C      1  0.5380070000000  0.5445210000000  0.4384130000000 1.0
C      1  0.4337550000000  0.5238150000000  0.5152690000000 1.0
C      1  0.5133350000000  0.4225110000000  0.5144210000000 1.0
C      1  0.5583520000000  0.5499940000000  0.5134630000000 1.0
C      1  0.4271620000000  0.5302100000000  0.4824050000000 1.0
C      1  0.5084990000000  0.4230470000000  0.4804220000000 1.0
C      1  0.5613320000000  0.5437590000000  0.4799300000000 1.0
C      1  0.4807500000000  0.4555020000000  0.4621000000000 1.0
C      1  0.5496920000000  0.5018090000000  0.4637020000000 1.0
C      1  0.4701430000000  0.5413690000000  0.4651000000000 1.0
C      1  0.4835560000000  0.4530110000000  0.5376650000000 1.0
C      1  0.5473750000000  0.5115920000000  0.5405820000000 1.0
C      1  0.4636030000000  0.5361600000000  0.5388220000000 1.0
C      1  0.5360390000000  0.5658050000000  0.4843710000000 1.0
C      1  0.4271840000000  0.4966880000000  0.4867070000000 1.0
C      1  0.5396410000000  0.4342550000000  0.4867580000000 1.0
C      1  0.5427820000000  0.5795030000000  0.5118380000000 1.0
C      1  0.4244110000000  0.4908210000000  0.5168990000000 1.0
C      1  0.5468670000000  0.4226620000000  0.5148380000000 1.0
C      1  0.4585090000000  0.4452390000000  0.4850670000000 1.0
C      1  0.5686560000000  0.4905380000000  0.4888080000000 1.0
C      1  0.4737830000000  0.5649520000000  0.4883630000000 1.0
C      1  0.4588630000000  0.4437710000000  0.5177230000000 1.0
C      1  0.5682020000000  0.4948260000000  0.5213090000000 1.0
C      1  0.4703560000000  0.5639910000000  0.5208120000000 1.0
C      1  0.5462150000000  0.4455520000000  0.4554390000000 1.0
C      1  0.5240550000000  0.5631150000000  0.4526510000000 1.0
C      1  0.4295620000000  0.4898670000000  0.4534040000000 1.0
C      1  0.5559430000000  0.4398640000000  0.5354340000000 1.0
C      1  0.5234720000000  0.5806940000000  0.5326650000000 1.0
C      1  0.4108480000000  0.4800980000000  0.5463100000000 1.0
C      1  0.5486930000000  0.4725310000000  0.5349000000000 1.0
C      1  0.4985710000000  0.5583600000000  0.5342400000000 1.0
C      1  0.4494020000000  0.4724120000000  0.5307800000000 1.0
C      1  0.5473010000000  0.4662820000000  0.4809870000000 1.0
C      1  0.5041610000000  0.5574260000000  0.4781650000000 1.0
C      1  0.4490790000000  0.4750070000000  0.4749590000000 1.0
C      1  0.4896770000000  0.5290360000000  0.5194750000000 1.0
C      1  0.4794650000000  0.4787990000000  0.5178160000000 1.0
C      1  0.5280230000000  0.4944030000000  0.5199910000000 1.0
C      1  0.4914210000000  0.5290740000000  0.4885180000000 1.0
C      1  0.4796730000000  0.4790770000000  0.4866500000000 1.0
C      1  0.5287860000000  0.4927060000000  0.4889350000000 1.0
C      1  0.4825610000000  0.4265370000000  0.5004720000000 1.0
C      1  0.4463870000000  0.5499810000000  0.5022920000000 1.0
C      1  0.5734260000000  0.5219030000000  0.5015850000000 1.0
C      1  0.4988650000000  0.5006660000000  0.5265170000000 1.0
C      1  0.5002890000000  0.5007460000000  0.4808980000000 1.0
END
