TITL C-3289327-5623-26 -0.00232533936100007 125000 -478.790432574826 0 0 87 (C1) n - 1
REM
REM in /nfs/bkarasulu/CARBON/AIRSS/Generating-Clusters/AIREBO/with-SteepDescent/Higher-Symm/SD-CG/HFTN-CG
REM
REM
REM
REM
REM
REM ./C.cell (b20cbc046b6831c77cfcea5457e17084)
REM
REM compiler GCC version 9.2.1 20190827 (Red Hat 9.2.1-1)
REM options -cpp -mtune=generic -march=x86-64 -g -O0 -fpre-include=/usr/include/finclude/math-vector-fortran.h
REM seed 1927576911 -169974338 2095754999 -1135428117 1743140242 -1140955580 132222153 1652089813 -454561468 783655531 1515301314 695882605 1492084557 -125264587 1228314291 -339091087 -1094861752 773998765 -1715764445 -1510828235 -255399706 161742716 362287879 -1515373954 1827887257 451640411 -912975022 2077382216 175621856 563450024 -1868883659 -952131214 484060361
REM
CELL 1.54180   50.00000   50.00000   50.00000   90.00000   90.00000   90.00000
LATT -1
SFAC C  
C      1  0.4696560000000  0.5481490000000  0.4677150000000 1.0
C      1  0.5117410000000  0.4981650000000  0.5150340000000 1.0
C      1  0.4238050000000  0.5054540000000  0.5180660000000 1.0
C      1  0.4893210000000  0.5205540000000  0.6138300000000 1.0
C      1  0.5302690000000  0.5796630000000  0.4909380000000 1.0
C      1  0.5145270000000  0.5282040000000  0.5724140000000 1.0
C      1  0.5666170000000  0.5129480000000  0.4615570000000 1.0
C      1  0.5245170000000  0.5247200000000  0.4880480000000 1.0
C      1  0.4870960000000  0.4457180000000  0.5580360000000 1.0
C      1  0.4376440000000  0.4892360000000  0.5870770000000 1.0
C      1  0.5118230000000  0.5628680000000  0.4461670000000 1.0
C      1  0.4226090000000  0.5261790000000  0.5416540000000 1.0
C      1  0.4983940000000  0.5346990000000  0.4711310000000 1.0
C      1  0.4681440000000  0.4523080000000  0.4596390000000 1.0
C      1  0.4471090000000  0.4792330000000  0.5641100000000 1.0
C      1  0.5728100000000  0.5077800000000  0.4918520000000 1.0
C      1  0.4717400000000  0.5308840000000  0.5070150000000 1.0
C      1  0.5206560000000  0.4601320000000  0.5072070000000 1.0
C      1  0.5015810000000  0.4886970000000  0.5372880000000 1.0
C      1  0.4540600000000  0.4340690000000  0.4866070000000 1.0
C      1  0.5050230000000  0.5676050000000  0.4766770000000 1.0
C      1  0.5450940000000  0.4972090000000  0.5084880000000 1.0
C      1  0.5036650000000  0.4109160000000  0.4285190000000 1.0
C      1  0.5792620000000  0.5363420000000  0.5056620000000 1.0
C      1  0.5422790000000  0.6015440000000  0.4793540000000 1.0
C      1  0.5574910000000  0.5482900000000  0.5187060000000 1.0
C      1  0.4236940000000  0.5196190000000  0.4871540000000 1.0
C      1  0.4944810000000  0.4930890000000  0.4370330000000 1.0
C      1  0.4574850000000  0.5637130000000  0.5396710000000 1.0
C      1  0.4276680000000  0.5042220000000  0.4640860000000 1.0
C      1  0.4608340000000  0.4393430000000  0.5399640000000 1.0
C      1  0.4463150000000  0.4641300000000  0.4943610000000 1.0
C      1  0.4916830000000  0.4614100000000  0.5861060000000 1.0
C      1  0.5360240000000  0.4268530000000  0.5226860000000 1.0
C      1  0.5531520000000  0.4654430000000  0.4652740000000 1.0
C      1  0.5021320000000  0.5804800000000  0.4274700000000 1.0
C      1  0.5158520000000  0.5415890000000  0.5413880000000 1.0
C      1  0.4921660000000  0.4286920000000  0.4549860000000 1.0
C      1  0.5138750000000  0.4366750000000  0.5457240000000 1.0
C      1  0.5843240000000  0.4795650000000  0.5432150000000 1.0
C      1  0.5063720000000  0.4843950000000  0.5850650000000 1.0
C      1  0.4992270000000  0.5036550000000  0.4864760000000 1.0
C      1  0.4687300000000  0.4564700000000  0.4258990000000 1.0
C      1  0.5749450000000  0.4458180000000  0.4923880000000 1.0
C      1  0.4849920000000  0.5666980000000  0.5450950000000 1.0
C      1  0.5242580000000  0.4289290000000  0.4441230000000 1.0
C      1  0.4533640000000  0.5660350000000  0.5113160000000 1.0
C      1  0.4992390000000  0.5675680000000  0.5160220000000 1.0
C      1  0.4909270000000  0.5956310000000  0.4092580000000 1.0
C      1  0.4371850000000  0.5474240000000  0.5514230000000 1.0
C      1  0.5187540000000  0.4934800000000  0.4534460000000 1.0
C      1  0.5061830000000  0.4305780000000  0.5069590000000 1.0
C      1  0.5578020000000  0.4435580000000  0.5151850000000 1.0
C      1  0.4683530000000  0.5766350000000  0.4612220000000 1.0
C      1  0.4773630000000  0.5773240000000  0.4939080000000 1.0
C      1  0.4406920000000  0.5419030000000  0.4985620000000 1.0
C      1  0.5768800000000  0.4753480000000  0.4824610000000 1.0
C      1  0.4406240000000  0.5091690000000  0.4356040000000 1.0
C      1  0.5020830000000  0.5365710000000  0.5107060000000 1.0
C      1  0.5373340000000  0.5129350000000  0.5584170000000 1.0
C      1  0.5231310000000  0.4854110000000  0.5596010000000 1.0
C      1  0.4630550000000  0.5171280000000  0.4772420000000 1.0
C      1  0.4417070000000  0.4735800000000  0.4643750000000 1.0
C      1  0.5307710000000  0.5441170000000  0.4420170000000 1.0
C      1  0.5004760000000  0.4736840000000  0.3922850000000 1.0
C      1  0.4873350000000  0.4764370000000  0.4725350000000 1.0
C      1  0.4847150000000  0.4207220000000  0.4835840000000 1.0
C      1  0.4681790000000  0.4768770000000  0.5171340000000 1.0
C      1  0.5473240000000  0.4388120000000  0.4536920000000 1.0
C      1  0.5391690000000  0.5697820000000  0.5161550000000 1.0
C      1  0.5842270000000  0.5122450000000  0.4424040000000 1.0
C      1  0.4750980000000  0.4758340000000  0.5477800000000 1.0
C      1  0.5181940000000  0.5755390000000  0.5423060000000 1.0
C      1  0.5319560000000  0.4630050000000  0.5389870000000 1.0
C      1  0.4887160000000  0.4745130000000  0.4163490000000 1.0
C      1  0.5374720000000  0.5191400000000  0.4587880000000 1.0
C      1  0.5594590000000  0.4729710000000  0.5275740000000 1.0
C      1  0.4286190000000  0.4724460000000  0.5190750000000 1.0
C      1  0.4728650000000  0.4319100000000  0.5136790000000 1.0
C      1  0.4911690000000  0.4670980000000  0.5007690000000 1.0
C      1  0.5020220000000  0.5118560000000  0.5918800000000 1.0
C      1  0.4537180000000  0.5026790000000  0.5071050000000 1.0
C      1  0.5425050000000  0.5237750000000  0.5295870000000 1.0
C      1  0.4392920000000  0.4593590000000  0.5422950000000 1.0
C      1  0.4656500000000  0.4957760000000  0.4548710000000 1.0
C      1  0.5696350000000  0.4284110000000  0.4703120000000 1.0
C      1  0.5316140000000  0.4803770000000  0.4821760000000 1.0
END
