TITL C-3289324-3781-185 -668.997620929247 125000 -880.960059409905 0 0 154 (C1) n - 1
REM
REM in /nfs/bkarasulu/CARBON/AIRSS/Generating-Clusters/AIREBO/with-SteepDescent/Higher-Symm/SD-CG/HFTN-CG
REM
REM
REM
REM
REM
REM ./C.cell (b20cbc046b6831c77cfcea5457e17084)
REM
REM compiler GCC version 9.2.1 20190827 (Red Hat 9.2.1-1)
REM options -cpp -mtune=generic -march=x86-64 -g -O0 -fpre-include=/usr/include/finclude/math-vector-fortran.h
REM seed 626382353 236411330 579731824 -406127866 -206787828 2144683106 417094889 1427551300 -964447380 -1476840280 -1174201189 -1090343724 -998099939 1497076030 -1829502793 308826728 225488486 -804771175 1868273553 -1038931125 -1674992654 1428206457 -959053922 -1263625486 -1817852763 -1749144476 -731317341 -1659360489 -108995404 -1832501112 584585066 -2019793431 1614077989
REM
CELL 1.54180   50.00000   50.00000   50.00000   90.00000   90.00000   90.00000
LATT -1
SFAC C  
C      1  0.5120900000000  0.5253830000000  0.4356490000000 1.0
C      1  0.4447010000000  0.5108040000000  0.4760950000000 1.0
C      1  0.4639520000000  0.5062440000000  0.5380860000000 1.0
C      1  0.5264110000000  0.5148300000000  0.5518040000000 1.0
C      1  0.5540790000000  0.5091540000000  0.4956500000000 1.0
C      1  0.5076930000000  0.4928940000000  0.4390330000000 1.0
C      1  0.4414790000000  0.4795180000000  0.4653180000000 1.0
C      1  0.4593300000000  0.4760600000000  0.5471930000000 1.0
C      1  0.5253360000000  0.4842320000000  0.5523180000000 1.0
C      1  0.5500000000000  0.4798970000000  0.4889610000000 1.0
C      1  0.5234740000000  0.4428090000000  0.5051940000000 1.0
C      1  0.5086930000000  0.4396390000000  0.4758180000000 1.0
C      1  0.4800170000000  0.4517810000000  0.4789070000000 1.0
C      1  0.4701430000000  0.4502290000000  0.5075380000000 1.0
C      1  0.5052930000000  0.4427410000000  0.5338670000000 1.0
C      1  0.5260120000000  0.5539660000000  0.5059490000000 1.0
C      1  0.5099150000000  0.5524370000000  0.4785170000000 1.0
C      1  0.4808720000000  0.5410680000000  0.4825870000000 1.0
C      1  0.4760660000000  0.5546470000000  0.5104210000000 1.0
C      1  0.5023530000000  0.5532450000000  0.5279960000000 1.0
C      1  0.4236310000000  0.4625300000000  0.4848380000000 1.0
C      1  0.4577540000000  0.4719870000000  0.5779040000000 1.0
C      1  0.5557450000000  0.4698810000000  0.5575760000000 1.0
C      1  0.5690830000000  0.4701250000000  0.4669520000000 1.0
C      1  0.4905800000000  0.4826580000000  0.4147110000000 1.0
C      1  0.4192110000000  0.5249630000000  0.4897870000000 1.0
C      1  0.4583680000000  0.5228010000000  0.5634370000000 1.0
C      1  0.5581950000000  0.5245750000000  0.5593310000000 1.0
C      1  0.5734290000000  0.5239820000000  0.4772250000000 1.0
C      1  0.4909780000000  0.5396390000000  0.4139400000000 1.0
C      1  0.5047780000000  0.4088330000000  0.5568510000000 1.0
C      1  0.5517020000000  0.4073450000000  0.5141320000000 1.0
C      1  0.5221520000000  0.4099770000000  0.4800080000000 1.0
C      1  0.4698580000000  0.4263080000000  0.4635800000000 1.0
C      1  0.4716440000000  0.4193760000000  0.5184030000000 1.0
C      1  0.5097120000000  0.5875780000000  0.5132150000000 1.0
C      1  0.5428460000000  0.5810640000000  0.5091380000000 1.0
C      1  0.5074490000000  0.5807560000000  0.4657280000000 1.0
C      1  0.4615800000000  0.5928310000000  0.4669770000000 1.0
C      1  0.4630160000000  0.5845220000000  0.5097530000000 1.0
C      1  0.5370480000000  0.5655020000000  0.5722030000000 1.0
C      1  0.5686070000000  0.5609700000000  0.4996350000000 1.0
C      1  0.5197680000000  0.5728370000000  0.4349770000000 1.0
C      1  0.4395510000000  0.5694080000000  0.4682390000000 1.0
C      1  0.4539010000000  0.5697980000000  0.5398660000000 1.0
C      1  0.5264280000000  0.4289160000000  0.5695370000000 1.0
C      1  0.5667100000000  0.4285020000000  0.4953860000000 1.0
C      1  0.5108820000000  0.4361120000000  0.4244550000000 1.0
C      1  0.4398270000000  0.4322870000000  0.4512770000000 1.0
C      1  0.4528420000000  0.4289920000000  0.5440400000000 1.0
C      1  0.4062210000000  0.5120550000000  0.5161250000000 1.0
C      1  0.4811080000000  0.5165510000000  0.5829480000000 1.0
C      1  0.5860560000000  0.5116750000000  0.5499490000000 1.0
C      1  0.5774040000000  0.5162770000000  0.4471290000000 1.0
C      1  0.4605650000000  0.5245490000000  0.4170030000000 1.0
C      1  0.4075950000000  0.4796250000000  0.5094830000000 1.0
C      1  0.4811330000000  0.4876770000000  0.5914500000000 1.0
C      1  0.5827440000000  0.4810560000000  0.5433540000000 1.0
C      1  0.5638970000000  0.4897160000000  0.4413010000000 1.0
C      1  0.4611580000000  0.4917200000000  0.4145130000000 1.0
C      1  0.4440500000000  0.5467470000000  0.5168910000000 1.0
C      1  0.5112330000000  0.5618040000000  0.5586710000000 1.0
C      1  0.5722650000000  0.5436300000000  0.5272210000000 1.0
C      1  0.5452730000000  0.5552680000000  0.4372960000000 1.0
C      1  0.4666550000000  0.5539690000000  0.4594790000000 1.0
C      1  0.4382420000000  0.4411100000000  0.5158200000000 1.0
C      1  0.4984260000000  0.4474860000000  0.5643310000000 1.0
C      1  0.5516940000000  0.4469130000000  0.5196200000000 1.0
C      1  0.5287830000000  0.4409940000000  0.4496590000000 1.0
C      1  0.4621610000000  0.4370030000000  0.4259220000000 1.0
C      1  0.4334010000000  0.5834360000000  0.5051110000000 1.0
C      1  0.4988080000000  0.5943510000000  0.5394460000000 1.0
C      1  0.5626320000000  0.5819410000000  0.5330160000000 1.0
C      1  0.5390860000000  0.5782480000000  0.4694300000000 1.0
C      1  0.4714100000000  0.5929240000000  0.4407210000000 1.0
C      1  0.4530800000000  0.4089110000000  0.4974580000000 1.0
C      1  0.4801170000000  0.4118160000000  0.5701090000000 1.0
C      1  0.5599950000000  0.4104300000000  0.5397590000000 1.0
C      1  0.5462780000000  0.4090880000000  0.4657060000000 1.0
C      1  0.4850210000000  0.4045660000000  0.4516830000000 1.0
C      1  0.6004800000000  0.5056510000000  0.4826210000000 1.0
C      1  0.5049640000000  0.5247770000000  0.3867420000000 1.0
C      1  0.4004600000000  0.5069870000000  0.4678090000000 1.0
C      1  0.4294330000000  0.5142280000000  0.5762500000000 1.0
C      1  0.5516600000000  0.5106390000000  0.5873800000000 1.0
C      1  0.5967500000000  0.4781750000000  0.4807910000000 1.0
C      1  0.5039410000000  0.4970380000000  0.3871160000000 1.0
C      1  0.4015300000000  0.4790540000000  0.4651720000000 1.0
C      1  0.4290570000000  0.4869790000000  0.5827430000000 1.0
C      1  0.5510460000000  0.4829160000000  0.5865190000000 1.0
C      1  0.4352880000000  0.4811360000000  0.4325000000000 1.0
C      1  0.4299910000000  0.4858160000000  0.5336730000000 1.0
C      1  0.5059890000000  0.4747510000000  0.5782720000000 1.0
C      1  0.5615280000000  0.4771110000000  0.5187830000000 1.0
C      1  0.5383130000000  0.4972110000000  0.4253750000000 1.0
C      1  0.4415320000000  0.5120250000000  0.4422870000000 1.0
C      1  0.4387680000000  0.5180070000000  0.5239550000000 1.0
C      1  0.5109730000000  0.5262490000000  0.5768690000000 1.0
C      1  0.5668870000000  0.5112820000000  0.5227440000000 1.0
C      1  0.5400640000000  0.5289010000000  0.4183860000000 1.0
C      1  0.5313640000000  0.4405540000000  0.5988490000000 1.0
C      1  0.5974700000000  0.4328970000000  0.4974050000000 1.0
C      1  0.5106750000000  0.4570110000000  0.4072180000000 1.0
C      1  0.4126510000000  0.4397910000000  0.4378270000000 1.0
C      1  0.4260940000000  0.4426660000000  0.5581720000000 1.0
C      1  0.5386810000000  0.5564090000000  0.5980420000000 1.0
C      1  0.5994300000000  0.5549010000000  0.4889390000000 1.0
C      1  0.5100980000000  0.5667640000000  0.4038270000000 1.0
C      1  0.4157480000000  0.5532930000000  0.4532600000000 1.0
C      1  0.4383500000000  0.5473680000000  0.5563710000000 1.0
C      1  0.4086830000000  0.4673380000000  0.4394130000000 1.0
C      1  0.4221330000000  0.4694200000000  0.5599360000000 1.0
C      1  0.5293550000000  0.4683190000000  0.5975790000000 1.0
C      1  0.6053880000000  0.4600280000000  0.5009300000000 1.0
C      1  0.5274970000000  0.4814280000000  0.4000090000000 1.0
C      1  0.4149320000000  0.5263560000000  0.4501260000000 1.0
C      1  0.4108100000000  0.5347610000000  0.5620570000000 1.0
C      1  0.5321910000000  0.5285580000000  0.5991520000000 1.0
C      1  0.6089260000000  0.5292910000000  0.4988950000000 1.0
C      1  0.5316410000000  0.5343310000000  0.3888230000000 1.0
C      1  0.4802720000000  0.4840530000000  0.6218030000000 1.0
C      1  0.6074330000000  0.4688510000000  0.5279840000000 1.0
C      1  0.5512380000000  0.4600820000000  0.4326780000000 1.0
C      1  0.4591240000000  0.4585100000000  0.4100170000000 1.0
C      1  0.4125280000000  0.4519660000000  0.5217290000000 1.0
C      1  0.4864930000000  0.5498320000000  0.5777990000000 1.0
C      1  0.6023830000000  0.5287700000000  0.5266680000000 1.0
C      1  0.5753960000000  0.5401940000000  0.4326630000000 1.0
C      1  0.4503450000000  0.5495080000000  0.4327900000000 1.0
C      1  0.3935570000000  0.5272080000000  0.5406580000000 1.0
C      1  0.4754730000000  0.5114150000000  0.4882300000000 1.0
C      1  0.4866470000000  0.5046090000000  0.5163760000000 1.0
C      1  0.5113660000000  0.5217750000000  0.5244450000000 1.0
C      1  0.5283270000000  0.5222970000000  0.4963770000000 1.0
C      1  0.5116180000000  0.5204360000000  0.4675310000000 1.0
C      1  0.4727800000000  0.4833150000000  0.4692560000000 1.0
C      1  0.4799900000000  0.4722810000000  0.5246040000000 1.0
C      1  0.5120410000000  0.4747740000000  0.5255400000000 1.0
C      1  0.5200750000000  0.4741360000000  0.4924470000000 1.0
C      1  0.5044800000000  0.4885000000000  0.4720880000000 1.0
C      1  0.4677040000000  0.4428320000000  0.5699590000000 1.0
C      1  0.5503760000000  0.4378750000000  0.5524560000000 1.0
C      1  0.5585760000000  0.4403700000000  0.4662240000000 1.0
C      1  0.4866750000000  0.4222300000000  0.4276390000000 1.0
C      1  0.4361120000000  0.4308620000000  0.4839770000000 1.0
C      1  0.4801680000000  0.5738920000000  0.5543220000000 1.0
C      1  0.5598470000000  0.5574280000000  0.5542550000000 1.0
C      1  0.5566930000000  0.5524790000000  0.4692010000000 1.0
C      1  0.4865190000000  0.5657250000000  0.4352950000000 1.0
C      1  0.4240550000000  0.5559090000000  0.4932380000000 1.0
C      1  0.5249980000000  0.4028960000000  0.5067590000000 1.0
C      1  0.4907200000000  0.6256230000000  0.4889550000000 1.0
C      1  0.4873820000000  0.5958980000000  0.4889210000000 1.0
C      1  0.5021350000000  0.4108990000000  0.5250480000000 1.0
END
