TITL C-3289324-3781-739 -1620.58473887423 125000 -800.624463689284 0 0 147 (C1) n - 1
REM
REM in /nfs/bkarasulu/CARBON/AIRSS/Generating-Clusters/AIREBO/with-SteepDescent/Higher-Symm/SD-CG/HFTN-CG
REM
REM
REM
REM
REM
REM ./C.cell (b20cbc046b6831c77cfcea5457e17084)
REM
REM compiler GCC version 9.2.1 20190827 (Red Hat 9.2.1-1)
REM options -cpp -mtune=generic -march=x86-64 -g -O0 -fpre-include=/usr/include/finclude/math-vector-fortran.h
REM seed 134848905 1322478957 906769788 -545100596 -1332351081 -746087295 -1206381459 -1123969142 184090809 592611007 -2135481992 -1945027898 -1159636210 60008679 2015235617 -520402204 -795826016 1545603402 -221216654 1296906545 -1482784458 -266168901 -177849020 1731766891 -2026089920 541783979 676632521 1314651047 482140281 -2097113402 -1129918027 -441326604 -1184046165
REM
CELL 1.54180   50.00000   50.00000   50.00000   90.00000   90.00000   90.00000
LATT -1
SFAC C  
C      1  0.4351210000000  0.5333380000000  0.4655420000000 1.0
C      1  0.5536350000000  0.5508050000000  0.4637020000000 1.0
C      1  0.4963390000000  0.4170600000000  0.4628460000000 1.0
C      1  0.5951950000000  0.4618550000000  0.4985240000000 1.0
C      1  0.4189530000000  0.4381760000000  0.4986690000000 1.0
C      1  0.4901800000000  0.6121020000000  0.5072840000000 1.0
C      1  0.4417580000000  0.4345920000000  0.5332360000000 1.0
C      1  0.4762480000000  0.5881370000000  0.5388770000000 1.0
C      1  0.5825400000000  0.4857450000000  0.5579630000000 1.0
C      1  0.5491370000000  0.5445530000000  0.4307510000000 1.0
C      1  0.5157320000000  0.4416060000000  0.4217780000000 1.0
C      1  0.4447510000000  0.5138190000000  0.4229240000000 1.0
C      1  0.4203710000000  0.5579140000000  0.4838320000000 1.0
C      1  0.5802560000000  0.5404070000000  0.4794810000000 1.0
C      1  0.4745640000000  0.3927490000000  0.4696210000000 1.0
C      1  0.4467150000000  0.5293270000000  0.5767500000000 1.0
C      1  0.5571790000000  0.5340640000000  0.5765800000000 1.0
C      1  0.5055690000000  0.4308960000000  0.5763330000000 1.0
C      1  0.4889610000000  0.4637090000000  0.4881290000000 1.0
C      1  0.4792690000000  0.5336070000000  0.4923200000000 1.0
C      1  0.5350350000000  0.5072330000000  0.4905540000000 1.0
C      1  0.5263480000000  0.4311220000000  0.4991330000000 1.0
C      1  0.4455870000000  0.5085650000000  0.5039190000000 1.0
C      1  0.5357760000000  0.5590850000000  0.5043560000000 1.0
C      1  0.3953980000000  0.4752220000000  0.4642290000000 1.0
C      1  0.5268470000000  0.6113340000000  0.4562910000000 1.0
C      1  0.5528170000000  0.4123560000000  0.4613940000000 1.0
C      1  0.4783200000000  0.4927640000000  0.4271650000000 1.0
C      1  0.5114830000000  0.5322160000000  0.4255160000000 1.0
C      1  0.5161640000000  0.4804840000000  0.4305450000000 1.0
C      1  0.4617540000000  0.4446980000000  0.5661470000000 1.0
C      1  0.4779140000000  0.5628540000000  0.5695930000000 1.0
C      1  0.5693030000000  0.4841520000000  0.5825470000000 1.0
C      1  0.5537690000000  0.4688060000000  0.4602690000000 1.0
C      1  0.4446920000000  0.4654620000000  0.4573560000000 1.0
C      1  0.4952700000000  0.5726040000000  0.4570520000000 1.0
C      1  0.5270200000000  0.4555530000000  0.4496470000000 1.0
C      1  0.4507590000000  0.4931310000000  0.4475760000000 1.0
C      1  0.5203690000000  0.5578610000000  0.4430790000000 1.0
C      1  0.5018510000000  0.5355370000000  0.4705070000000 1.0
C      1  0.5166110000000  0.4988090000000  0.4678720000000 1.0
C      1  0.4873810000000  0.4915460000000  0.4730400000000 1.0
C      1  0.4908010000000  0.4712530000000  0.5724070000000 1.0
C      1  0.4886840000000  0.5248150000000  0.5745260000000 1.0
C      1  0.5358240000000  0.4989240000000  0.5665180000000 1.0
C      1  0.4284320000000  0.4619820000000  0.5293720000000 1.0
C      1  0.5059730000000  0.5858850000000  0.5329910000000 1.0
C      1  0.5724920000000  0.4613000000000  0.5410140000000 1.0
C      1  0.4895130000000  0.4688720000000  0.4482390000000 1.0
C      1  0.4879320000000  0.5200710000000  0.4450250000000 1.0
C      1  0.5291460000000  0.5076040000000  0.4409800000000 1.0
C      1  0.4506640000000  0.5949070000000  0.4355660000000 1.0
C      1  0.6126820000000  0.5079220000000  0.4544700000000 1.0
C      1  0.4300760000000  0.4088560000000  0.4482510000000 1.0
C      1  0.4447560000000  0.5783640000000  0.4826110000000 1.0
C      1  0.5975810000000  0.5267430000000  0.5032820000000 1.0
C      1  0.4657810000000  0.3848970000000  0.4979250000000 1.0
C      1  0.5047920000000  0.3919910000000  0.4851690000000 1.0
C      1  0.4092420000000  0.5258160000000  0.4862730000000 1.0
C      1  0.5630740000000  0.5763680000000  0.4811030000000 1.0
C      1  0.5537800000000  0.4831200000000  0.4891740000000 1.0
C      1  0.4585440000000  0.4569210000000  0.4866990000000 1.0
C      1  0.4838770000000  0.5662680000000  0.4876830000000 1.0
C      1  0.4999020000000  0.5826080000000  0.5756900000000 1.0
C      1  0.5498070000000  0.4602310000000  0.5843450000000 1.0
C      1  0.4345540000000  0.4553980000000  0.5733900000000 1.0
C      1  0.4950660000000  0.5595250000000  0.5182700000000 1.0
C      1  0.5497220000000  0.4726330000000  0.5187400000000 1.0
C      1  0.4574560000000  0.4674560000000  0.5167790000000 1.0
C      1  0.5561690000000  0.5619010000000  0.5592430000000 1.0
C      1  0.5303330000000  0.4176400000000  0.5599870000000 1.0
C      1  0.4249720000000  0.5140630000000  0.5581850000000 1.0
C      1  0.5295970000000  0.4503660000000  0.5512700000000 1.0
C      1  0.4545610000000  0.4982380000000  0.5529290000000 1.0
C      1  0.5272680000000  0.5455710000000  0.5529540000000 1.0
C      1  0.5475100000000  0.4486680000000  0.6124140000000 1.0
C      1  0.4179110000000  0.4443890000000  0.5901210000000 1.0
C      1  0.4978330000000  0.6028060000000  0.5920360000000 1.0
C      1  0.5382260000000  0.5995900000000  0.4811680000000 1.0
C      1  0.5327600000000  0.4059690000000  0.4780740000000 1.0
C      1  0.3956860000000  0.4953000000000  0.4871230000000 1.0
C      1  0.4688170000000  0.4433890000000  0.4506340000000 1.0
C      1  0.4723370000000  0.5500220000000  0.4490510000000 1.0
C      1  0.5610010000000  0.5007350000000  0.4510690000000 1.0
C      1  0.4703730000000  0.4423100000000  0.4108680000000 1.0
C      1  0.4621590000000  0.5562140000000  0.4112080000000 1.0
C      1  0.5608940000000  0.5001470000000  0.4032320000000 1.0
C      1  0.5794670000000  0.4463050000000  0.5145070000000 1.0
C      1  0.4050020000000  0.4656310000000  0.5067080000000 1.0
C      1  0.5188830000000  0.6016900000000  0.5090780000000 1.0
C      1  0.4545360000000  0.4181370000000  0.4642430000000 1.0
C      1  0.4548540000000  0.5770730000000  0.4541080000000 1.0
C      1  0.5858470000000  0.5098740000000  0.4689920000000 1.0
C      1  0.4534400000000  0.5672780000000  0.5135580000000 1.0
C      1  0.5742080000000  0.5086760000000  0.5201310000000 1.0
C      1  0.4654360000000  0.4111050000000  0.5113810000000 1.0
C      1  0.5572570000000  0.5363100000000  0.5121890000000 1.0
C      1  0.4982810000000  0.4197380000000  0.5131380000000 1.0
C      1  0.4412680000000  0.5370030000000  0.5105720000000 1.0
C      1  0.5762260000000  0.5450110000000  0.5375680000000 1.0
C      1  0.5018720000000  0.4077680000000  0.5441960000000 1.0
C      1  0.4292910000000  0.5431450000000  0.5410960000000 1.0
C      1  0.5621400000000  0.4376170000000  0.4562950000000 1.0
C      1  0.4143290000000  0.4613300000000  0.4552520000000 1.0
C      1  0.5055660000000  0.6009210000000  0.4473750000000 1.0
C      1  0.5308830000000  0.4944390000000  0.4032500000000 1.0
C      1  0.4810680000000  0.4682500000000  0.4037290000000 1.0
C      1  0.4843690000000  0.5385970000000  0.4055790000000 1.0
C      1  0.4832730000000  0.5214300000000  0.5198750000000 1.0
C      1  0.5265520000000  0.5115500000000  0.5188270000000 1.0
C      1  0.4973760000000  0.4657760000000  0.5172640000000 1.0
C      1  0.5196280000000  0.5397160000000  0.5249210000000 1.0
C      1  0.5251190000000  0.4554310000000  0.5218080000000 1.0
C      1  0.4651140000000  0.4973820000000  0.5247130000000 1.0
C      1  0.4213500000000  0.4933860000000  0.5058900000000 1.0
C      1  0.5503670000000  0.5892500000000  0.5104320000000 1.0
C      1  0.5595140000000  0.4296460000000  0.5065070000000 1.0
C      1  0.5583040000000  0.4376680000000  0.5610640000000 1.0
C      1  0.4277350000000  0.4800450000000  0.5556760000000 1.0
C      1  0.5254280000000  0.5772690000000  0.5579360000000 1.0
C      1  0.5840030000000  0.4903190000000  0.4932380000000 1.0
C      1  0.4468110000000  0.4285390000000  0.4938920000000 1.0
C      1  0.4699930000000  0.5935950000000  0.4997950000000 1.0
C      1  0.5090840000000  0.4446850000000  0.4733020000000 1.0
C      1  0.4601950000000  0.5120550000000  0.4742060000000 1.0
C      1  0.5300070000000  0.5366930000000  0.4796800000000 1.0
C      1  0.5082470000000  0.4566680000000  0.3996200000000 1.0
C      1  0.4684910000000  0.5140970000000  0.4031560000000 1.0
C      1  0.5332310000000  0.5283300000000  0.4018620000000 1.0
C      1  0.4424350000000  0.5427860000000  0.4354770000000 1.0
C      1  0.5641790000000  0.5174700000000  0.4247490000000 1.0
C      1  0.4907120000000  0.4255070000000  0.4323200000000 1.0
C      1  0.5790760000000  0.5616120000000  0.5072380000000 1.0
C      1  0.5016630000000  0.3862040000000  0.5176270000000 1.0
C      1  0.4089630000000  0.5464960000000  0.5137600000000 1.0
C      1  0.5187630000000  0.5243510000000  0.5711360000000 1.0
C      1  0.5208880000000  0.4723790000000  0.5717490000000 1.0
C      1  0.4763380000000  0.4977200000000  0.5724220000000 1.0
C      1  0.4850010000000  0.5410350000000  0.5447460000000 1.0
C      1  0.5471830000000  0.4987230000000  0.5382260000000 1.0
C      1  0.4783100000000  0.4620830000000  0.5420650000000 1.0
C      1  0.5894340000000  0.5155910000000  0.5489860000000 1.0
C      1  0.4704840000000  0.4215090000000  0.5428510000000 1.0
C      1  0.4531060000000  0.5670230000000  0.5467110000000 1.0
C      1  0.4671060000000  0.5431650000000  0.5924010000000 1.0
C      1  0.5574180000000  0.5097180000000  0.5904610000000 1.0
C      1  0.4833950000000  0.4432950000000  0.5894800000000 1.0
END
