TITL C-3289335-9438-309 -0.000881745838260934 125000 -521.511832716974 0 0 90 (C1) n - 1
REM
REM in /nfs/bkarasulu/CARBON/AIRSS/Generating-Clusters/AIREBO/with-SteepDescent/Higher-Symm/SD-CG/HFTN-CG
REM
REM
REM
REM
REM
REM ./C.cell (b20cbc046b6831c77cfcea5457e17084)
REM
REM compiler GCC version 9.2.1 20190827 (Red Hat 9.2.1-1)
REM options -cpp -mtune=generic -march=x86-64 -g -O0 -fpre-include=/usr/include/finclude/math-vector-fortran.h
REM seed 1419033400 1246150780 -657841799 -1153778012 1447204749 -494674176 2076455817 791622783 709019348 -1355307655 -1061224987 -1574871549 56091522 892384922 -772478439 1686983579 -917049264 2072550494 1850267819 -966953890 -663975470 1145882488 1279363136 1506661778 1886014027 -1868748520 1287434749 -843619404 555783227 -1345054396 -1120719800 -1968602578 -1663438190
REM
CELL 1.54180   50.00000   50.00000   50.00000   90.00000   90.00000   90.00000
LATT -1
SFAC C  
C      1  0.4771300000000  0.4874150000000  0.5818450000000 1.0
C      1  0.4974060000000  0.4689770000000  0.5741300000000 1.0
C      1  0.5249630000000  0.4787220000000  0.5750830000000 1.0
C      1  0.5299410000000  0.5074380000000  0.5761960000000 1.0
C      1  0.5070660000000  0.5239380000000  0.5809620000000 1.0
C      1  0.4876410000000  0.5096070000000  0.5962620000000 1.0
C      1  0.5290940000000  0.4845530000000  0.4230270000000 1.0
C      1  0.5060460000000  0.4674460000000  0.4216950000000 1.0
C      1  0.4796630000000  0.4793860000000  0.4244310000000 1.0
C      1  0.4753190000000  0.5076810000000  0.4236650000000 1.0
C      1  0.4983160000000  0.5244870000000  0.4232470000000 1.0
C      1  0.5250520000000  0.5118830000000  0.4192950000000 1.0
C      1  0.5521940000000  0.4695690000000  0.5334450000000 1.0
C      1  0.5503150000000  0.5288450000000  0.5363060000000 1.0
C      1  0.4948630000000  0.5620770000000  0.5303460000000 1.0
C      1  0.4440330000000  0.5326220000000  0.5278160000000 1.0
C      1  0.4519800000000  0.4811910000000  0.5337620000000 1.0
C      1  0.5057570000000  0.4434760000000  0.5326450000000 1.0
C      1  0.4534480000000  0.4718760000000  0.4702170000000 1.0
C      1  0.4507270000000  0.5260770000000  0.4676810000000 1.0
C      1  0.5021180000000  0.5621140000000  0.4763260000000 1.0
C      1  0.5472510000000  0.5240990000000  0.4670610000000 1.0
C      1  0.5449750000000  0.4624450000000  0.4647070000000 1.0
C      1  0.5052630000000  0.4461910000000  0.4656440000000 1.0
C      1  0.5334610000000  0.5741450000000  0.4723030000000 1.0
C      1  0.4562770000000  0.5569930000000  0.4680390000000 1.0
C      1  0.4281980000000  0.4915140000000  0.4700400000000 1.0
C      1  0.4755710000000  0.4360870000000  0.4724250000000 1.0
C      1  0.5436260000000  0.4307690000000  0.4662950000000 1.0
C      1  0.5733420000000  0.5070030000000  0.4652520000000 1.0
C      1  0.4652570000000  0.5703460000000  0.5298700000000 1.0
C      1  0.5392980000000  0.5573060000000  0.5373760000000 1.0
C      1  0.5746940000000  0.4905400000000  0.5297910000000 1.0
C      1  0.5341770000000  0.4295140000000  0.5316010000000 1.0
C      1  0.4525930000000  0.4497290000000  0.5316120000000 1.0
C      1  0.4218700000000  0.5116510000000  0.5294540000000 1.0
C      1  0.4918530000000  0.5434660000000  0.5586440000000 1.0
C      1  0.4611720000000  0.5285620000000  0.5569180000000 1.0
C      1  0.4551190000000  0.4963270000000  0.5632160000000 1.0
C      1  0.4908640000000  0.4464550000000  0.5584720000000 1.0
C      1  0.5453290000000  0.4627410000000  0.5637690000000 1.0
C      1  0.5535620000000  0.5164430000000  0.5643500000000 1.0
C      1  0.5001220000000  0.5434190000000  0.4479900000000 1.0
C      1  0.5323830000000  0.5348510000000  0.4413310000000 1.0
C      1  0.5515320000000  0.4759230000000  0.4383420000000 1.0
C      1  0.5098650000000  0.4429060000000  0.4348450000000 1.0
C      1  0.4600700000000  0.4646520000000  0.4383850000000 1.0
C      1  0.4514790000000  0.5164970000000  0.4361270000000 1.0
C      1  0.4991560000000  0.4708320000000  0.5135120000000 1.0
C      1  0.5256820000000  0.4823750000000  0.5246670000000 1.0
C      1  0.5293840000000  0.5115830000000  0.5186880000000 1.0
C      1  0.5041960000000  0.5325860000000  0.5222560000000 1.0
C      1  0.4732470000000  0.5238860000000  0.5189920000000 1.0
C      1  0.4737810000000  0.4926860000000  0.5167540000000 1.0
C      1  0.5171100000000  0.4764880000000  0.4756070000000 1.0
C      1  0.4847290000000  0.4755150000000  0.4830410000000 1.0
C      1  0.4698340000000  0.5054540000000  0.4841330000000 1.0
C      1  0.4830860000000  0.5360440000000  0.4887980000000 1.0
C      1  0.5154650000000  0.5336580000000  0.4893010000000 1.0
C      1  0.5280700000000  0.5040980000000  0.4855140000000 1.0
C      1  0.5542760000000  0.5425920000000  0.4912720000000 1.0
C      1  0.4850770000000  0.5869680000000  0.4897780000000 1.0
C      1  0.4266210000000  0.5298820000000  0.4867880000000 1.0
C      1  0.4375450000000  0.4561590000000  0.4940360000000 1.0
C      1  0.5107540000000  0.4266950000000  0.4886500000000 1.0
C      1  0.5645240000000  0.4696730000000  0.4875780000000 1.0
C      1  0.4330660000000  0.5525950000000  0.5063210000000 1.0
C      1  0.5086020000000  0.5805050000000  0.5112150000000 1.0
C      1  0.5662680000000  0.5249520000000  0.5102970000000 1.0
C      1  0.5575530000000  0.4527830000000  0.5090350000000 1.0
C      1  0.4913960000000  0.4284780000000  0.5094330000000 1.0
C      1  0.4281230000000  0.4755770000000  0.5135540000000 1.0
C      1  0.5218670000000  0.5594740000000  0.5593930000000 1.0
C      1  0.4535160000000  0.5613910000000  0.5535790000000 1.0
C      1  0.4229790000000  0.4991940000000  0.5542910000000 1.0
C      1  0.4640650000000  0.4383780000000  0.5538490000000 1.0
C      1  0.5489020000000  0.4351360000000  0.5535270000000 1.0
C      1  0.5783800000000  0.5052820000000  0.5522890000000 1.0
C      1  0.4742100000000  0.5632090000000  0.4478900000000 1.0
C      1  0.5447850000000  0.5639150000000  0.4491980000000 1.0
C      1  0.5745630000000  0.4918240000000  0.4427450000000 1.0
C      1  0.5292970000000  0.4221420000000  0.4445950000000 1.0
C      1  0.4595450000000  0.4376450000000  0.4505740000000 1.0
C      1  0.4259050000000  0.5038510000000  0.4457530000000 1.0
C      1  0.4646200000000  0.4409550000000  0.5021000000000 1.0
C      1  0.5394390000000  0.4293190000000  0.4994930000000 1.0
C      1  0.4582710000000  0.5701760000000  0.4980070000000 1.0
C      1  0.4158430000000  0.5017160000000  0.4992410000000 1.0
C      1  0.5772070000000  0.4977500000000  0.4970800000000 1.0
C      1  0.5367870000000  0.5666240000000  0.5047370000000 1.0
END
