TITL C-3289324-3781-777 0.00411860867294252 125000 -534.077930681191 0 0 89 (C1) n - 1
REM
REM in /nfs/bkarasulu/CARBON/AIRSS/Generating-Clusters/AIREBO/with-SteepDescent/Higher-Symm/SD-CG/HFTN-CG
REM
REM
REM
REM
REM
REM ./C.cell (b20cbc046b6831c77cfcea5457e17084)
REM
REM compiler GCC version 9.2.1 20190827 (Red Hat 9.2.1-1)
REM options -cpp -mtune=generic -march=x86-64 -g -O0 -fpre-include=/usr/include/finclude/math-vector-fortran.h
REM seed 2091514013 416895342 1900229699 -1032180508 -2092495803 -1121389419 1059667229 -1547163478 -1915512760 1943448844 1503062237 1111168249 1281987915 1084602195 -394468437 -1951807498 609843109 709936404 1674300679 -364044018 -1848423290 -1323281146 -382086464 1125740483 175983274 286161261 -576398522 910251540 137227523 2013115196 1473294390 2000671267 1065833030
REM
CELL 1.54180   50.00000   50.00000   50.00000   90.00000   90.00000   90.00000
LATT -1
SFAC C  
C      1  0.5498130000000  0.5275000000000  0.4346700000000 1.0
C      1  0.5385050000000  0.4253130000000  0.5409370000000 1.0
C      1  0.4252790000000  0.5482660000000  0.5306930000000 1.0
C      1  0.5532150000000  0.4641270000000  0.5662570000000 1.0
C      1  0.4575870000000  0.5227370000000  0.5594510000000 1.0
C      1  0.4561230000000  0.4751880000000  0.4429050000000 1.0
C      1  0.5321340000000  0.5666840000000  0.4529160000000 1.0
C      1  0.4737430000000  0.4367520000000  0.4612900000000 1.0
C      1  0.4704530000000  0.5632940000000  0.5359090000000 1.0
C      1  0.4465900000000  0.4660500000000  0.4891840000000 1.0
C      1  0.5671750000000  0.5445160000000  0.4748710000000 1.0
C      1  0.5671900000000  0.4573410000000  0.5219210000000 1.0
C      1  0.5476870000000  0.4374750000000  0.5168130000000 1.0
C      1  0.5378950000000  0.5527340000000  0.4286110000000 1.0
C      1  0.4305880000000  0.5266720000000  0.5527160000000 1.0
C      1  0.5553740000000  0.5700330000000  0.4692740000000 1.0
C      1  0.4431970000000  0.5699130000000  0.5321180000000 1.0
C      1  0.4633170000000  0.4425200000000  0.4872380000000 1.0
C      1  0.5306480000000  0.4452840000000  0.5599400000000 1.0
C      1  0.4562710000000  0.4467730000000  0.4410240000000 1.0
C      1  0.4760280000000  0.5453590000000  0.5565640000000 1.0
C      1  0.4467080000000  0.4849220000000  0.4678770000000 1.0
C      1  0.5754920000000  0.4595990000000  0.5491760000000 1.0
C      1  0.5736030000000  0.5309250000000  0.4504190000000 1.0
C      1  0.5005820000000  0.4439850000000  0.4569720000000 1.0
C      1  0.4444380000000  0.4774970000000  0.5145930000000 1.0
C      1  0.4804410000000  0.4870370000000  0.4357970000000 1.0
C      1  0.4875860000000  0.5605930000000  0.5142020000000 1.0
C      1  0.5010110000000  0.4530710000000  0.5168020000000 1.0
C      1  0.5101010000000  0.5526790000000  0.4679100000000 1.0
C      1  0.4151940000000  0.5302510000000  0.5076600000000 1.0
C      1  0.5607630000000  0.4814270000000  0.5088330000000 1.0
C      1  0.5492590000000  0.5271470000000  0.4933770000000 1.0
C      1  0.4725740000000  0.4968120000000  0.5512120000000 1.0
C      1  0.5316760000000  0.4845360000000  0.5528920000000 1.0
C      1  0.5306270000000  0.5076560000000  0.4487240000000 1.0
C      1  0.5046820000000  0.4742750000000  0.4483160000000 1.0
C      1  0.4515960000000  0.5123810000000  0.4741660000000 1.0
C      1  0.4769600000000  0.4349650000000  0.5109470000000 1.0
C      1  0.4960530000000  0.5205980000000  0.5488660000000 1.0
C      1  0.5033180000000  0.5222620000000  0.4560600000000 1.0
C      1  0.5065280000000  0.4622890000000  0.5486090000000 1.0
C      1  0.4145190000000  0.5100240000000  0.5316020000000 1.0
C      1  0.5436360000000  0.5001180000000  0.4780320000000 1.0
C      1  0.5415220000000  0.5006920000000  0.5257660000000 1.0
C      1  0.4775790000000  0.5503890000000  0.4906470000000 1.0
C      1  0.5199760000000  0.5428080000000  0.4979780000000 1.0
C      1  0.5253470000000  0.4479860000000  0.4988220000000 1.0
C      1  0.4301590000000  0.5593840000000  0.4623550000000 1.0
C      1  0.5625500000000  0.4748500000000  0.4256650000000 1.0
C      1  0.4577760000000  0.4219240000000  0.5617600000000 1.0
C      1  0.4167360000000  0.4489690000000  0.5433760000000 1.0
C      1  0.5704460000000  0.5545770000000  0.5310790000000 1.0
C      1  0.5782250000000  0.4518870000000  0.4672520000000 1.0
C      1  0.5523520000000  0.5287700000000  0.5715620000000 1.0
C      1  0.4503030000000  0.4695610000000  0.5767950000000 1.0
C      1  0.4494060000000  0.5278950000000  0.4288380000000 1.0
C      1  0.4723860000000  0.5711860000000  0.4348150000000 1.0
C      1  0.5417600000000  0.4302600000000  0.4394510000000 1.0
C      1  0.5269280000000  0.5676380000000  0.5515090000000 1.0
C      1  0.4265140000000  0.4704980000000  0.5639600000000 1.0
C      1  0.5601160000000  0.4317280000000  0.4647820000000 1.0
C      1  0.4726130000000  0.5474010000000  0.4209350000000 1.0
C      1  0.4298560000000  0.5319220000000  0.4468900000000 1.0
C      1  0.5720980000000  0.5315810000000  0.5526780000000 1.0
C      1  0.5790790000000  0.4762260000000  0.4472800000000 1.0
C      1  0.5494510000000  0.5719100000000  0.5299220000000 1.0
C      1  0.4507270000000  0.5766640000000  0.4574750000000 1.0
C      1  0.4326120000000  0.4264270000000  0.5412380000000 1.0
C      1  0.4670020000000  0.4431270000000  0.5769970000000 1.0
C      1  0.5422370000000  0.4510980000000  0.4215350000000 1.0
C      1  0.5266920000000  0.5464500000000  0.5683390000000 1.0
C      1  0.4804360000000  0.5171470000000  0.4343720000000 1.0
C      1  0.5266140000000  0.4338550000000  0.4698150000000 1.0
C      1  0.4822290000000  0.4704070000000  0.5645590000000 1.0
C      1  0.4824450000000  0.5697860000000  0.4663780000000 1.0
C      1  0.4263220000000  0.5311870000000  0.4807810000000 1.0
C      1  0.5304630000000  0.4808360000000  0.4315140000000 1.0
C      1  0.4208120000000  0.4811160000000  0.5328030000000 1.0
C      1  0.5712680000000  0.4821180000000  0.4795240000000 1.0
C      1  0.5638080000000  0.5235980000000  0.5213710000000 1.0
C      1  0.5234510000000  0.5126450000000  0.5645340000000 1.0
C      1  0.5174430000000  0.5680090000000  0.5196290000000 1.0
C      1  0.4628460000000  0.4217930000000  0.5301900000000 1.0
C      1  0.4765080000000  0.5247720000000  0.4768690000000 1.0
C      1  0.5241800000000  0.4732280000000  0.4760350000000 1.0
C      1  0.4674240000000  0.4888400000000  0.5232010000000 1.0
C      1  0.5158910000000  0.5196660000000  0.5223480000000 1.0
C      1  0.4899400000000  0.4817840000000  0.5103000000000 1.0
END
