TITL C-3289330-4660-63 -9.53361500926473e-05 125000 -971.84219746341 0 0 188 (C1) n - 1
REM
REM in /nfs/bkarasulu/CARBON/AIRSS/Generating-Clusters/AIREBO/with-SteepDescent/Higher-Symm/SD-CG/HFTN-CG
REM
REM
REM
REM
REM
REM ./C.cell (b20cbc046b6831c77cfcea5457e17084)
REM
REM compiler GCC version 9.2.1 20190827 (Red Hat 9.2.1-1)
REM options -cpp -mtune=generic -march=x86-64 -g -O0 -fpre-include=/usr/include/finclude/math-vector-fortran.h
REM seed 581490441 -762658547 2093678913 664058656 -250287820 -1302316203 -1291787868 1637646333 -1665885567 608539129 -297485718 -1434089293 -446533593 1705766828 996402808 1310408538 1185729880 -1299641026 -987986600 -288516417 -1496169199 -1560717169 -586109124 1461428189 -613487975 1340021579 839003722 -157469099 -697686478 1739470120 1220777011 243565373 452494824
REM
CELL 1.54180   50.00000   50.00000   50.00000   90.00000   90.00000   90.00000
LATT -1
SFAC C  
C      1  0.4703270000000  0.4107140000000  0.5508470000000 1.0
C      1  0.4627190000000  0.5916090000000  0.5522810000000 1.0
C      1  0.4622300000000  0.4217700000000  0.4433600000000 1.0
C      1  0.4678840000000  0.5901510000000  0.4382440000000 1.0
C      1  0.4015550000000  0.5162690000000  0.4474160000000 1.0
C      1  0.4081560000000  0.4831480000000  0.4421090000000 1.0
C      1  0.4792490000000  0.5315740000000  0.4577700000000 1.0
C      1  0.4864800000000  0.4685480000000  0.4617790000000 1.0
C      1  0.5308600000000  0.3912180000000  0.4858430000000 1.0
C      1  0.5390030000000  0.5930710000000  0.4917390000000 1.0
C      1  0.5644100000000  0.4847600000000  0.5135900000000 1.0
C      1  0.5605290000000  0.5134590000000  0.5039930000000 1.0
C      1  0.4408100000000  0.5190990000000  0.4220870000000 1.0
C      1  0.4596150000000  0.4909650000000  0.4253680000000 1.0
C      1  0.5003310000000  0.5576310000000  0.4520510000000 1.0
C      1  0.5011860000000  0.4447850000000  0.4510130000000 1.0
C      1  0.5457510000000  0.4809400000000  0.5604200000000 1.0
C      1  0.5459880000000  0.5139170000000  0.5521090000000 1.0
C      1  0.5027850000000  0.5683250000000  0.5731550000000 1.0
C      1  0.5262290000000  0.4382260000000  0.5894390000000 1.0
C      1  0.5943110000000  0.5101140000000  0.5059220000000 1.0
C      1  0.6035610000000  0.4768020000000  0.5067770000000 1.0
C      1  0.5344030000000  0.4329330000000  0.4928650000000 1.0
C      1  0.5270100000000  0.5638300000000  0.5042910000000 1.0
C      1  0.5010660000000  0.5274710000000  0.5950820000000 1.0
C      1  0.5013050000000  0.4773160000000  0.5989080000000 1.0
C      1  0.4225790000000  0.5291450000000  0.5692370000000 1.0
C      1  0.4187330000000  0.4473560000000  0.5742350000000 1.0
C      1  0.4618570000000  0.4642670000000  0.4841390000000 1.0
C      1  0.4592800000000  0.5458790000000  0.4812860000000 1.0
C      1  0.5727610000000  0.4080280000000  0.5556180000000 1.0
C      1  0.5658220000000  0.5922000000000  0.5525400000000 1.0
C      1  0.4164430000000  0.5393760000000  0.4927980000000 1.0
C      1  0.4141910000000  0.4649300000000  0.4941660000000 1.0
C      1  0.5741530000000  0.5228640000000  0.4604300000000 1.0
C      1  0.5714350000000  0.4670960000000  0.4583900000000 1.0
C      1  0.5355560000000  0.5146240000000  0.3990280000000 1.0
C      1  0.5383150000000  0.4837900000000  0.3932050000000 1.0
C      1  0.5582210000000  0.5945430000000  0.5197570000000 1.0
C      1  0.5593960000000  0.4065580000000  0.5314650000000 1.0
C      1  0.5202170000000  0.4834820000000  0.4396880000000 1.0
C      1  0.5272030000000  0.5161480000000  0.4460350000000 1.0
C      1  0.5242290000000  0.4726990000000  0.4964300000000 1.0
C      1  0.5202570000000  0.5153030000000  0.4941120000000 1.0
C      1  0.4604380000000  0.4009240000000  0.5224370000000 1.0
C      1  0.4524820000000  0.5954700000000  0.5249750000000 1.0
C      1  0.4794050000000  0.5239300000000  0.5074890000000 1.0
C      1  0.4786920000000  0.4735150000000  0.5137110000000 1.0
C      1  0.5770050000000  0.4149680000000  0.5035940000000 1.0
C      1  0.5836020000000  0.5780610000000  0.5037130000000 1.0
C      1  0.4637860000000  0.4357570000000  0.4989850000000 1.0
C      1  0.4574830000000  0.5755020000000  0.4978930000000 1.0
C      1  0.4910300000000  0.4443590000000  0.4191810000000 1.0
C      1  0.4946700000000  0.5484800000000  0.4197960000000 1.0
C      1  0.4428200000000  0.4878110000000  0.4703480000000 1.0
C      1  0.4491310000000  0.5161550000000  0.4543710000000 1.0
C      1  0.4527410000000  0.5243450000000  0.5262990000000 1.0
C      1  0.4631590000000  0.4672840000000  0.5433120000000 1.0
C      1  0.5407840000000  0.4653060000000  0.4195930000000 1.0
C      1  0.5427640000000  0.5367130000000  0.4238580000000 1.0
C      1  0.5271380000000  0.4067210000000  0.5370800000000 1.0
C      1  0.5280480000000  0.6000150000000  0.5344810000000 1.0
C      1  0.5882020000000  0.5436190000000  0.5063300000000 1.0
C      1  0.5986380000000  0.4438890000000  0.4994500000000 1.0
C      1  0.4651740000000  0.4481510000000  0.5868830000000 1.0
C      1  0.4598730000000  0.5431210000000  0.5669280000000 1.0
C      1  0.5894040000000  0.5526320000000  0.5400150000000 1.0
C      1  0.5869680000000  0.4435280000000  0.5439370000000 1.0
C      1  0.4504220000000  0.5886280000000  0.4671230000000 1.0
C      1  0.4518440000000  0.4154870000000  0.4744190000000 1.0
C      1  0.4584760000000  0.4875480000000  0.3915580000000 1.0
C      1  0.4636080000000  0.5203340000000  0.3990300000000 1.0
C      1  0.4688080000000  0.5244600000000  0.6009320000000 1.0
C      1  0.4746240000000  0.4918220000000  0.5997160000000 1.0
C      1  0.4873060000000  0.5366150000000  0.3823160000000 1.0
C      1  0.4866030000000  0.4720050000000  0.3832550000000 1.0
C      1  0.5374150000000  0.4424620000000  0.5226540000000 1.0
C      1  0.5164990000000  0.5470800000000  0.5295330000000 1.0
C      1  0.4369490000000  0.4869430000000  0.5342220000000 1.0
C      1  0.4229560000000  0.5139310000000  0.5389750000000 1.0
C      1  0.4515550000000  0.5721160000000  0.4197610000000 1.0
C      1  0.4473330000000  0.4468790000000  0.4323000000000 1.0
C      1  0.4807010000000  0.4345520000000  0.5284570000000 1.0
C      1  0.4715330000000  0.5595600000000  0.5244580000000 1.0
C      1  0.5651710000000  0.4428980000000  0.4273510000000 1.0
C      1  0.5682200000000  0.5567390000000  0.4342260000000 1.0
C      1  0.4314070000000  0.4750640000000  0.4204320000000 1.0
C      1  0.4128310000000  0.5233110000000  0.4199540000000 1.0
C      1  0.5359940000000  0.5123850000000  0.5829810000000 1.0
C      1  0.5482680000000  0.4856900000000  0.5942670000000 1.0
C      1  0.4826150000000  0.5555240000000  0.5973580000000 1.0
C      1  0.4957460000000  0.4464630000000  0.6004770000000 1.0
C      1  0.4757780000000  0.3909290000000  0.4765710000000 1.0
C      1  0.4716620000000  0.6095000000000  0.4823020000000 1.0
C      1  0.4244800000000  0.4597190000000  0.5497580000000 1.0
C      1  0.4157450000000  0.5524810000000  0.5457230000000 1.0
C      1  0.4965900000000  0.4641270000000  0.5498810000000 1.0
C      1  0.4793580000000  0.5161980000000  0.5466350000000 1.0
C      1  0.5093480000000  0.4873620000000  0.3862890000000 1.0
C      1  0.5033540000000  0.5156080000000  0.3987290000000 1.0
C      1  0.5887020000000  0.4851700000000  0.5361450000000 1.0
C      1  0.5897630000000  0.5193750000000  0.5380230000000 1.0
C      1  0.4438290000000  0.5851590000000  0.5779420000000 1.0
C      1  0.4470160000000  0.4075220000000  0.5737320000000 1.0
C      1  0.4585630000000  0.4780310000000  0.5752500000000 1.0
C      1  0.4509520000000  0.5113410000000  0.5751310000000 1.0
C      1  0.4011540000000  0.4863880000000  0.4732480000000 1.0
C      1  0.3939470000000  0.5188420000000  0.4804550000000 1.0
C      1  0.5229350000000  0.4410970000000  0.4090910000000 1.0
C      1  0.5224530000000  0.5612550000000  0.4119480000000 1.0
C      1  0.5642540000000  0.5607540000000  0.5614810000000 1.0
C      1  0.5732350000000  0.4348930000000  0.5683110000000 1.0
C      1  0.5680450000000  0.4538010000000  0.5224840000000 1.0
C      1  0.5573540000000  0.5546300000000  0.5288300000000 1.0
C      1  0.4897310000000  0.4188980000000  0.4631630000000 1.0
C      1  0.4902530000000  0.5878330000000  0.4638310000000 1.0
C      1  0.5228440000000  0.5862570000000  0.4262290000000 1.0
C      1  0.5184910000000  0.4162450000000  0.4252280000000 1.0
C      1  0.5202520000000  0.5175660000000  0.6191270000000 1.0
C      1  0.5196850000000  0.4895740000000  0.6216700000000 1.0
C      1  0.4652090000000  0.4571440000000  0.4052210000000 1.0
C      1  0.4679150000000  0.5541980000000  0.4035630000000 1.0
C      1  0.4384500000000  0.5552050000000  0.5265640000000 1.0
C      1  0.4433900000000  0.4416160000000  0.5326670000000 1.0
C      1  0.5637080000000  0.4852850000000  0.4318520000000 1.0
C      1  0.5646930000000  0.5123260000000  0.4328650000000 1.0
C      1  0.5123340000000  0.3941890000000  0.5132810000000 1.0
C      1  0.5048140000000  0.6027760000000  0.5188210000000 1.0
C      1  0.5516220000000  0.4508110000000  0.5750740000000 1.0
C      1  0.5353330000000  0.5606710000000  0.5793670000000 1.0
C      1  0.4879760000000  0.4102210000000  0.4243450000000 1.0
C      1  0.4985000000000  0.5992230000000  0.4265160000000 1.0
C      1  0.5387120000000  0.5388780000000  0.6006120000000 1.0
C      1  0.5367940000000  0.4630610000000  0.6101350000000 1.0
C      1  0.5736030000000  0.5274100000000  0.5666490000000 1.0
C      1  0.5772490000000  0.4936270000000  0.5652170000000 1.0
C      1  0.5131480000000  0.4823070000000  0.5700300000000 1.0
C      1  0.5070760000000  0.5140020000000  0.5651640000000 1.0
C      1  0.5317030000000  0.5555770000000  0.4502980000000 1.0
C      1  0.5291250000000  0.4451260000000  0.4638610000000 1.0
C      1  0.4758700000000  0.5864170000000  0.5834100000000 1.0
C      1  0.4873840000000  0.4235350000000  0.5768020000000 1.0
C      1  0.4360080000000  0.4198890000000  0.5105130000000 1.0
C      1  0.4251520000000  0.5785290000000  0.5072270000000 1.0
C      1  0.4890230000000  0.5485970000000  0.5502580000000 1.0
C      1  0.5119970000000  0.4368360000000  0.5415500000000 1.0
C      1  0.5441990000000  0.5866690000000  0.4526890000000 1.0
C      1  0.5338230000000  0.4140710000000  0.4533520000000 1.0
C      1  0.4967140000000  0.5168280000000  0.4320570000000 1.0
C      1  0.4863660000000  0.4865710000000  0.4370890000000 1.0
C      1  0.4257370000000  0.5667200000000  0.4753400000000 1.0
C      1  0.4274710000000  0.4380810000000  0.4830380000000 1.0
C      1  0.4005250000000  0.4425660000000  0.4479250000000 1.0
C      1  0.4283460000000  0.5614730000000  0.4299760000000 1.0
C      1  0.5267730000000  0.5886600000000  0.5602170000000 1.0
C      1  0.5184490000000  0.4117400000000  0.5695880000000 1.0
C      1  0.4804490000000  0.3908010000000  0.5065490000000 1.0
C      1  0.4761200000000  0.6089280000000  0.5094320000000 1.0
C      1  0.5659560000000  0.4433570000000  0.4900790000000 1.0
C      1  0.5588550000000  0.5564660000000  0.4949100000000 1.0
C      1  0.4281740000000  0.4601030000000  0.4571160000000 1.0
C      1  0.4251220000000  0.5402380000000  0.4539530000000 1.0
C      1  0.4029090000000  0.5168450000000  0.5143710000000 1.0
C      1  0.3912890000000  0.4878480000000  0.5053080000000 1.0
C      1  0.5438380000000  0.5271880000000  0.5258550000000 1.0
C      1  0.5354330000000  0.4759370000000  0.5283860000000 1.0
C      1  0.4418990000000  0.5197600000000  0.4943920000000 1.0
C      1  0.4359960000000  0.4875730000000  0.5036610000000 1.0
C      1  0.5007760000000  0.4494750000000  0.5054250000000 1.0
C      1  0.4895970000000  0.5522520000000  0.4965950000000 1.0
C      1  0.5052960000000  0.5170430000000  0.5246630000000 1.0
C      1  0.5054320000000  0.4871750000000  0.5296670000000 1.0
C      1  0.5010990000000  0.5811360000000  0.4952470000000 1.0
C      1  0.5045380000000  0.4201980000000  0.4936490000000 1.0
C      1  0.4960810000000  0.4843690000000  0.4865750000000 1.0
C      1  0.4912750000000  0.5137350000000  0.4806110000000 1.0
C      1  0.5687130000000  0.5899410000000  0.4754780000000 1.0
C      1  0.5589580000000  0.4070130000000  0.4751700000000 1.0
C      1  0.5988330000000  0.4819100000000  0.4506190000000 1.0
C      1  0.6005300000000  0.5069290000000  0.4535260000000 1.0
C      1  0.5199930000000  0.6041060000000  0.4662440000000 1.0
C      1  0.5079120000000  0.3901520000000  0.4636370000000 1.0
C      1  0.5456630000000  0.5101220000000  0.4739460000000 1.0
C      1  0.5399850000000  0.4770810000000  0.4666120000000 1.0
C      1  0.4398930000000  0.4317460000000  0.5850800000000 1.0
C      1  0.4371160000000  0.5585630000000  0.5783420000000 1.0
C      1  0.5681410000000  0.4344840000000  0.4573210000000 1.0
C      1  0.5604460000000  0.5504510000000  0.4658180000000 1.0
END
