TITL C-3289335-9438-202 0.00320319740891549 125000 -1002.28207736748 0 0 182 (C1) n - 1
REM
REM in /nfs/bkarasulu/CARBON/AIRSS/Generating-Clusters/AIREBO/with-SteepDescent/Higher-Symm/SD-CG/HFTN-CG
REM
REM
REM
REM
REM
REM ./C.cell (b20cbc046b6831c77cfcea5457e17084)
REM
REM compiler GCC version 9.2.1 20190827 (Red Hat 9.2.1-1)
REM options -cpp -mtune=generic -march=x86-64 -g -O0 -fpre-include=/usr/include/finclude/math-vector-fortran.h
REM seed 1996564723 -863005697 -881479300 -1675800485 959136508 736951785 1537589846 -1980730387 2019769783 -1482007363 457103728 -1160509288 -809799201 1525813936 1242227749 1428289953 -1719683541 1344401837 -1935512972 -402305133 1232015943 -1242681483 802771688 -1703382697 66068446 885188166 1565065167 1606877660 -1498674009 449837496 973644556 -1873858907 1629980202
REM
CELL 1.54180   50.00000   50.00000   50.00000   90.00000   90.00000   90.00000
LATT -1
SFAC C  
C      1  0.4070630000000  0.4538130000000  0.5237650000000 1.0
C      1  0.5845070000000  0.5291810000000  0.5332030000000 1.0
C      1  0.6081720000000  0.4593910000000  0.5393460000000 1.0
C      1  0.3829220000000  0.5012890000000  0.4396520000000 1.0
C      1  0.5124550000000  0.4270090000000  0.5119780000000 1.0
C      1  0.4892280000000  0.5662540000000  0.5796710000000 1.0
C      1  0.5226350000000  0.4767070000000  0.5859650000000 1.0
C      1  0.4685650000000  0.4629140000000  0.5757220000000 1.0
C      1  0.6125330000000  0.4947410000000  0.4884790000000 1.0
C      1  0.5085560000000  0.5219190000000  0.4619180000000 1.0
C      1  0.5090540000000  0.4099610000000  0.4225910000000 1.0
C      1  0.4841170000000  0.5660620000000  0.5049230000000 1.0
C      1  0.5384290000000  0.6044460000000  0.4311990000000 1.0
C      1  0.5653800000000  0.5405210000000  0.5788600000000 1.0
C      1  0.5799880000000  0.4252190000000  0.4968620000000 1.0
C      1  0.5143410000000  0.5472370000000  0.4033890000000 1.0
C      1  0.4169930000000  0.4791950000000  0.5412430000000 1.0
C      1  0.5491300000000  0.5239590000000  0.4333240000000 1.0
C      1  0.5534780000000  0.4130020000000  0.5143830000000 1.0
C      1  0.4762570000000  0.3970000000000  0.5324120000000 1.0
C      1  0.5067610000000  0.4566450000000  0.4367050000000 1.0
C      1  0.4949260000000  0.3835900000000  0.5126570000000 1.0
C      1  0.5314160000000  0.4973290000000  0.5057350000000 1.0
C      1  0.4154920000000  0.5332750000000  0.5483430000000 1.0
C      1  0.4618340000000  0.5993630000000  0.5045380000000 1.0
C      1  0.4663630000000  0.4433040000000  0.5119050000000 1.0
C      1  0.4919610000000  0.5434310000000  0.4824340000000 1.0
C      1  0.5702830000000  0.5029610000000  0.4173510000000 1.0
C      1  0.4913750000000  0.4946110000000  0.4679100000000 1.0
C      1  0.5278500000000  0.4137850000000  0.4638210000000 1.0
C      1  0.5393930000000  0.5904090000000  0.5290180000000 1.0
C      1  0.5323650000000  0.4102730000000  0.4908850000000 1.0
C      1  0.5419190000000  0.5754410000000  0.4688110000000 1.0
C      1  0.3836650000000  0.5424730000000  0.5159130000000 1.0
C      1  0.5782960000000  0.5795380000000  0.5085120000000 1.0
C      1  0.4047140000000  0.5579090000000  0.5293510000000 1.0
C      1  0.5110790000000  0.5617410000000  0.4639830000000 1.0
C      1  0.5768980000000  0.4291850000000  0.4629040000000 1.0
C      1  0.5865930000000  0.4817880000000  0.4915740000000 1.0
C      1  0.4339430000000  0.4380460000000  0.5108000000000 1.0
C      1  0.4952150000000  0.4287430000000  0.4853230000000 1.0
C      1  0.4485340000000  0.5830970000000  0.3892420000000 1.0
C      1  0.5712180000000  0.4545890000000  0.4836610000000 1.0
C      1  0.4339130000000  0.4470850000000  0.4276350000000 1.0
C      1  0.4834860000000  0.6107320000000  0.4545380000000 1.0
C      1  0.5120200000000  0.3947430000000  0.4479510000000 1.0
C      1  0.5236420000000  0.4583990000000  0.5052220000000 1.0
C      1  0.6172860000000  0.5545400000000  0.4824120000000 1.0
C      1  0.5443500000000  0.5545420000000  0.4008170000000 1.0
C      1  0.5643070000000  0.5790090000000  0.5312370000000 1.0
C      1  0.4894470000000  0.4041970000000  0.4692260000000 1.0
C      1  0.4405980000000  0.5206370000000  0.5291950000000 1.0
C      1  0.4534060000000  0.5193710000000  0.5777200000000 1.0
C      1  0.4695700000000  0.5497530000000  0.4303040000000 1.0
C      1  0.5866480000000  0.5218840000000  0.5815960000000 1.0
C      1  0.5326530000000  0.5056070000000  0.6009850000000 1.0
C      1  0.4808320000000  0.3825800000000  0.4874200000000 1.0
C      1  0.5595630000000  0.4615990000000  0.5712300000000 1.0
C      1  0.5007580000000  0.4826200000000  0.4983450000000 1.0
C      1  0.5493210000000  0.5780020000000  0.4366410000000 1.0
C      1  0.5671570000000  0.5518100000000  0.4247240000000 1.0
C      1  0.4101380000000  0.4759300000000  0.4984550000000 1.0
C      1  0.4861340000000  0.4997300000000  0.6111770000000 1.0
C      1  0.4986270000000  0.4526910000000  0.5879560000000 1.0
C      1  0.5578310000000  0.4868720000000  0.6017160000000 1.0
C      1  0.4317290000000  0.4291750000000  0.4718830000000 1.0
C      1  0.4217590000000  0.4579260000000  0.4566910000000 1.0
C      1  0.5272030000000  0.3901940000000  0.5160100000000 1.0
C      1  0.5263410000000  0.5100910000000  0.5617750000000 1.0
C      1  0.4194370000000  0.5775400000000  0.5156690000000 1.0
C      1  0.4609420000000  0.5114240000000  0.6094210000000 1.0
C      1  0.5627620000000  0.5064470000000  0.5458930000000 1.0
C      1  0.5030620000000  0.4814160000000  0.5442810000000 1.0
C      1  0.5663880000000  0.5539040000000  0.5479320000000 1.0
C      1  0.4894620000000  0.4282800000000  0.5661040000000 1.0
C      1  0.5311640000000  0.4447140000000  0.4517030000000 1.0
C      1  0.5510630000000  0.4555580000000  0.6035950000000 1.0
C      1  0.4332390000000  0.4488580000000  0.3974900000000 1.0
C      1  0.4048500000000  0.5038140000000  0.5351150000000 1.0
C      1  0.5289510000000  0.4375260000000  0.5907260000000 1.0
C      1  0.4954720000000  0.4562020000000  0.4775920000000 1.0
C      1  0.5029140000000  0.5297900000000  0.5179680000000 1.0
C      1  0.4751170000000  0.4751910000000  0.3967750000000 1.0
C      1  0.5843580000000  0.5009430000000  0.4429100000000 1.0
C      1  0.4858940000000  0.5532350000000  0.5328910000000 1.0
C      1  0.4518600000000  0.4596600000000  0.3844760000000 1.0
C      1  0.3963880000000  0.5013530000000  0.4887030000000 1.0
C      1  0.4981830000000  0.5976020000000  0.5456230000000 1.0
C      1  0.5627790000000  0.4429010000000  0.5277020000000 1.0
C      1  0.4425410000000  0.5423400000000  0.5626910000000 1.0
C      1  0.4992980000000  0.4583760000000  0.4067490000000 1.0
C      1  0.5005110000000  0.5381690000000  0.4331170000000 1.0
C      1  0.4403080000000  0.5387370000000  0.4436650000000 1.0
C      1  0.4788260000000  0.4142640000000  0.4385260000000 1.0
C      1  0.4419170000000  0.5938540000000  0.5244130000000 1.0
C      1  0.5715210000000  0.4926940000000  0.3925470000000 1.0
C      1  0.4905550000000  0.4724380000000  0.6144470000000 1.0
C      1  0.5545450000000  0.5172410000000  0.4639920000000 1.0
C      1  0.5585860000000  0.5344670000000  0.4897550000000 1.0
C      1  0.5227990000000  0.4251650000000  0.5443180000000 1.0
C      1  0.5408840000000  0.5365490000000  0.5931110000000 1.0
C      1  0.4453210000000  0.4190230000000  0.4419820000000 1.0
C      1  0.5637630000000  0.4355790000000  0.5577080000000 1.0
C      1  0.4610320000000  0.4717290000000  0.4936810000000 1.0
C      1  0.5346370000000  0.5279430000000  0.5110130000000 1.0
C      1  0.4362820000000  0.4309990000000  0.5497450000000 1.0
C      1  0.5077910000000  0.4530640000000  0.5414970000000 1.0
C      1  0.4529100000000  0.5866480000000  0.5498350000000 1.0
C      1  0.5105400000000  0.5160650000000  0.4016390000000 1.0
C      1  0.4881800000000  0.4862020000000  0.5691500000000 1.0
C      1  0.5742720000000  0.4938470000000  0.5176160000000 1.0
C      1  0.6087690000000  0.5250560000000  0.4786370000000 1.0
C      1  0.4651350000000  0.4928020000000  0.4496260000000 1.0
C      1  0.5216130000000  0.5828080000000  0.5487120000000 1.0
C      1  0.5760400000000  0.4907490000000  0.5729790000000 1.0
C      1  0.4786860000000  0.4448080000000  0.4518120000000 1.0
C      1  0.4794500000000  0.5895140000000  0.5645860000000 1.0
C      1  0.4964920000000  0.5723790000000  0.4112630000000 1.0
C      1  0.4330360000000  0.4967030000000  0.5071720000000 1.0
C      1  0.5845450000000  0.5221670000000  0.5016890000000 1.0
C      1  0.4542900000000  0.5344910000000  0.4700170000000 1.0
C      1  0.4522690000000  0.3802440000000  0.4860010000000 1.0
C      1  0.5196890000000  0.5524410000000  0.5855350000000 1.0
C      1  0.5019620000000  0.5887610000000  0.4360150000000 1.0
C      1  0.4602600000000  0.5274920000000  0.4065580000000 1.0
C      1  0.4435360000000  0.5350230000000  0.5022690000000 1.0
C      1  0.3966690000000  0.5337710000000  0.5717880000000 1.0
C      1  0.5477390000000  0.4734530000000  0.5236340000000 1.0
C      1  0.4132420000000  0.5376490000000  0.4527250000000 1.0
C      1  0.4445650000000  0.4118950000000  0.5691450000000 1.0
C      1  0.4924200000000  0.5963340000000  0.5139160000000 1.0
C      1  0.4229820000000  0.5706850000000  0.4884670000000 1.0
C      1  0.4714520000000  0.4045710000000  0.5638550000000 1.0
C      1  0.4797650000000  0.5712000000000  0.4546400000000 1.0
C      1  0.5356540000000  0.4226680000000  0.4186940000000 1.0
C      1  0.5026810000000  0.5110890000000  0.5858690000000 1.0
C      1  0.4411870000000  0.4698110000000  0.5908590000000 1.0
C      1  0.5232000000000  0.5054180000000  0.4242510000000 1.0
C      1  0.4370790000000  0.4026130000000  0.4926690000000 1.0
C      1  0.5301310000000  0.6018410000000  0.4806500000000 1.0
C      1  0.5353800000000  0.4786820000000  0.5545050000000 1.0
C      1  0.4673730000000  0.5717880000000  0.4044980000000 1.0
C      1  0.6039200000000  0.4829400000000  0.5543630000000 1.0
C      1  0.4462710000000  0.4110180000000  0.5240970000000 1.0
C      1  0.5943770000000  0.4449940000000  0.5207090000000 1.0
C      1  0.4849370000000  0.4296220000000  0.5323230000000 1.0
C      1  0.4574750000000  0.4642880000000  0.4400960000000 1.0
C      1  0.5388440000000  0.4242040000000  0.5667990000000 1.0
C      1  0.4784460000000  0.5165280000000  0.4983930000000 1.0
C      1  0.4559200000000  0.5639670000000  0.4869030000000 1.0
C      1  0.4020530000000  0.5096640000000  0.4583600000000 1.0
C      1  0.4838300000000  0.5071140000000  0.3938900000000 1.0
C      1  0.4375050000000  0.4961200000000  0.5955990000000 1.0
C      1  0.4442650000000  0.4618240000000  0.5519030000000 1.0
C      1  0.5577410000000  0.4268540000000  0.4420600000000 1.0
C      1  0.4582940000000  0.4426290000000  0.4789400000000 1.0
C      1  0.4605610000000  0.5579880000000  0.5492480000000 1.0
C      1  0.5235830000000  0.6014780000000  0.5075900000000 1.0
C      1  0.4832720000000  0.4956310000000  0.5244910000000 1.0
C      1  0.5139410000000  0.5514260000000  0.5520390000000 1.0
C      1  0.4067630000000  0.5604630000000  0.4680240000000 1.0
C      1  0.5305800000000  0.4984340000000  0.4729900000000 1.0
C      1  0.4630850000000  0.5938150000000  0.4722750000000 1.0
C      1  0.4074020000000  0.4427420000000  0.4913930000000 1.0
C      1  0.4891250000000  0.5341090000000  0.5675870000000 1.0
C      1  0.5639220000000  0.5633420000000  0.4837390000000 1.0
C      1  0.5406290000000  0.5322960000000  0.5431420000000 1.0
C      1  0.5959970000000  0.5447100000000  0.4331480000000 1.0
C      1  0.5406140000000  0.4646570000000  0.4763310000000 1.0
C      1  0.5301330000000  0.5509590000000  0.4397980000000 1.0
C      1  0.4265570000000  0.4887310000000  0.4644380000000 1.0
C      1  0.5683730000000  0.4881110000000  0.4657120000000 1.0
C      1  0.4540210000000  0.4783800000000  0.5261930000000 1.0
C      1  0.3900890000000  0.5149470000000  0.5120670000000 1.0
C      1  0.5970430000000  0.5715720000000  0.4856870000000 1.0
C      1  0.6029120000000  0.5142610000000  0.5553500000000 1.0
C      1  0.5170100000000  0.6128250000000  0.4547400000000 1.0
C      1  0.4535800000000  0.5020640000000  0.4802390000000 1.0
C      1  0.5996640000000  0.5231080000000  0.4495270000000 1.0
C      1  0.4642990000000  0.4976930000000  0.4195650000000 1.0
C      1  0.4685280000000  0.5161720000000  0.5473130000000 1.0
C      1  0.5112270000000  0.4866090000000  0.4430160000000 1.0
END
