TITL C-3289330-4660-33 -0.00100653229507302 125000 -393.635635265576 0 0 73 (C1) n - 1
REM
REM in /nfs/bkarasulu/CARBON/AIRSS/Generating-Clusters/AIREBO/with-SteepDescent/Higher-Symm/SD-CG/HFTN-CG
REM
REM
REM
REM
REM
REM ./C.cell (b20cbc046b6831c77cfcea5457e17084)
REM
REM compiler GCC version 9.2.1 20190827 (Red Hat 9.2.1-1)
REM options -cpp -mtune=generic -march=x86-64 -g -O0 -fpre-include=/usr/include/finclude/math-vector-fortran.h
REM seed 313775182 2010433561 158397886 1242148146 676162881 230761270 -1272919159 1058996438 -368820934 -1845994337 587831414 239555653 -1702537240 -1576322145 481275538 681938685 1090405576 1393731064 1883352378 1520712868 -2062966466 -452133415 -1037815091 -200603018 -321895682 2101094212 139982076 2124902251 742556724 -1056046018 -30091245 831311138 -425207257
REM
CELL 1.54180   50.00000   50.00000   50.00000   90.00000   90.00000   90.00000
LATT -1
SFAC C  
C      1  0.4837070000000  0.5273760000000  0.5472630000000 1.0
C      1  0.5127760000000  0.5325640000000  0.5526870000000 1.0
C      1  0.5399280000000  0.5132210000000  0.5454340000000 1.0
C      1  0.5183890000000  0.4872720000000  0.5410880000000 1.0
C      1  0.5182370000000  0.4597100000000  0.5257790000000 1.0
C      1  0.4745750000000  0.4782110000000  0.5607600000000 1.0
C      1  0.4660910000000  0.5013610000000  0.5451060000000 1.0
C      1  0.5133950000000  0.5579850000000  0.4669960000000 1.0
C      1  0.5620070000000  0.5331400000000  0.4719690000000 1.0
C      1  0.5649210000000  0.4760720000000  0.4707770000000 1.0
C      1  0.4895230000000  0.4341850000000  0.4638520000000 1.0
C      1  0.4405480000000  0.4538190000000  0.4780890000000 1.0
C      1  0.4269530000000  0.5055990000000  0.4723130000000 1.0
C      1  0.4619490000000  0.5461170000000  0.4666410000000 1.0
C      1  0.4914220000000  0.4628190000000  0.4497120000000 1.0
C      1  0.4755760000000  0.4879040000000  0.4646200000000 1.0
C      1  0.4835830000000  0.5197770000000  0.4657700000000 1.0
C      1  0.5092730000000  0.5334380000000  0.4482570000000 1.0
C      1  0.5341000000000  0.5131350000000  0.4514680000000 1.0
C      1  0.5442710000000  0.4818700000000  0.4497900000000 1.0
C      1  0.5156720000000  0.4792600000000  0.4618290000000 1.0
C      1  0.4561580000000  0.5468190000000  0.4996880000000 1.0
C      1  0.5076270000000  0.5525470000000  0.4976480000000 1.0
C      1  0.5623190000000  0.5368680000000  0.5037720000000 1.0
C      1  0.5664630000000  0.4714850000000  0.5044910000000 1.0
C      1  0.5159750000000  0.4358660000000  0.4825170000000 1.0
C      1  0.4541460000000  0.4597730000000  0.5087370000000 1.0
C      1  0.4328600000000  0.4970050000000  0.5013930000000 1.0
C      1  0.5753180000000  0.5044990000000  0.4845680000000 1.0
C      1  0.5643700000000  0.4437710000000  0.4758250000000 1.0
C      1  0.4636400000000  0.4336090000000  0.4805870000000 1.0
C      1  0.4181980000000  0.4727320000000  0.4741090000000 1.0
C      1  0.4296910000000  0.5356700000000  0.4725200000000 1.0
C      1  0.4826520000000  0.5720160000000  0.4742040000000 1.0
C      1  0.5422720000000  0.5600210000000  0.4792300000000 1.0
C      1  0.5117940000000  0.4663950000000  0.4930710000000 1.0
C      1  0.4797260000000  0.4776360000000  0.4952010000000 1.0
C      1  0.4608920000000  0.4987870000000  0.5116040000000 1.0
C      1  0.4710860000000  0.5277420000000  0.5156710000000 1.0
C      1  0.4997990000000  0.5288710000000  0.5083570000000 1.0
C      1  0.5475530000000  0.5156710000000  0.5137030000000 1.0
C      1  0.5383970000000  0.4867250000000  0.4990650000000 1.0
C      1  0.4618820000000  0.4267060000000  0.5104420000000 1.0
C      1  0.4157980000000  0.4709170000000  0.5078080000000 1.0
C      1  0.4256410000000  0.5467010000000  0.5044270000000 1.0
C      1  0.4902380000000  0.5751280000000  0.5072070000000 1.0
C      1  0.5506320000000  0.5644640000000  0.5107990000000 1.0
C      1  0.5835640000000  0.4987220000000  0.5155260000000 1.0
C      1  0.5443440000000  0.4350560000000  0.4927110000000 1.0
C      1  0.4888270000000  0.5419510000000  0.4253090000000 1.0
C      1  0.5597100000000  0.5296130000000  0.4402430000000 1.0
C      1  0.5494250000000  0.4711760000000  0.4220210000000 1.0
C      1  0.4909530000000  0.4124760000000  0.4457560000000 1.0
C      1  0.4880460000000  0.4626280000000  0.4195750000000 1.0
C      1  0.4481890000000  0.4895850000000  0.4540700000000 1.0
C      1  0.4658840000000  0.5496110000000  0.4338240000000 1.0
C      1  0.5637390000000  0.4657400000000  0.5445920000000 1.0
C      1  0.5002270000000  0.4382830000000  0.5382670000000 1.0
C      1  0.4583870000000  0.4572920000000  0.5502740000000 1.0
C      1  0.4351650000000  0.5089120000000  0.5404210000000 1.0
C      1  0.4624510000000  0.5536210000000  0.5446250000000 1.0
C      1  0.5148480000000  0.5613220000000  0.5467860000000 1.0
C      1  0.5562560000000  0.5420530000000  0.5530940000000 1.0
C      1  0.4371740000000  0.5386880000000  0.5338360000000 1.0
C      1  0.4883290000000  0.5708420000000  0.5360000000000 1.0
C      1  0.5432510000000  0.5647380000000  0.5388670000000 1.0
C      1  0.5670700000000  0.4931300000000  0.5413450000000 1.0
C      1  0.5471190000000  0.4497160000000  0.5210480000000 1.0
C      1  0.4723320000000  0.4373050000000  0.5363580000000 1.0
C      1  0.4370240000000  0.4752370000000  0.5340200000000 1.0
C      1  0.5113530000000  0.5065530000000  0.4775170000000 1.0
C      1  0.5011200000000  0.4793610000000  0.5658530000000 1.0
C      1  0.5107030000000  0.5017390000000  0.5112100000000 1.0
END
