TITL C-3289334-2237-158 -3.7414839302662 125000 -275.610958848032 0 0 52 (C1) n - 1
REM
REM in /nfs/bkarasulu/CARBON/AIRSS/Generating-Clusters/AIREBO/with-SteepDescent/Higher-Symm/SD-CG/HFTN-CG
REM
REM
REM
REM
REM
REM ./C.cell (b20cbc046b6831c77cfcea5457e17084)
REM
REM compiler GCC version 9.2.1 20190827 (Red Hat 9.2.1-1)
REM options -cpp -mtune=generic -march=x86-64 -g -O0 -fpre-include=/usr/include/finclude/math-vector-fortran.h
REM seed 947621751 238950861 1982717795 836538117 337117441 -829414875 -1594713749 1233920318 -14541752 1323932060 2001216170 -1160758929 895930984 -1357460776 1047729176 205711107 -898844813 -767426230 1671418671 -578206781 1229352889 -132141340 -1959112418 909627287 -2050236684 1184680575 -2040495591 1321164014 360660382 1892885677 936315510 1449117142 -1979172482
REM
CELL 1.54180   50.00000   50.00000   50.00000   90.00000   90.00000   90.00000
LATT -1
SFAC C  
C      1  0.4975940000000  0.5211600000000  0.5302780000000 1.0
C      1  0.4969950000000  0.4787970000000  0.4640570000000 1.0
C      1  0.5357890000000  0.5136310000000  0.5641850000000 1.0
C      1  0.4666100000000  0.4830970000000  0.4338550000000 1.0
C      1  0.5304780000000  0.5422720000000  0.5142180000000 1.0
C      1  0.4672350000000  0.4530050000000  0.4836040000000 1.0
C      1  0.5283490000000  0.5534390000000  0.4652100000000 1.0
C      1  0.4723310000000  0.4523450000000  0.5353350000000 1.0
C      1  0.5377330000000  0.5267990000000  0.4579410000000 1.0
C      1  0.4607310000000  0.4807410000000  0.5453310000000 1.0
C      1  0.5041430000000  0.4501440000000  0.4472000000000 1.0
C      1  0.4954420000000  0.5469910000000  0.5522830000000 1.0
C      1  0.4144070000000  0.4054150000000  0.4690930000000 1.0
C      1  0.5838770000000  0.5834360000000  0.5412000000000 1.0
C      1  0.5157180000000  0.5057310000000  0.4730220000000 1.0
C      1  0.4837680000000  0.4910010000000  0.5228310000000 1.0
C      1  0.5490760000000  0.4721550000000  0.4676150000000 1.0
C      1  0.4494040000000  0.5378510000000  0.5331880000000 1.0
C      1  0.4495030000000  0.5037470000000  0.4425650000000 1.0
C      1  0.5541970000000  0.4931540000000  0.5549950000000 1.0
C      1  0.4522320000000  0.4346650000000  0.5239670000000 1.0
C      1  0.5468290000000  0.5696990000000  0.4800150000000 1.0
C      1  0.5068360000000  0.4807560000000  0.5458440000000 1.0
C      1  0.4967110000000  0.5159840000000  0.4467560000000 1.0
C      1  0.5138390000000  0.5314000000000  0.4952510000000 1.0
C      1  0.4847060000000  0.4659390000000  0.4998730000000 1.0
C      1  0.4741030000000  0.5488330000000  0.4793880000000 1.0
C      1  0.5262910000000  0.4557620000000  0.5205760000000 1.0
C      1  0.4412960000000  0.5181640000000  0.4998150000000 1.0
C      1  0.5636450000000  0.4856880000000  0.5018730000000 1.0
C      1  0.4735450000000  0.4979960000000  0.4738520000000 1.0
C      1  0.5224650000000  0.5003370000000  0.5228550000000 1.0
C      1  0.4608930000000  0.4980570000000  0.4987580000000 1.0
C      1  0.5361720000000  0.4984520000000  0.4991900000000 1.0
C      1  0.4684090000000  0.5265890000000  0.4591490000000 1.0
C      1  0.5393840000000  0.4711030000000  0.5439310000000 1.0
C      1  0.4547960000000  0.5462980000000  0.5015120000000 1.0
C      1  0.5442470000000  0.4594300000000  0.4972430000000 1.0
C      1  0.5603820000000  0.5901850000000  0.4691090000000 1.0
C      1  0.4369910000000  0.4188840000000  0.5396020000000 1.0
C      1  0.4523470000000  0.5100050000000  0.5386060000000 1.0
C      1  0.5518490000000  0.4984940000000  0.4578590000000 1.0
C      1  0.5674790000000  0.5720870000000  0.5241930000000 1.0
C      1  0.4307820000000  0.4210840000000  0.4822580000000 1.0
C      1  0.5483910000000  0.5620460000000  0.5069630000000 1.0
C      1  0.4498910000000  0.4356110000000  0.4959010000000 1.0
C      1  0.5127320000000  0.4985070000000  0.5732090000000 1.0
C      1  0.4913520000000  0.4967470000000  0.4272740000000 1.0
C      1  0.4717360000000  0.4585920000000  0.4535760000000 1.0
C      1  0.5258900000000  0.5340170000000  0.5440660000000 1.0
C      1  0.4998950000000  0.5588160000000  0.4696910000000 1.0
C      1  0.5005040000000  0.4448620000000  0.5298400000000 1.0
END
