TITL C-3289333-7213-110 -0.00229150831830595 125000 -959.879417004691 0 0 180 (C1) n - 1
REM
REM in /nfs/bkarasulu/CARBON/AIRSS/Generating-Clusters/AIREBO/with-SteepDescent/Higher-Symm/SD-CG/HFTN-CG
REM
REM
REM
REM
REM
REM ./C.cell (b20cbc046b6831c77cfcea5457e17084)
REM
REM compiler GCC version 9.2.1 20190827 (Red Hat 9.2.1-1)
REM options -cpp -mtune=generic -march=x86-64 -g -O0 -fpre-include=/usr/include/finclude/math-vector-fortran.h
REM seed 337988985 183933827 27635663 1617632117 -1184604787 1823528589 1172849769 -788891084 1693528988 1843575944 -1928515148 1119244120 -1681061183 -1621532717 -364898184 141962483 -654391070 1011353826 -2112670399 -155398627 114445819 40081010 1983998752 -464806359 -693156388 -1949299212 1894556246 -261468716 -1884168908 1812431827 1951021358 1386165842 892113968
REM
CELL 1.54180   50.00000   50.00000   50.00000   90.00000   90.00000   90.00000
LATT -1
SFAC C  
C      1  0.4669320000000  0.5542100000000  0.4103410000000 1.0
C      1  0.5212490000000  0.5604060000000  0.3991410000000 1.0
C      1  0.5600680000000  0.4964840000000  0.5828090000000 1.0
C      1  0.4343030000000  0.5134520000000  0.5913820000000 1.0
C      1  0.4245940000000  0.5703430000000  0.5154930000000 1.0
C      1  0.5747580000000  0.5759940000000  0.5061580000000 1.0
C      1  0.5324910000000  0.5467980000000  0.4639530000000 1.0
C      1  0.4532570000000  0.5399040000000  0.4606260000000 1.0
C      1  0.5326300000000  0.4125120000000  0.5260300000000 1.0
C      1  0.4683210000000  0.4194640000000  0.5322010000000 1.0
C      1  0.5178640000000  0.4885010000000  0.5725380000000 1.0
C      1  0.4631990000000  0.4859050000000  0.5801860000000 1.0
C      1  0.5466340000000  0.4584420000000  0.4059390000000 1.0
C      1  0.4661790000000  0.4528020000000  0.4125060000000 1.0
C      1  0.5705470000000  0.5583110000000  0.4605370000000 1.0
C      1  0.4178880000000  0.5748210000000  0.4728970000000 1.0
C      1  0.5584420000000  0.4534440000000  0.4364190000000 1.0
C      1  0.4412730000000  0.4486300000000  0.4435180000000 1.0
C      1  0.4231040000000  0.4452750000000  0.5167600000000 1.0
C      1  0.5796270000000  0.4427130000000  0.5140370000000 1.0
C      1  0.4476430000000  0.4234800000000  0.5107740000000 1.0
C      1  0.5546140000000  0.4221350000000  0.5075980000000 1.0
C      1  0.5255280000000  0.5291640000000  0.4133820000000 1.0
C      1  0.4783290000000  0.5236750000000  0.4167630000000 1.0
C      1  0.5335020000000  0.5313250000000  0.5523160000000 1.0
C      1  0.4714590000000  0.5222860000000  0.5500260000000 1.0
C      1  0.4613630000000  0.5107100000000  0.4659020000000 1.0
C      1  0.5425250000000  0.5162020000000  0.4635220000000 1.0
C      1  0.4578830000000  0.4439900000000  0.4891760000000 1.0
C      1  0.5459940000000  0.4460160000000  0.4880740000000 1.0
C      1  0.5606270000000  0.5677830000000  0.5582830000000 1.0
C      1  0.4587300000000  0.5750460000000  0.5553460000000 1.0
C      1  0.5484780000000  0.4754480000000  0.4971510000000 1.0
C      1  0.4520190000000  0.4740170000000  0.4973130000000 1.0
C      1  0.4205930000000  0.5447310000000  0.4381200000000 1.0
C      1  0.5471160000000  0.5552120000000  0.4167720000000 1.0
C      1  0.4603550000000  0.5519360000000  0.5070010000000 1.0
C      1  0.5364210000000  0.5595910000000  0.5062980000000 1.0
C      1  0.5505220000000  0.4204160000000  0.4381120000000 1.0
C      1  0.4614780000000  0.4267170000000  0.4305230000000 1.0
C      1  0.4247200000000  0.5123530000000  0.5296690000000 1.0
C      1  0.5735000000000  0.5117760000000  0.5305550000000 1.0
C      1  0.4640540000000  0.4545800000000  0.5507670000000 1.0
C      1  0.5189850000000  0.4492220000000  0.5422900000000 1.0
C      1  0.5682570000000  0.5592750000000  0.5314880000000 1.0
C      1  0.4375360000000  0.5606320000000  0.5386450000000 1.0
C      1  0.5880020000000  0.5460190000000  0.4969800000000 1.0
C      1  0.4107390000000  0.5447750000000  0.4978250000000 1.0
C      1  0.4415920000000  0.5422600000000  0.5992340000000 1.0
C      1  0.5747490000000  0.5172770000000  0.5717100000000 1.0
C      1  0.5322160000000  0.5081530000000  0.5951350000000 1.0
C      1  0.4681570000000  0.5135310000000  0.5932770000000 1.0
C      1  0.4114350000000  0.4853700000000  0.4738730000000 1.0
C      1  0.5919420000000  0.4840780000000  0.4740560000000 1.0
C      1  0.4407110000000  0.5521780000000  0.4839620000000 1.0
C      1  0.5569080000000  0.5461220000000  0.4866830000000 1.0
C      1  0.4235290000000  0.4902770000000  0.5812410000000 1.0
C      1  0.5676970000000  0.4661700000000  0.5723890000000 1.0
C      1  0.5464600000000  0.5687080000000  0.4434780000000 1.0
C      1  0.4482450000000  0.5584180000000  0.4325500000000 1.0
C      1  0.4041460000000  0.5625500000000  0.4512710000000 1.0
C      1  0.5912450000000  0.5437140000000  0.4499690000000 1.0
C      1  0.3774530000000  0.5019490000000  0.5100070000000 1.0
C      1  0.6115670000000  0.5030300000000  0.5223720000000 1.0
C      1  0.5850800000000  0.4514070000000  0.4815420000000 1.0
C      1  0.4152190000000  0.4531740000000  0.4846420000000 1.0
C      1  0.4562600000000  0.4936830000000  0.5510270000000 1.0
C      1  0.5356810000000  0.5001310000000  0.5463490000000 1.0
C      1  0.5877070000000  0.5119650000000  0.4457310000000 1.0
C      1  0.4225790000000  0.5152230000000  0.4469650000000 1.0
C      1  0.5628740000000  0.4851800000000  0.5446550000000 1.0
C      1  0.4236430000000  0.4897670000000  0.5502570000000 1.0
C      1  0.5296550000000  0.4760990000000  0.5243530000000 1.0
C      1  0.4664000000000  0.4764090000000  0.5263400000000 1.0
C      1  0.4214000000000  0.5172130000000  0.4808930000000 1.0
C      1  0.5843800000000  0.5172500000000  0.4791550000000 1.0
C      1  0.5579220000000  0.4088590000000  0.4773900000000 1.0
C      1  0.4387060000000  0.4101900000000  0.4810390000000 1.0
C      1  0.4696690000000  0.4663120000000  0.4498010000000 1.0
C      1  0.5333630000000  0.4728960000000  0.4486180000000 1.0
C      1  0.4685450000000  0.4975760000000  0.4362480000000 1.0
C      1  0.5338240000000  0.5035860000000  0.4341960000000 1.0
C      1  0.4736610000000  0.5418960000000  0.6112020000000 1.0
C      1  0.5406210000000  0.5392540000000  0.6015690000000 1.0
C      1  0.5652090000000  0.5042590000000  0.4211130000000 1.0
C      1  0.4373560000000  0.4959840000000  0.4227640000000 1.0
C      1  0.4665070000000  0.5575450000000  0.5818400000000 1.0
C      1  0.5550280000000  0.5417160000000  0.5740200000000 1.0
C      1  0.5232120000000  0.5881010000000  0.4591200000000 1.0
C      1  0.4622410000000  0.5811060000000  0.4518000000000 1.0
C      1  0.4455210000000  0.5900460000000  0.4722380000000 1.0
C      1  0.5230890000000  0.5859700000000  0.4902990000000 1.0
C      1  0.5728280000000  0.4345520000000  0.4607760000000 1.0
C      1  0.4272630000000  0.4331890000000  0.4660410000000 1.0
C      1  0.5331230000000  0.4357730000000  0.4629630000000 1.0
C      1  0.4692870000000  0.4287680000000  0.4635550000000 1.0
C      1  0.4780650000000  0.4875150000000  0.4843280000000 1.0
C      1  0.5245710000000  0.4958580000000  0.4851080000000 1.0
C      1  0.3909950000000  0.4524680000000  0.5080630000000 1.0
C      1  0.6096590000000  0.4546590000000  0.5039180000000 1.0
C      1  0.4392810000000  0.4645030000000  0.5882810000000 1.0
C      1  0.5344150000000  0.4596310000000  0.5700250000000 1.0
C      1  0.3869260000000  0.4807640000000  0.4969840000000 1.0
C      1  0.6109320000000  0.4849830000000  0.5022540000000 1.0
C      1  0.4706050000000  0.4012110000000  0.4812820000000 1.0
C      1  0.5245330000000  0.4041420000000  0.4720040000000 1.0
C      1  0.4437050000000  0.4819340000000  0.4652320000000 1.0
C      1  0.5588200000000  0.4865280000000  0.4667110000000 1.0
C      1  0.5361340000000  0.5846970000000  0.5493810000000 1.0
C      1  0.4685890000000  0.5801310000000  0.5228520000000 1.0
C      1  0.5986420000000  0.5330160000000  0.5219920000000 1.0
C      1  0.3993520000000  0.5247310000000  0.5189390000000 1.0
C      1  0.4033460000000  0.4876330000000  0.4419710000000 1.0
C      1  0.6082620000000  0.4849320000000  0.4454260000000 1.0
C      1  0.4221200000000  0.4661400000000  0.4285340000000 1.0
C      1  0.5812850000000  0.4756770000000  0.4301090000000 1.0
C      1  0.5259130000000  0.5142490000000  0.5102010000000 1.0
C      1  0.4732980000000  0.5124210000000  0.5039580000000 1.0
C      1  0.4582450000000  0.4776310000000  0.4031790000000 1.0
C      1  0.5515510000000  0.4853880000000  0.3963470000000 1.0
C      1  0.5436000000000  0.4116720000000  0.5552220000000 1.0
C      1  0.4565370000000  0.4161120000000  0.5575090000000 1.0
C      1  0.4324830000000  0.4611600000000  0.5399760000000 1.0
C      1  0.5737960000000  0.4551100000000  0.5407120000000 1.0
C      1  0.5282840000000  0.4968040000000  0.3827910000000 1.0
C      1  0.4774490000000  0.4915350000000  0.3881710000000 1.0
C      1  0.4409130000000  0.5056710000000  0.5038330000000 1.0
C      1  0.5697370000000  0.5003070000000  0.5026210000000 1.0
C      1  0.4436820000000  0.5878750000000  0.5017620000000 1.0
C      1  0.5449610000000  0.5893160000000  0.5168620000000 1.0
C      1  0.4239120000000  0.5093390000000  0.3988840000000 1.0
C      1  0.5668180000000  0.5343210000000  0.4075020000000 1.0
C      1  0.4432680000000  0.4405840000000  0.5721330000000 1.0
C      1  0.5497850000000  0.4305990000000  0.5705720000000 1.0
C      1  0.5992140000000  0.5125790000000  0.5527980000000 1.0
C      1  0.3661200000000  0.5265200000000  0.5260590000000 1.0
C      1  0.4489750000000  0.5326600000000  0.5321870000000 1.0
C      1  0.5487370000000  0.5330040000000  0.5235500000000 1.0
C      1  0.4920310000000  0.5485080000000  0.3888280000000 1.0
C      1  0.5027630000000  0.4018790000000  0.5501680000000 1.0
C      1  0.5024380000000  0.4680630000000  0.4589730000000 1.0
C      1  0.5003800000000  0.5566470000000  0.5186320000000 1.0
C      1  0.4934260000000  0.5791170000000  0.4453710000000 1.0
C      1  0.5011550000000  0.5215160000000  0.5911400000000 1.0
C      1  0.5118380000000  0.5832100000000  0.5703410000000 1.0
C      1  0.4962630000000  0.4457370000000  0.4266470000000 1.0
C      1  0.4974150000000  0.4107880000000  0.5762840000000 1.0
C      1  0.5005870000000  0.4341180000000  0.4583270000000 1.0
C      1  0.5028640000000  0.4351070000000  0.4922850000000 1.0
C      1  0.5065120000000  0.4037420000000  0.4439040000000 1.0
C      1  0.4904490000000  0.4737740000000  0.5829710000000 1.0
C      1  0.5015300000000  0.5386720000000  0.5474710000000 1.0
C      1  0.5140270000000  0.6049070000000  0.5368340000000 1.0
C      1  0.5000090000000  0.4012500000000  0.4937430000000 1.0
C      1  0.4927100000000  0.5154530000000  0.6235140000000 1.0
C      1  0.5003720000000  0.4790250000000  0.4209360000000 1.0
C      1  0.4815880000000  0.5404740000000  0.4451230000000 1.0
C      1  0.5103270000000  0.3874960000000  0.5203020000000 1.0
C      1  0.4952750000000  0.4361560000000  0.5934740000000 1.0
C      1  0.4945100000000  0.5721820000000  0.4145640000000 1.0
C      1  0.5031800000000  0.5544190000000  0.4647840000000 1.0
C      1  0.4958690000000  0.4986290000000  0.5491400000000 1.0
C      1  0.5012450000000  0.4256200000000  0.5254110000000 1.0
C      1  0.5050740000000  0.4757790000000  0.3874170000000 1.0
C      1  0.5104120000000  0.6296510000000  0.5437500000000 1.0
C      1  0.5054730000000  0.6042320000000  0.5847490000000 1.0
C      1  0.5010620000000  0.5046750000000  0.4432510000000 1.0
C      1  0.4927650000000  0.4487650000000  0.5619840000000 1.0
C      1  0.5000740000000  0.5890970000000  0.5151640000000 1.0
C      1  0.4985910000000  0.5528740000000  0.5782230000000 1.0
C      1  0.5192550000000  0.4503700000000  0.4026480000000 1.0
C      1  0.5192170000000  0.5564660000000  0.6050150000000 1.0
C      1  0.4939320000000  0.4880830000000  0.6298190000000 1.0
C      1  0.4960530000000  0.4642050000000  0.6127640000000 1.0
C      1  0.4991070000000  0.5162850000000  0.5219940000000 1.0
C      1  0.5017140000000  0.5150610000000  0.3936250000000 1.0
C      1  0.4967400000000  0.4765520000000  0.5244760000000 1.0
C      1  0.4882190000000  0.5399040000000  0.4916490000000 1.0
C      1  0.5020740000000  0.5158100000000  0.4720390000000 1.0
C      1  0.5043640000000  0.4693950000000  0.4921220000000 1.0
END
