TITL C-3289326-3776-93 0.00188915768926812 125000 -221.326358541811 0 0 40 (C1) n - 1
REM
REM in /nfs/bkarasulu/CARBON/AIRSS/Generating-Clusters/AIREBO/with-SteepDescent/Higher-Symm/SD-CG/HFTN-CG
REM
REM
REM
REM
REM
REM ./C.cell (b20cbc046b6831c77cfcea5457e17084)
REM
REM compiler GCC version 9.2.1 20190827 (Red Hat 9.2.1-1)
REM options -cpp -mtune=generic -march=x86-64 -g -O0 -fpre-include=/usr/include/finclude/math-vector-fortran.h
REM seed -1471604948 1867091519 324428920 -2031202432 -575352565 -180901502 -103746419 1586240319 895106028 -614878193 1982707373 1532143450 -67566899 1403976215 -1801747639 2035060798 1390475411 -191711488 -1427609062 1858525483 479045340 1118227784 -845440703 505616420 1077193649 2050662739 1475338596 2092678323 1886913545 -1198875269 2045199345 -2038137145 141700111
REM
CELL 1.54180   50.00000   50.00000   50.00000   90.00000   90.00000   90.00000
LATT -1
SFAC C  
C      1  0.5281860000000  0.4663020000000  0.5523780000000 1.0
C      1  0.4407120000000  0.4721560000000  0.5627050000000 1.0
C      1  0.4513920000000  0.4668920000000  0.4838930000000 1.0
C      1  0.5195670000000  0.4707700000000  0.4254390000000 1.0
C      1  0.5689630000000  0.4685190000000  0.4816460000000 1.0
C      1  0.5462610000000  0.4778980000000  0.4263610000000 1.0
C      1  0.4641940000000  0.4658430000000  0.4613920000000 1.0
C      1  0.4241450000000  0.4723370000000  0.5402730000000 1.0
C      1  0.5027660000000  0.4670080000000  0.5572830000000 1.0
C      1  0.5712870000000  0.4658780000000  0.5070780000000 1.0
C      1  0.5125010000000  0.5222670000000  0.4262440000000 1.0
C      1  0.5847090000000  0.5159630000000  0.4872470000000 1.0
C      1  0.5401420000000  0.5135060000000  0.5669750000000 1.0
C      1  0.4481160000000  0.5190090000000  0.5588280000000 1.0
C      1  0.4275600000000  0.5096730000000  0.4645310000000 1.0
C      1  0.5108610000000  0.5164260000000  0.5739180000000 1.0
C      1  0.5760380000000  0.5163830000000  0.5136110000000 1.0
C      1  0.5406380000000  0.5241740000000  0.4378710000000 1.0
C      1  0.4440910000000  0.5068410000000  0.4389880000000 1.0
C      1  0.4319920000000  0.5187150000000  0.5322730000000 1.0
C      1  0.4500980000000  0.5209200000000  0.4877890000000 1.0
C      1  0.4942440000000  0.5160970000000  0.4545600000000 1.0
C      1  0.5395310000000  0.5126120000000  0.4846250000000 1.0
C      1  0.5262410000000  0.5198920000000  0.5373010000000 1.0
C      1  0.4684520000000  0.5329470000000  0.5388990000000 1.0
C      1  0.4510620000000  0.5347960000000  0.5135840000000 1.0
C      1  0.4947600000000  0.5199020000000  0.5439370000000 1.0
C      1  0.5437920000000  0.5146540000000  0.5140360000000 1.0
C      1  0.5239520000000  0.5245690000000  0.4642380000000 1.0
C      1  0.4655720000000  0.5206960000000  0.4602540000000 1.0
C      1  0.5567730000000  0.5001440000000  0.4403060000000 1.0
C      1  0.5668720000000  0.4882550000000  0.5259880000000 1.0
C      1  0.4882290000000  0.4932690000000  0.5640060000000 1.0
C      1  0.4256490000000  0.4931130000000  0.5213540000000 1.0
C      1  0.4692930000000  0.4877560000000  0.4428310000000 1.0
C      1  0.5454230000000  0.4893060000000  0.5469650000000 1.0
C      1  0.5649160000000  0.4970950000000  0.4697120000000 1.0
C      1  0.4982270000000  0.4922790000000  0.4306200000000 1.0
C      1  0.4345590000000  0.4914250000000  0.4923550000000 1.0
C      1  0.4582360000000  0.4937100000000  0.5677060000000 1.0
END
