TITL C-3289333-7213-455 -0.00423366682557293 125000 -810.213193024331 0 0 152 (C1) n - 1
REM
REM in /nfs/bkarasulu/CARBON/AIRSS/Generating-Clusters/AIREBO/with-SteepDescent/Higher-Symm/SD-CG/HFTN-CG
REM
REM
REM
REM
REM
REM ./C.cell (b20cbc046b6831c77cfcea5457e17084)
REM
REM compiler GCC version 9.2.1 20190827 (Red Hat 9.2.1-1)
REM options -cpp -mtune=generic -march=x86-64 -g -O0 -fpre-include=/usr/include/finclude/math-vector-fortran.h
REM seed 1389208863 2109829583 -1188629133 25957442 1379367637 -1775601967 -88714885 228191308 -715640900 621118586 2081402076 -428268479 -1678958518 2094934291 455968948 480323249 430255183 -434273336 1487500966 676797870 1464545492 -2065072299 -1060361637 472618658 -1410362359 -1542729185 -339438145 -84410249 1430608431 413486035 -1512553496 -1708578555 -1338426908
REM
CELL 1.54180   50.00000   50.00000   50.00000   90.00000   90.00000   90.00000
LATT -1
SFAC C  
C      1  0.5230180000000  0.5001080000000  0.5630660000000 1.0
C      1  0.4742740000000  0.5002670000000  0.5626050000000 1.0
C      1  0.4792120000000  0.4313060000000  0.5721900000000 1.0
C      1  0.5264590000000  0.4247360000000  0.5707660000000 1.0
C      1  0.4205970000000  0.5351090000000  0.5443490000000 1.0
C      1  0.5787800000000  0.5282850000000  0.5320540000000 1.0
C      1  0.5838980000000  0.4615810000000  0.5279460000000 1.0
C      1  0.4166530000000  0.4650270000000  0.5233650000000 1.0
C      1  0.4355160000000  0.5588120000000  0.5435980000000 1.0
C      1  0.5603630000000  0.5537590000000  0.5399700000000 1.0
C      1  0.4574890000000  0.4277690000000  0.5462670000000 1.0
C      1  0.5471310000000  0.4220820000000  0.5490740000000 1.0
C      1  0.5966440000000  0.5099730000000  0.5152670000000 1.0
C      1  0.4156820000000  0.5225720000000  0.5177350000000 1.0
C      1  0.4739870000000  0.5430600000000  0.4008350000000 1.0
C      1  0.5209520000000  0.5404390000000  0.4040400000000 1.0
C      1  0.4023860000000  0.4914900000000  0.5215230000000 1.0
C      1  0.6047060000000  0.4858820000000  0.5266550000000 1.0
C      1  0.4415390000000  0.4747920000000  0.4189050000000 1.0
C      1  0.5490750000000  0.4685820000000  0.4253140000000 1.0
C      1  0.5284100000000  0.5810180000000  0.4450750000000 1.0
C      1  0.4665280000000  0.5825870000000  0.4423220000000 1.0
C      1  0.5317870000000  0.4528970000000  0.5252020000000 1.0
C      1  0.4681420000000  0.4529810000000  0.5260880000000 1.0
C      1  0.5479910000000  0.5463500000000  0.4990330000000 1.0
C      1  0.4377620000000  0.5411580000000  0.4995000000000 1.0
C      1  0.4356650000000  0.4535100000000  0.5492550000000 1.0
C      1  0.5633890000000  0.4516380000000  0.5533400000000 1.0
C      1  0.4715540000000  0.5158870000000  0.3927470000000 1.0
C      1  0.5194120000000  0.5133000000000  0.3997380000000 1.0
C      1  0.4198270000000  0.4575620000000  0.4623130000000 1.0
C      1  0.5776810000000  0.4592610000000  0.4646220000000 1.0
C      1  0.4746070000000  0.4935930000000  0.5099380000000 1.0
C      1  0.5247890000000  0.4915680000000  0.5192710000000 1.0
C      1  0.5554220000000  0.4241310000000  0.5007020000000 1.0
C      1  0.4463690000000  0.4251630000000  0.5001950000000 1.0
C      1  0.5410970000000  0.4861800000000  0.4750210000000 1.0
C      1  0.4553630000000  0.4934170000000  0.4654600000000 1.0
C      1  0.5272420000000  0.5025370000000  0.4513070000000 1.0
C      1  0.4571300000000  0.5062890000000  0.4379190000000 1.0
C      1  0.4740560000000  0.5568920000000  0.5767500000000 1.0
C      1  0.5354060000000  0.5620750000000  0.5784050000000 1.0
C      1  0.4217550000000  0.4815330000000  0.4387650000000 1.0
C      1  0.5701120000000  0.4774420000000  0.4413420000000 1.0
C      1  0.4599130000000  0.4568750000000  0.4312670000000 1.0
C      1  0.5348340000000  0.4412850000000  0.4334470000000 1.0
C      1  0.4346360000000  0.5167700000000  0.5605560000000 1.0
C      1  0.5642070000000  0.5164630000000  0.5577820000000 1.0
C      1  0.5401610000000  0.4794760000000  0.5822850000000 1.0
C      1  0.4525290000000  0.4858130000000  0.5826780000000 1.0
C      1  0.4417470000000  0.5334150000000  0.4414130000000 1.0
C      1  0.5465550000000  0.5279140000000  0.4477080000000 1.0
C      1  0.5597140000000  0.4861340000000  0.5557420000000 1.0
C      1  0.4379950000000  0.4873220000000  0.5519730000000 1.0
C      1  0.5309730000000  0.4922070000000  0.4205660000000 1.0
C      1  0.4548310000000  0.4993540000000  0.4077540000000 1.0
C      1  0.5270450000000  0.5682930000000  0.5090120000000 1.0
C      1  0.4635100000000  0.5631400000000  0.5068780000000 1.0
C      1  0.5512120000000  0.4003230000000  0.4820190000000 1.0
C      1  0.4424570000000  0.4289670000000  0.4666350000000 1.0
C      1  0.4703600000000  0.4140960000000  0.5192320000000 1.0
C      1  0.5354370000000  0.4138680000000  0.5235670000000 1.0
C      1  0.4651660000000  0.4614740000000  0.5652000000000 1.0
C      1  0.5302480000000  0.4568210000000  0.5589490000000 1.0
C      1  0.4705790000000  0.4159450000000  0.4698740000000 1.0
C      1  0.5269030000000  0.3953260000000  0.4776820000000 1.0
C      1  0.4278520000000  0.4527970000000  0.4950160000000 1.0
C      1  0.5732120000000  0.4510460000000  0.4974350000000 1.0
C      1  0.4653810000000  0.5129480000000  0.4866230000000 1.0
C      1  0.5267960000000  0.5114970000000  0.4926770000000 1.0
C      1  0.4663050000000  0.5718450000000  0.4745940000000 1.0
C      1  0.5270260000000  0.5730210000000  0.4778860000000 1.0
C      1  0.5299470000000  0.5501820000000  0.5345140000000 1.0
C      1  0.4678570000000  0.5499500000000  0.5379290000000 1.0
C      1  0.4173460000000  0.5090700000000  0.4406030000000 1.0
C      1  0.5718230000000  0.5054350000000  0.4409920000000 1.0
C      1  0.4536210000000  0.4612230000000  0.4634850000000 1.0
C      1  0.5438960000000  0.4559010000000  0.4628060000000 1.0
C      1  0.5336920000000  0.4478910000000  0.4923410000000 1.0
C      1  0.4676610000000  0.4505460000000  0.4925530000000 1.0
C      1  0.4169550000000  0.5090320000000  0.4888960000000 1.0
C      1  0.5836250000000  0.5071180000000  0.4899040000000 1.0
C      1  0.5521920000000  0.5195840000000  0.5138010000000 1.0
C      1  0.4599250000000  0.5234370000000  0.5182330000000 1.0
C      1  0.5571120000000  0.5759500000000  0.4613790000000 1.0
C      1  0.4346160000000  0.5782700000000  0.4688570000000 1.0
C      1  0.5622530000000  0.5508550000000  0.4763720000000 1.0
C      1  0.4184100000000  0.5583120000000  0.4800790000000 1.0
C      1  0.5289300000000  0.4764320000000  0.6081410000000 1.0
C      1  0.4621960000000  0.4851730000000  0.6095500000000 1.0
C      1  0.5650840000000  0.4837960000000  0.4932580000000 1.0
C      1  0.4351460000000  0.4850050000000  0.4897800000000 1.0
C      1  0.4670960000000  0.5506460000000  0.4306790000000 1.0
C      1  0.5275710000000  0.5493460000000  0.4327250000000 1.0
C      1  0.5536760000000  0.4769970000000  0.5240340000000 1.0
C      1  0.4478690000000  0.4784980000000  0.5206410000000 1.0
C      1  0.4188170000000  0.5297210000000  0.4662000000000 1.0
C      1  0.5751490000000  0.5250870000000  0.4659080000000 1.0
C      1  0.5357520000000  0.5319530000000  0.5626260000000 1.0
C      1  0.4621240000000  0.5294490000000  0.5644470000000 1.0
C      1  0.4885810000000  0.6184600000000  0.5557370000000 1.0
C      1  0.5017900000000  0.4126790000000  0.5668660000000 1.0
C      1  0.4964110000000  0.5298990000000  0.4618830000000 1.0
C      1  0.4932340000000  0.5847360000000  0.5223680000000 1.0
C      1  0.4993120000000  0.3993710000000  0.5424970000000 1.0
C      1  0.4914870000000  0.3843900000000  0.4961330000000 1.0
C      1  0.4988970000000  0.5553080000000  0.3934510000000 1.0
C      1  0.4937230000000  0.6135600000000  0.4713870000000 1.0
C      1  0.5028850000000  0.5924150000000  0.5486750000000 1.0
C      1  0.4967210000000  0.5569700000000  0.4461480000000 1.0
C      1  0.4985000000000  0.5868450000000  0.4299780000000 1.0
C      1  0.4996000000000  0.4876030000000  0.5418020000000 1.0
C      1  0.4981600000000  0.5190640000000  0.5289230000000 1.0
C      1  0.4964420000000  0.5032860000000  0.3863610000000 1.0
C      1  0.4784080000000  0.4419790000000  0.6249260000000 1.0
C      1  0.4891900000000  0.4556650000000  0.4258450000000 1.0
C      1  0.4998180000000  0.4861420000000  0.4222260000000 1.0
C      1  0.4979040000000  0.6175150000000  0.4436230000000 1.0
C      1  0.5016580000000  0.5509670000000  0.6047940000000 1.0
C      1  0.4878010000000  0.5052740000000  0.4453800000000 1.0
C      1  0.4995750000000  0.5440830000000  0.5487600000000 1.0
C      1  0.5006740000000  0.4154420000000  0.4857110000000 1.0
C      1  0.4987620000000  0.4659400000000  0.5680330000000 1.0
C      1  0.5016270000000  0.5351480000000  0.6281530000000 1.0
C      1  0.4856790000000  0.6251370000000  0.4953680000000 1.0
C      1  0.5000310000000  0.5829800000000  0.3992310000000 1.0
C      1  0.5013930000000  0.4484470000000  0.3874090000000 1.0
C      1  0.5008420000000  0.4561170000000  0.4542310000000 1.0
C      1  0.4961350000000  0.4831260000000  0.6087640000000 1.0
C      1  0.4968290000000  0.5816380000000  0.4695800000000 1.0
C      1  0.4958150000000  0.5252070000000  0.4955530000000 1.0
C      1  0.5093000000000  0.4324310000000  0.4134750000000 1.0
C      1  0.5155440000000  0.4281530000000  0.4578940000000 1.0
C      1  0.5005610000000  0.4558270000000  0.5296330000000 1.0
C      1  0.4962390000000  0.5584300000000  0.5027710000000 1.0
C      1  0.5004710000000  0.4821390000000  0.4990350000000 1.0
C      1  0.5024800000000  0.4845090000000  0.4661140000000 1.0
C      1  0.4910920000000  0.3818490000000  0.4663040000000 1.0
C      1  0.4940400000000  0.3783100000000  0.5231950000000 1.0
C      1  0.5007750000000  0.4005190000000  0.4479380000000 1.0
C      1  0.5030830000000  0.4233740000000  0.5187080000000 1.0
C      1  0.4850090000000  0.6153540000000  0.5216160000000 1.0
C      1  0.5006100000000  0.4037720000000  0.4205410000000 1.0
C      1  0.4970090000000  0.5083160000000  0.6315870000000 1.0
C      1  0.4870650000000  0.4524720000000  0.5971430000000 1.0
C      1  0.5039880000000  0.5710590000000  0.5689950000000 1.0
C      1  0.5000730000000  0.4497820000000  0.4876280000000 1.0
C      1  0.4949990000000  0.4739940000000  0.3907930000000 1.0
C      1  0.4847510000000  0.6033910000000  0.5825710000000 1.0
C      1  0.4973310000000  0.5030420000000  0.5828710000000 1.0
C      1  0.4970350000000  0.5814060000000  0.6006280000000 1.0
C      1  0.5065680000000  0.5327600000000  0.5800570000000 1.0
END
