TITL C-3289329-2751-278 -0.000132761220812149 125000 -626.697234416386 0 0 110 (C1) n - 1
REM
REM in /nfs/bkarasulu/CARBON/AIRSS/Generating-Clusters/AIREBO/with-SteepDescent/Higher-Symm/SD-CG/HFTN-CG
REM
REM
REM
REM
REM
REM ./C.cell (b20cbc046b6831c77cfcea5457e17084)
REM
REM compiler GCC version 9.2.1 20190827 (Red Hat 9.2.1-1)
REM options -cpp -mtune=generic -march=x86-64 -g -O0 -fpre-include=/usr/include/finclude/math-vector-fortran.h
REM seed 1657038358 497312758 2142621182 -724155432 91633365 -236683895 1919986372 -80565207 -467436035 176544987 -847590269 1683109513 -407298025 -1079316736 -1744731635 -1170710706 185926031 792301975 -483665546 -1893763505 -467646154 -1777310061 -1227116040 -67551495 -213041810 16647068 -1384786700 -1818993584 1957672676 2103854165 -1158371113 -1533132165 -1345228992
REM
CELL 1.54180   50.00000   50.00000   50.00000   90.00000   90.00000   90.00000
LATT -1
SFAC C  
C      1  0.5264550000000  0.5350030000000  0.5061190000000 1.0
C      1  0.4938360000000  0.5300460000000  0.5095150000000 1.0
C      1  0.4669290000000  0.5240840000000  0.4927660000000 1.0
C      1  0.5237630000000  0.5231410000000  0.4740060000000 1.0
C      1  0.5346080000000  0.4745790000000  0.5084550000000 1.0
C      1  0.4894620000000  0.4737420000000  0.5426850000000 1.0
C      1  0.4605000000000  0.4766610000000  0.4907590000000 1.0
C      1  0.5084140000000  0.4730320000000  0.4609220000000 1.0
C      1  0.4615330000000  0.5490600000000  0.5815090000000 1.0
C      1  0.4158080000000  0.5594580000000  0.4728110000000 1.0
C      1  0.5394470000000  0.5482300000000  0.4182070000000 1.0
C      1  0.5803580000000  0.5524150000000  0.5295390000000 1.0
C      1  0.4428770000000  0.4633040000000  0.5647920000000 1.0
C      1  0.4424180000000  0.4568250000000  0.4558410000000 1.0
C      1  0.5496690000000  0.4656730000000  0.4360110000000 1.0
C      1  0.5667440000000  0.4692830000000  0.5422460000000 1.0
C      1  0.5250900000000  0.5538570000000  0.4709410000000 1.0
C      1  0.5207490000000  0.5449200000000  0.5381410000000 1.0
C      1  0.4774700000000  0.5550560000000  0.5170500000000 1.0
C      1  0.4828300000000  0.5443390000000  0.4705560000000 1.0
C      1  0.5565950000000  0.4524920000000  0.4648140000000 1.0
C      1  0.5402310000000  0.4624150000000  0.5489570000000 1.0
C      1  0.4419200000000  0.4534560000000  0.5348260000000 1.0
C      1  0.4740810000000  0.4555090000000  0.4510660000000 1.0
C      1  0.5323050000000  0.4122350000000  0.4753180000000 1.0
C      1  0.5229580000000  0.4192720000000  0.5357080000000 1.0
C      1  0.4615910000000  0.4097710000000  0.5256320000000 1.0
C      1  0.4810520000000  0.4125770000000  0.4712390000000 1.0
C      1  0.5363480000000  0.5919760000000  0.4704410000000 1.0
C      1  0.5491430000000  0.5854690000000  0.5322540000000 1.0
C      1  0.4557770000000  0.5874860000000  0.5231010000000 1.0
C      1  0.4803110000000  0.5893750000000  0.4647960000000 1.0
C      1  0.4458750000000  0.5046060000000  0.5316490000000 1.0
C      1  0.4719380000000  0.5162970000000  0.4546630000000 1.0
C      1  0.5466010000000  0.5040100000000  0.4685280000000 1.0
C      1  0.5225120000000  0.5111140000000  0.5417270000000 1.0
C      1  0.4612000000000  0.4795540000000  0.5246310000000 1.0
C      1  0.4774610000000  0.4867920000000  0.4640110000000 1.0
C      1  0.5359000000000  0.4763440000000  0.4752170000000 1.0
C      1  0.5183770000000  0.4819780000000  0.5350800000000 1.0
C      1  0.4320330000000  0.5285170000000  0.5115130000000 1.0
C      1  0.4990100000000  0.5257380000000  0.4165150000000 1.0
C      1  0.5784650000000  0.5288550000000  0.4903760000000 1.0
C      1  0.5020500000000  0.5277110000000  0.5829110000000 1.0
C      1  0.4101450000000  0.4675590000000  0.4889110000000 1.0
C      1  0.5095080000000  0.4762690000000  0.4101500000000 1.0
C      1  0.5871460000000  0.4802940000000  0.5008040000000 1.0
C      1  0.4798250000000  0.4611830000000  0.5978000000000 1.0
C      1  0.4824350000000  0.5076890000000  0.5820760000000 1.0
C      1  0.4373540000000  0.5180340000000  0.4817040000000 1.0
C      1  0.5215830000000  0.5172250000000  0.4405600000000 1.0
C      1  0.5563090000000  0.5211810000000  0.5150010000000 1.0
C      1  0.4872150000000  0.4812690000000  0.5758000000000 1.0
C      1  0.4334710000000  0.4893770000000  0.4772430000000 1.0
C      1  0.5066690000000  0.4910660000000  0.4349010000000 1.0
C      1  0.5607950000000  0.4932470000000  0.5041000000000 1.0
C      1  0.5444200000000  0.4249240000000  0.5791470000000 1.0
C      1  0.4128730000000  0.4111780000000  0.5355710000000 1.0
C      1  0.4476030000000  0.4123350000000  0.4331560000000 1.0
C      1  0.5802440000000  0.4253290000000  0.4474460000000 1.0
C      1  0.5504090000000  0.5387350000000  0.5641780000000 1.0
C      1  0.4433500000000  0.5334010000000  0.5495540000000 1.0
C      1  0.4538410000000  0.5428730000000  0.4432730000000 1.0
C      1  0.5667360000000  0.5442750000000  0.4470090000000 1.0
C      1  0.4648620000000  0.4481820000000  0.5755490000000 1.0
C      1  0.4326280000000  0.4496920000000  0.4809740000000 1.0
C      1  0.5249330000000  0.4565410000000  0.4264340000000 1.0
C      1  0.5749560000000  0.4583720000000  0.5172430000000 1.0
C      1  0.4895760000000  0.5523310000000  0.5753640000000 1.0
C      1  0.4342560000000  0.5558270000000  0.4950610000000 1.0
C      1  0.5123390000000  0.5513220000000  0.4221700000000 1.0
C      1  0.5728820000000  0.5553400000000  0.5028700000000 1.0
C      1  0.5775690000000  0.4942340000000  0.5512380000000 1.0
C      1  0.4380080000000  0.4880310000000  0.5750710000000 1.0
C      1  0.4291230000000  0.4803120000000  0.4447560000000 1.0
C      1  0.5607280000000  0.4879410000000  0.4234650000000 1.0
C      1  0.5696180000000  0.5240980000000  0.5444540000000 1.0
C      1  0.4521790000000  0.5170100000000  0.5765020000000 1.0
C      1  0.4291300000000  0.5372140000000  0.4601000000000 1.0
C      1  0.5525050000000  0.5188960000000  0.4294010000000 1.0
C      1  0.5079380000000  0.4170650000000  0.4629930000000 1.0
C      1  0.5330690000000  0.4232120000000  0.5035350000000 1.0
C      1  0.4895370000000  0.4222790000000  0.5364880000000 1.0
C      1  0.4754480000000  0.4227480000000  0.4991230000000 1.0
C      1  0.5100210000000  0.5905710000000  0.4589270000000 1.0
C      1  0.5335070000000  0.5932300000000  0.5041280000000 1.0
C      1  0.4884360000000  0.5831930000000  0.5317060000000 1.0
C      1  0.4752950000000  0.5942980000000  0.4958550000000 1.0
C      1  0.4981290000000  0.5610620000000  0.5506320000000 1.0
C      1  0.4631610000000  0.5636870000000  0.4901690000000 1.0
C      1  0.5026970000000  0.5601350000000  0.4494990000000 1.0
C      1  0.5430830000000  0.5633240000000  0.4973080000000 1.0
C      1  0.4835200000000  0.4447890000000  0.5545730000000 1.0
C      1  0.4539460000000  0.4463110000000  0.5036880000000 1.0
C      1  0.5055100000000  0.4427290000000  0.4471610000000 1.0
C      1  0.5511540000000  0.4475200000000  0.4983060000000 1.0
C      1  0.4374920000000  0.4224530000000  0.5322780000000 1.0
C      1  0.4641590000000  0.4237270000000  0.4514290000000 1.0
C      1  0.5556250000000  0.4194070000000  0.4618870000000 1.0
C      1  0.5359600000000  0.4356350000000  0.5558930000000 1.0
C      1  0.4499520000000  0.5591090000000  0.5366040000000 1.0
C      1  0.4648300000000  0.5728970000000  0.4491280000000 1.0
C      1  0.5528680000000  0.5662090000000  0.4582830000000 1.0
C      1  0.5447270000000  0.5638420000000  0.5476900000000 1.0
C      1  0.5695980000000  0.5205580000000  0.4655180000000 1.0
C      1  0.4721540000000  0.5233600000000  0.4229820000000 1.0
C      1  0.4150290000000  0.5181600000000  0.5385220000000 1.0
C      1  0.5269990000000  0.5224060000000  0.5704140000000 1.0
C      1  0.5050420000000  0.6009090000000  0.5109400000000 1.0
C      1  0.5030750000000  0.4333610000000  0.5082520000000 1.0
END
