TITL C-3289332-8317-62 0.000333962317970178 125000 -212.261629340643 0 0 40 (C1) n - 1
REM
REM in /nfs/bkarasulu/CARBON/AIRSS/Generating-Clusters/AIREBO/with-SteepDescent/Higher-Symm/SD-CG/HFTN-CG
REM
REM
REM
REM
REM
REM ./C.cell (b20cbc046b6831c77cfcea5457e17084)
REM
REM compiler GCC version 9.2.1 20190827 (Red Hat 9.2.1-1)
REM options -cpp -mtune=generic -march=x86-64 -g -O0 -fpre-include=/usr/include/finclude/math-vector-fortran.h
REM seed -559053550 1740335342 -1614044155 1287196288 336484325 -1160988750 -372120820 -243149072 1156020261 -409863211 -2000960114 667627219 409023017 918144182 -1642685620 -1593790580 -1438499540 -1968958580 -318499727 17814217 238698554 -1083424235 1976409697 817940656 -809543663 1832684708 79149798 274461419 1480854742 -340083973 -1418769568 643931868 -986072793
REM
CELL 1.54180   50.00000   50.00000   50.00000   90.00000   90.00000   90.00000
LATT -1
SFAC C  
C      1  0.4874840000000  0.4450850000000  0.5269730000000 1.0
C      1  0.4876860000000  0.5552240000000  0.4717340000000 1.0
C      1  0.5113310000000  0.4432740000000  0.5121450000000 1.0
C      1  0.5112030000000  0.5560860000000  0.4872770000000 1.0
C      1  0.4854410000000  0.5580580000000  0.5299450000000 1.0
C      1  0.4857820000000  0.4439700000000  0.4673970000000 1.0
C      1  0.5094930000000  0.5623260000000  0.5160890000000 1.0
C      1  0.5090670000000  0.4397040000000  0.4826350000000 1.0
C      1  0.4613020000000  0.5385630000000  0.4853590000000 1.0
C      1  0.4664980000000  0.4642110000000  0.5133840000000 1.0
C      1  0.5390920000000  0.5380120000000  0.4808100000000 1.0
C      1  0.5368810000000  0.4649710000000  0.5178810000000 1.0
C      1  0.4648950000000  0.4626830000000  0.4810160000000 1.0
C      1  0.4612510000000  0.5389890000000  0.5153050000000 1.0
C      1  0.5345700000000  0.4621370000000  0.4859200000000 1.0
C      1  0.5371840000000  0.5423680000000  0.5143460000000 1.0
C      1  0.4426070000000  0.5131870000000  0.4734040000000 1.0
C      1  0.4472930000000  0.4881390000000  0.5255460000000 1.0
C      1  0.5532890000000  0.5102320000000  0.4706390000000 1.0
C      1  0.5542630000000  0.4922520000000  0.5271880000000 1.0
C      1  0.4468540000000  0.4886530000000  0.4715600000000 1.0
C      1  0.4440000000000  0.5128210000000  0.5264670000000 1.0
C      1  0.5537890000000  0.4854880000000  0.4728470000000 1.0
C      1  0.5566890000000  0.5171160000000  0.5261000000000 1.0
C      1  0.4906170000000  0.5363590000000  0.4470670000000 1.0
C      1  0.4912060000000  0.4489840000000  0.5549040000000 1.0
C      1  0.5155010000000  0.5206390000000  0.4513500000000 1.0
C      1  0.5072980000000  0.4711990000000  0.5597840000000 1.0
C      1  0.4920290000000  0.4522940000000  0.4408220000000 1.0
C      1  0.4901080000000  0.5400690000000  0.5549390000000 1.0
C      1  0.5085900000000  0.4746760000000  0.4420780000000 1.0
C      1  0.5160190000000  0.5258790000000  0.5510590000000 1.0
C      1  0.5159710000000  0.5133530000000  0.4845750000000 1.0
C      1  0.5155970000000  0.4837950000000  0.5322080000000 1.0
C      1  0.4823440000000  0.5159750000000  0.4729990000000 1.0
C      1  0.4866180000000  0.4899080000000  0.5187080000000 1.0
C      1  0.5140180000000  0.4818810000000  0.4721350000000 1.0
C      1  0.5174990000000  0.5150120000000  0.5188620000000 1.0
C      1  0.4853140000000  0.4877910000000  0.4871200000000 1.0
C      1  0.4833270000000  0.5186370000000  0.5294240000000 1.0
END
