TITL C-3289325-7307-649 0.00262077790929142 125000 -487.2302520499 0 0 99 (C1) n - 1
REM
REM in /nfs/bkarasulu/CARBON/AIRSS/Generating-Clusters/AIREBO/with-SteepDescent/Higher-Symm/SD-CG/HFTN-CG
REM
REM
REM
REM
REM
REM ./C.cell (b20cbc046b6831c77cfcea5457e17084)
REM
REM compiler GCC version 9.2.1 20190827 (Red Hat 9.2.1-1)
REM options -cpp -mtune=generic -march=x86-64 -g -O0 -fpre-include=/usr/include/finclude/math-vector-fortran.h
REM seed -1184334723 319818882 -1006452422 -1643994835 423137002 301688996 1901869254 -1381207601 -1896544421 1749805131 1195965826 1584952449 394802128 243033696 -800923920 -1912697858 760612725 832170582 -16157822 1839816018 -2136221171 1594470385 1979842454 -2021664456 -2095542595 -163954793 -917528055 -2126948679 -303621015 1641507041 1775532255 198854548 -1601560766
REM
CELL 1.54180   50.00000   50.00000   50.00000   90.00000   90.00000   90.00000
LATT -1
SFAC C  
C      1  0.4659430000000  0.4800440000000  0.5836820000000 1.0
C      1  0.5625580000000  0.4888740000000  0.4759920000000 1.0
C      1  0.4790060000000  0.5722920000000  0.4840950000000 1.0
C      1  0.5158960000000  0.4873480000000  0.4218090000000 1.0
C      1  0.4827550000000  0.5201590000000  0.4252670000000 1.0
C      1  0.5051920000000  0.5112400000000  0.5597560000000 1.0
C      1  0.4270710000000  0.4683840000000  0.5052410000000 1.0
C      1  0.5730780000000  0.5080970000000  0.5141090000000 1.0
C      1  0.4249530000000  0.5120850000000  0.4718290000000 1.0
C      1  0.5297750000000  0.5712570000000  0.5036120000000 1.0
C      1  0.4861540000000  0.4398570000000  0.5150730000000 1.0
C      1  0.5113780000000  0.4197010000000  0.4914720000000 1.0
C      1  0.4769320000000  0.5106810000000  0.5730520000000 1.0
C      1  0.5688120000000  0.5191260000000  0.4822280000000 1.0
C      1  0.4824890000000  0.4280920000000  0.4833740000000 1.0
C      1  0.5137130000000  0.5165580000000  0.4390810000000 1.0
C      1  0.4821190000000  0.4869630000000  0.4179340000000 1.0
C      1  0.5276310000000  0.4917710000000  0.5766650000000 1.0
C      1  0.4476900000000  0.5119140000000  0.5244480000000 1.0
C      1  0.5580810000000  0.4784370000000  0.5229350000000 1.0
C      1  0.4199380000000  0.4852330000000  0.4780840000000 1.0
C      1  0.5193820000000  0.4323080000000  0.5194000000000 1.0
C      1  0.4776910000000  0.5593650000000  0.5155160000000 1.0
C      1  0.5116900000000  0.5738440000000  0.4766810000000 1.0
C      1  0.4522970000000  0.4852560000000  0.4535070000000 1.0
C      1  0.4632280000000  0.4723030000000  0.4789090000000 1.0
C      1  0.4856500000000  0.4543600000000  0.4668520000000 1.0
C      1  0.5385720000000  0.4953690000000  0.5446700000000 1.0
C      1  0.4514540000000  0.5005390000000  0.5529480000000 1.0
C      1  0.5458250000000  0.5139120000000  0.4499520000000 1.0
C      1  0.5496990000000  0.4465750000000  0.5144920000000 1.0
C      1  0.4512960000000  0.5388250000000  0.5093850000000 1.0
C      1  0.5392290000000  0.5341660000000  0.4748040000000 1.0
C      1  0.5114610000000  0.4748360000000  0.5446300000000 1.0
C      1  0.4878690000000  0.5601580000000  0.5479710000000 1.0
C      1  0.5120530000000  0.5455160000000  0.4577330000000 1.0
C      1  0.4611030000000  0.5180310000000  0.4513960000000 1.0
C      1  0.4513560000000  0.5313920000000  0.4811100000000 1.0
C      1  0.4797610000000  0.5431580000000  0.4665780000000 1.0
C      1  0.5333740000000  0.5235420000000  0.5277320000000 1.0
C      1  0.4746920000000  0.4771190000000  0.5518460000000 1.0
C      1  0.5356040000000  0.4829110000000  0.4561400000000 1.0
C      1  0.5449080000000  0.5417580000000  0.5047900000000 1.0
C      1  0.4562680000000  0.4508970000000  0.5031530000000 1.0
C      1  0.5622660000000  0.4370400000000  0.4843030000000 1.0
C      1  0.5143740000000  0.5413650000000  0.5578850000000 1.0
C      1  0.4912540000000  0.4507190000000  0.5468880000000 1.0
C      1  0.5078260000000  0.4680740000000  0.4478580000000 1.0
C      1  0.4647590000000  0.5400310000000  0.5779720000000 1.0
C      1  0.5719200000000  0.4623940000000  0.5495300000000 1.0
C      1  0.5382350000000  0.5756580000000  0.4557670000000 1.0
C      1  0.5322600000000  0.5405510000000  0.4236760000000 1.0
C      1  0.4631260000000  0.4669020000000  0.4198260000000 1.0
C      1  0.5373230000000  0.4666270000000  0.5841950000000 1.0
C      1  0.4165720000000  0.4678690000000  0.4567550000000 1.0
C      1  0.5740630000000  0.5411770000000  0.4568750000000 1.0
C      1  0.4331900000000  0.5350500000000  0.5447140000000 1.0
C      1  0.4603580000000  0.5785320000000  0.5400960000000 1.0
C      1  0.5368170000000  0.4297290000000  0.5484890000000 1.0
C      1  0.4554390000000  0.4290700000000  0.4627460000000 1.0
C      1  0.4493720000000  0.4562490000000  0.5744950000000 1.0
C      1  0.5719940000000  0.5262610000000  0.5370820000000 1.0
C      1  0.5317060000000  0.4220690000000  0.4712030000000 1.0
C      1  0.5411990000000  0.4650190000000  0.4277680000000 1.0
C      1  0.4617180000000  0.5457340000000  0.4226910000000 1.0
C      1  0.5582880000000  0.5526650000000  0.5761000000000 1.0
C      1  0.4238020000000  0.5374140000000  0.4530740000000 1.0
C      1  0.5727540000000  0.4689960000000  0.4517200000000 1.0
C      1  0.4219520000000  0.4537860000000  0.5333030000000 1.0
C      1  0.4613490000000  0.4270970000000  0.5347950000000 1.0
C      1  0.5485440000000  0.5717900000000  0.5308370000000 1.0
C      1  0.4558470000000  0.5747910000000  0.4616470000000 1.0
C      1  0.4384030000000  0.5651870000000  0.5190710000000 1.0
C      1  0.5759730000000  0.4264730000000  0.5115160000000 1.0
C      1  0.4945590000000  0.4313770000000  0.5666260000000 1.0
C      1  0.5686460000000  0.4947250000000  0.4370060000000 1.0
C      1  0.4921910000000  0.4431990000000  0.4363110000000 1.0
C      1  0.5106380000000  0.5626280000000  0.4283780000000 1.0
C      1  0.4253840000000  0.4955610000000  0.5677720000000 1.0
C      1  0.5639020000000  0.5105740000000  0.5615150000000 1.0
C      1  0.4363640000000  0.5056300000000  0.4314300000000 1.0
C      1  0.5690640000000  0.5658500000000  0.5076670000000 1.0
C      1  0.4522050000000  0.4173530000000  0.5069500000000 1.0
C      1  0.4986210000000  0.5615160000000  0.5782240000000 1.0
C      1  0.5512110000000  0.4490510000000  0.5649700000000 1.0
C      1  0.4501100000000  0.5519860000000  0.5581170000000 1.0
C      1  0.5520080000000  0.5538400000000  0.4424800000000 1.0
C      1  0.4451080000000  0.5551570000000  0.4443200000000 1.0
C      1  0.4431750000000  0.4432780000000  0.5495410000000 1.0
C      1  0.5496850000000  0.4455960000000  0.4544820000000 1.0
C      1  0.4434090000000  0.4538630000000  0.4443170000000 1.0
C      1  0.5470500000000  0.5457710000000  0.5495360000000 1.0
C      1  0.4506550000000  0.4903890000000  0.5043390000000 1.0
C      1  0.4901550000000  0.4733740000000  0.5109730000000 1.0
C      1  0.5056680000000  0.5059390000000  0.4703660000000 1.0
C      1  0.5398590000000  0.4812730000000  0.4957780000000 1.0
C      1  0.5060020000000  0.5495880000000  0.5081370000000 1.0
C      1  0.5028720000000  0.5005740000000  0.5275300000000 1.0
C      1  0.5124270000000  0.4917630000000  0.4961100000000 1.0
END
