TITL C-3289335-9438-368 -0.000767878635132239 125000 -270.329588468923 0 0 49 (C1) n - 1
REM
REM in /nfs/bkarasulu/CARBON/AIRSS/Generating-Clusters/AIREBO/with-SteepDescent/Higher-Symm/SD-CG/HFTN-CG
REM
REM
REM
REM
REM
REM ./C.cell (b20cbc046b6831c77cfcea5457e17084)
REM
REM compiler GCC version 9.2.1 20190827 (Red Hat 9.2.1-1)
REM options -cpp -mtune=generic -march=x86-64 -g -O0 -fpre-include=/usr/include/finclude/math-vector-fortran.h
REM seed 1586071189 1566232821 1586193547 -1544881902 906121067 -2070948251 -188760668 520132767 355073377 1163552801 -1350649805 -1981834621 1987936163 -1083080194 -830253762 -1280570097 1981401091 192923413 517369891 2022780565 1635017470 285894448 1523186790 -871500569 1499470 793844596 1479403583 -1288143385 1214685767 -13307747 -123388553 1001387122 -1679944786
REM
CELL 1.54180   50.00000   50.00000   50.00000   90.00000   90.00000   90.00000
LATT -1
SFAC C  
C      1  0.5202550000000  0.4712810000000  0.4369900000000 1.0
C      1  0.5150350000000  0.4271100000000  0.4920110000000 1.0
C      1  0.5101170000000  0.4432200000000  0.5445930000000 1.0
C      1  0.5169330000000  0.4928900000000  0.5652990000000 1.0
C      1  0.5161410000000  0.5545220000000  0.5369290000000 1.0
C      1  0.5111620000000  0.5710260000000  0.4873110000000 1.0
C      1  0.5138830000000  0.5396170000000  0.4403410000000 1.0
C      1  0.4834080000000  0.5617550000000  0.4904720000000 1.0
C      1  0.4890670000000  0.5272550000000  0.4476340000000 1.0
C      1  0.4933710000000  0.4754800000000  0.4443970000000 1.0
C      1  0.4899660000000  0.4395460000000  0.4884570000000 1.0
C      1  0.4823780000000  0.4509680000000  0.5378060000000 1.0
C      1  0.4872040000000  0.4967000000000  0.5603970000000 1.0
C      1  0.4861640000000  0.5478460000000  0.5357760000000 1.0
C      1  0.5475340000000  0.4609430000000  0.4758220000000 1.0
C      1  0.5627340000000  0.4277480000000  0.5096450000000 1.0
C      1  0.5699770000000  0.4988860000000  0.5472380000000 1.0
C      1  0.5507570000000  0.5170630000000  0.5294790000000 1.0
C      1  0.5640290000000  0.5628640000000  0.5213940000000 1.0
C      1  0.5707360000000  0.5290350000000  0.4523040000000 1.0
C      1  0.5514890000000  0.5041590000000  0.4542120000000 1.0
C      1  0.4532700000000  0.4732100000000  0.4767490000000 1.0
C      1  0.4408820000000  0.4661630000000  0.5065390000000 1.0
C      1  0.4404600000000  0.4830540000000  0.5359980000000 1.0
C      1  0.4499150000000  0.5147730000000  0.5337540000000 1.0
C      1  0.4388320000000  0.5336100000000  0.5090650000000 1.0
C      1  0.4494190000000  0.5295480000000  0.4770120000000 1.0
C      1  0.4436200000000  0.5009330000000  0.4611290000000 1.0
C      1  0.4579970000000  0.5464920000000  0.5344290000000 1.0
C      1  0.4562720000000  0.5573510000000  0.4920380000000 1.0
C      1  0.4605260000000  0.5264470000000  0.4461300000000 1.0
C      1  0.4637840000000  0.4778360000000  0.4460920000000 1.0
C      1  0.4610120000000  0.4441250000000  0.4900160000000 1.0
C      1  0.4553590000000  0.4531330000000  0.5343570000000 1.0
C      1  0.4592340000000  0.4979930000000  0.5601760000000 1.0
C      1  0.5006250000000  0.4732850000000  0.5204370000000 1.0
C      1  0.4960610000000  0.4997760000000  0.5319640000000 1.0
C      1  0.4961360000000  0.5239090000000  0.5209300000000 1.0
C      1  0.5013590000000  0.5329960000000  0.4935030000000 1.0
C      1  0.4938560000000  0.5139350000000  0.4727380000000 1.0
C      1  0.4926140000000  0.4868470000000  0.4722800000000 1.0
C      1  0.4922370000000  0.4689740000000  0.4925220000000 1.0
C      1  0.5311420000000  0.5444320000000  0.4892900000000 1.0
C      1  0.5383310000000  0.5348410000000  0.4608010000000 1.0
C      1  0.5419530000000  0.4783630000000  0.4545550000000 1.0
C      1  0.5410620000000  0.4443420000000  0.5020340000000 1.0
C      1  0.5308580000000  0.4617060000000  0.5258480000000 1.0
C      1  0.5382990000000  0.4877750000000  0.5418460000000 1.0
C      1  0.5425440000000  0.5442330000000  0.5192580000000 1.0
END
