TITL C-3289332-8317-297 -0.000714950775532806 125000 -462.439970036486 0 0 83 (C1) n - 1
REM
REM in /nfs/bkarasulu/CARBON/AIRSS/Generating-Clusters/AIREBO/with-SteepDescent/Higher-Symm/SD-CG/HFTN-CG
REM
REM
REM
REM
REM
REM ./C.cell (b20cbc046b6831c77cfcea5457e17084)
REM
REM compiler GCC version 9.2.1 20190827 (Red Hat 9.2.1-1)
REM options -cpp -mtune=generic -march=x86-64 -g -O0 -fpre-include=/usr/include/finclude/math-vector-fortran.h
REM seed -393855495 1850070598 -1997510130 -976459165 920190643 -1909575279 228435591 -274182218 -1633587434 48657519 92475860 1415043204 1484270232 1185834803 -897470104 -1095283912 -1791775262 15586016 -1164704030 -815127539 1652185242 1175107199 144431547 550731916 1897497247 -1699476781 1573026841 -57353501 -820577043 -902360701 1551325175 927819272 -1532272613
REM
CELL 1.54180   50.00000   50.00000   50.00000   90.00000   90.00000   90.00000
LATT -1
SFAC C  
C      1  0.5310000000000  0.5163250000000  0.4450640000000 1.0
C      1  0.5243260000000  0.4519070000000  0.5345750000000 1.0
C      1  0.4479350000000  0.5341820000000  0.5163820000000 1.0
C      1  0.4613150000000  0.4783490000000  0.4461230000000 1.0
C      1  0.5333530000000  0.4900520000000  0.5563460000000 1.0
C      1  0.4662790000000  0.5252910000000  0.5436940000000 1.0
C      1  0.4830060000000  0.5530320000000  0.5340750000000 1.0
C      1  0.5144780000000  0.5529180000000  0.4643530000000 1.0
C      1  0.4783840000000  0.4512920000000  0.4698090000000 1.0
C      1  0.5472540000000  0.4666980000000  0.5142120000000 1.0
C      1  0.4437950000000  0.4608990000000  0.4695030000000 1.0
C      1  0.5609050000000  0.5316740000000  0.4863130000000 1.0
C      1  0.4284580000000  0.4834000000000  0.5166380000000 1.0
C      1  0.4827130000000  0.5215090000000  0.4257920000000 1.0
C      1  0.5155870000000  0.4236310000000  0.4873590000000 1.0
C      1  0.5720220000000  0.5156980000000  0.5212420000000 1.0
C      1  0.4238740000000  0.5218670000000  0.4841510000000 1.0
C      1  0.5766690000000  0.4815050000000  0.4788610000000 1.0
C      1  0.5081350000000  0.4778620000000  0.4224050000000 1.0
C      1  0.4871480000000  0.4805970000000  0.5789210000000 1.0
C      1  0.5072010000000  0.5172840000000  0.5759340000000 1.0
C      1  0.4876040000000  0.5710530000000  0.4876820000000 1.0
C      1  0.5154560000000  0.5708930000000  0.5157230000000 1.0
C      1  0.4841930000000  0.4287620000000  0.5172600000000 1.0
C      1  0.5192560000000  0.4318290000000  0.4595020000000 1.0
C      1  0.4382930000000  0.4580850000000  0.5217210000000 1.0
C      1  0.4578790000000  0.5274940000000  0.4370090000000 1.0
C      1  0.4786420000000  0.5694700000000  0.4604020000000 1.0
C      1  0.5194970000000  0.5664700000000  0.5430270000000 1.0
C      1  0.4837310000000  0.4303020000000  0.5473610000000 1.0
C      1  0.5587710000000  0.5407830000000  0.5250300000000 1.0
C      1  0.4342300000000  0.5478870000000  0.4808880000000 1.0
C      1  0.5672820000000  0.4553930000000  0.4737860000000 1.0
C      1  0.5368800000000  0.4832090000000  0.4397600000000 1.0
C      1  0.4608160000000  0.4783770000000  0.5646020000000 1.0
C      1  0.5376130000000  0.5231490000000  0.5706440000000 1.0
C      1  0.5666010000000  0.4992550000000  0.4436990000000 1.0
C      1  0.5091620000000  0.4392730000000  0.5604850000000 1.0
C      1  0.4414960000000  0.5643300000000  0.5054530000000 1.0
C      1  0.4419980000000  0.5044770000000  0.4394760000000 1.0
C      1  0.5620900000000  0.5014230000000  0.5655160000000 1.0
C      1  0.4470110000000  0.5019620000000  0.5579960000000 1.0
C      1  0.4963200000000  0.5651550000000  0.5626110000000 1.0
C      1  0.5018560000000  0.5656210000000  0.4385200000000 1.0
C      1  0.4941170000000  0.4373140000000  0.4470330000000 1.0
C      1  0.5617820000000  0.4400490000000  0.4988860000000 1.0
C      1  0.4404120000000  0.4436730000000  0.4981270000000 1.0
C      1  0.5535320000000  0.5579020000000  0.5001960000000 1.0
C      1  0.5809660000000  0.5044590000000  0.5459490000000 1.0
C      1  0.4853400000000  0.5369910000000  0.5704620000000 1.0
C      1  0.5291300000000  0.5682360000000  0.4855520000000 1.0
C      1  0.4325480000000  0.5079930000000  0.5316750000000 1.0
C      1  0.5744100000000  0.5126490000000  0.4700180000000 1.0
C      1  0.4303530000000  0.4922020000000  0.4671340000000 1.0
C      1  0.5145230000000  0.4691090000000  0.5707910000000 1.0
C      1  0.4847500000000  0.4621830000000  0.4320290000000 1.0
C      1  0.5086970000000  0.5363220000000  0.4289690000000 1.0
C      1  0.4672070000000  0.4342390000000  0.4931770000000 1.0
C      1  0.5344150000000  0.4294560000000  0.5107450000000 1.0
C      1  0.4705680000000  0.5691670000000  0.5118270000000 1.0
C      1  0.4862540000000  0.4797750000000  0.5102820000000 1.0
C      1  0.4690510000000  0.5021080000000  0.4691930000000 1.0
C      1  0.4928580000000  0.4795940000000  0.4708700000000 1.0
C      1  0.5309670000000  0.5249420000000  0.5011690000000 1.0
C      1  0.4706600000000  0.5351370000000  0.4910380000000 1.0
C      1  0.5298890000000  0.4607830000000  0.4865950000000 1.0
C      1  0.5361770000000  0.5029110000000  0.4757980000000 1.0
C      1  0.4714350000000  0.5040790000000  0.5176080000000 1.0
C      1  0.5244910000000  0.5021060000000  0.5255310000000 1.0
C      1  0.4928980000000  0.5262590000000  0.4668820000000 1.0
C      1  0.5055580000000  0.5277470000000  0.5373810000000 1.0
C      1  0.4935890000000  0.4674120000000  0.5371080000000 1.0
C      1  0.5022940000000  0.5433200000000  0.5008060000000 1.0
C      1  0.5022190000000  0.4514670000000  0.5015910000000 1.0
C      1  0.4474890000000  0.5001480000000  0.4954190000000 1.0
C      1  0.5011640000000  0.5008830000000  0.4456880000000 1.0
C      1  0.5571710000000  0.4949750000000  0.5013960000000 1.0
C      1  0.4948320000000  0.4984340000000  0.5510130000000 1.0
C      1  0.4619740000000  0.4558870000000  0.5420430000000 1.0
C      1  0.5401380000000  0.4568830000000  0.4565980000000 1.0
C      1  0.4586440000000  0.5458690000000  0.4610760000000 1.0
C      1  0.5362260000000  0.5405000000000  0.5447060000000 1.0
C      1  0.5140560000000  0.4891510000000  0.4956870000000 1.0
END
