TITL C-3289321-8710-30 0.000155894730619113 125000 -707.822180521086 0 0 132 (C1) n - 1
REM
REM in /nfs/bkarasulu/CARBON/AIRSS/Generating-Clusters/AIREBO/with-SteepDescent/Higher-Symm/SD-CG/HFTN-CG
REM
REM
REM
REM
REM
REM ./C.cell (b20cbc046b6831c77cfcea5457e17084)
REM
REM compiler GCC version 9.2.1 20190827 (Red Hat 9.2.1-1)
REM options -cpp -mtune=generic -march=x86-64 -g -O0 -fpre-include=/usr/include/finclude/math-vector-fortran.h
REM seed 1709899807 -2050760922 2093582891 299495750 1390539127 901443013 742099155 764867249 638292770 1210727564 1548183964 1128085253 1907719865 1802052080 1081566287 1198147127 -1922666876 1983762346 -134769700 -1726359617 1228255471 326986359 -2045570924 768192586 -773467651 -100100599 -1223130078 214432441 1878535126 -663459059 1192101757 82761737 -1617730356
REM
CELL 1.54180   50.00000   50.00000   50.00000   90.00000   90.00000   90.00000
LATT -1
SFAC C  
C      1  0.5462530000000  0.4985900000000  0.5843610000000 1.0
C      1  0.5387900000000  0.4777630000000  0.6011520000000 1.0
C      1  0.5196510000000  0.4584070000000  0.5976350000000 1.0
C      1  0.4895880000000  0.4627600000000  0.5921200000000 1.0
C      1  0.4662070000000  0.4749650000000  0.5961620000000 1.0
C      1  0.4551010000000  0.4985820000000  0.5875630000000 1.0
C      1  0.4583270000000  0.5231160000000  0.6006340000000 1.0
C      1  0.4753760000000  0.5442630000000  0.5955860000000 1.0
C      1  0.5025460000000  0.5538630000000  0.5982350000000 1.0
C      1  0.5242830000000  0.5383520000000  0.6066560000000 1.0
C      1  0.5367800000000  0.5240550000000  0.5861600000000 1.0
C      1  0.4262190000000  0.5576380000000  0.5131010000000 1.0
C      1  0.4666730000000  0.5857750000000  0.5231030000000 1.0
C      1  0.5144820000000  0.5913280000000  0.5171880000000 1.0
C      1  0.5607250000000  0.5663230000000  0.5187530000000 1.0
C      1  0.5994730000000  0.5338660000000  0.5222250000000 1.0
C      1  0.5836200000000  0.4791460000000  0.5101120000000 1.0
C      1  0.5550750000000  0.4346370000000  0.5031680000000 1.0
C      1  0.5078500000000  0.4016400000000  0.5174190000000 1.0
C      1  0.4588530000000  0.4227190000000  0.5117400000000 1.0
C      1  0.4161090000000  0.4489100000000  0.5164080000000 1.0
C      1  0.4168920000000  0.5008310000000  0.5067160000000 1.0
C      1  0.5140430000000  0.5864180000000  0.5478190000000 1.0
C      1  0.5583380000000  0.5667080000000  0.5494650000000 1.0
C      1  0.5904990000000  0.5352870000000  0.5479570000000 1.0
C      1  0.5917010000000  0.4809170000000  0.5713070000000 1.0
C      1  0.5525350000000  0.4291980000000  0.5358170000000 1.0
C      1  0.5121190000000  0.3902310000000  0.5427550000000 1.0
C      1  0.4653630000000  0.4224250000000  0.5738230000000 1.0
C      1  0.4280270000000  0.4528980000000  0.5404070000000 1.0
C      1  0.4127520000000  0.4967580000000  0.5622730000000 1.0
C      1  0.4279140000000  0.5486990000000  0.5384760000000 1.0
C      1  0.4646510000000  0.5833840000000  0.5562160000000 1.0
C      1  0.4549280000000  0.4684280000000  0.5476660000000 1.0
C      1  0.4446040000000  0.4996380000000  0.5564570000000 1.0
C      1  0.4503980000000  0.5331450000000  0.5563760000000 1.0
C      1  0.4773520000000  0.5527490000000  0.5645310000000 1.0
C      1  0.5102060000000  0.5614960000000  0.5633070000000 1.0
C      1  0.5375970000000  0.5415510000000  0.5591230000000 1.0
C      1  0.5633460000000  0.5220750000000  0.5500930000000 1.0
C      1  0.5645860000000  0.4904250000000  0.5603350000000 1.0
C      1  0.5302670000000  0.4460480000000  0.5476740000000 1.0
C      1  0.5090370000000  0.4502820000000  0.5671010000000 1.0
C      1  0.4777630000000  0.4454230000000  0.5581920000000 1.0
C      1  0.5835410000000  0.4768920000000  0.4565110000000 1.0
C      1  0.5457890000000  0.4088940000000  0.4452260000000 1.0
C      1  0.4901930000000  0.4003420000000  0.4411860000000 1.0
C      1  0.4508230000000  0.4300370000000  0.4470890000000 1.0
C      1  0.4186160000000  0.4590880000000  0.4409160000000 1.0
C      1  0.4168950000000  0.5152080000000  0.4450650000000 1.0
C      1  0.4267200000000  0.5565790000000  0.4380140000000 1.0
C      1  0.4595380000000  0.5865300000000  0.4447660000000 1.0
C      1  0.5104260000000  0.5833680000000  0.4435370000000 1.0
C      1  0.5775680000000  0.5626280000000  0.4373000000000 1.0
C      1  0.6080660000000  0.5197760000000  0.4513500000000 1.0
C      1  0.5079980000000  0.5601000000000  0.5183870000000 1.0
C      1  0.5345480000000  0.5453170000000  0.5254670000000 1.0
C      1  0.5565530000000  0.5049950000000  0.5242080000000 1.0
C      1  0.5585240000000  0.4742370000000  0.5314590000000 1.0
C      1  0.5331920000000  0.4577480000000  0.5158720000000 1.0
C      1  0.5079450000000  0.4349480000000  0.5164890000000 1.0
C      1  0.4779370000000  0.4438390000000  0.5260950000000 1.0
C      1  0.4703110000000  0.4747530000000  0.5190540000000 1.0
C      1  0.4441050000000  0.5046290000000  0.5221550000000 1.0
C      1  0.4624080000000  0.5325480000000  0.5263290000000 1.0
C      1  0.4816370000000  0.5572980000000  0.5311070000000 1.0
C      1  0.5952850000000  0.5358610000000  0.4767620000000 1.0
C      1  0.5842840000000  0.4955240000000  0.4803270000000 1.0
C      1  0.5559980000000  0.4309020000000  0.4691570000000 1.0
C      1  0.5126480000000  0.4029300000000  0.4665860000000 1.0
C      1  0.4624080000000  0.4210830000000  0.4777790000000 1.0
C      1  0.4184140000000  0.4400650000000  0.4682310000000 1.0
C      1  0.4088830000000  0.4986280000000  0.4737410000000 1.0
C      1  0.4186090000000  0.5395000000000  0.4865760000000 1.0
C      1  0.4534420000000  0.5762330000000  0.4765930000000 1.0
C      1  0.4971200000000  0.5849540000000  0.4758960000000 1.0
C      1  0.5532010000000  0.5658790000000  0.4796640000000 1.0
C      1  0.4268760000000  0.5621630000000  0.4650740000000 1.0
C      1  0.4702580000000  0.6054380000000  0.4720320000000 1.0
C      1  0.5304780000000  0.5887490000000  0.4704930000000 1.0
C      1  0.5819040000000  0.5633890000000  0.4682230000000 1.0
C      1  0.6152600000000  0.5093050000000  0.4829110000000 1.0
C      1  0.5812530000000  0.4511380000000  0.4650060000000 1.0
C      1  0.5406760000000  0.3838190000000  0.4642020000000 1.0
C      1  0.4806560000000  0.3944320000000  0.4738890000000 1.0
C      1  0.4314320000000  0.4108070000000  0.4682170000000 1.0
C      1  0.4024400000000  0.4682820000000  0.4691020000000 1.0
C      1  0.3937340000000  0.5280990000000  0.4663600000000 1.0
C      1  0.4589890000000  0.4912470000000  0.4453860000000 1.0
C      1  0.4554250000000  0.5198980000000  0.4544720000000 1.0
C      1  0.4793490000000  0.5378310000000  0.4535000000000 1.0
C      1  0.5047770000000  0.5371460000000  0.4397590000000 1.0
C      1  0.5229850000000  0.5346250000000  0.4610360000000 1.0
C      1  0.5417680000000  0.5160320000000  0.4618750000000 1.0
C      1  0.5459620000000  0.4957310000000  0.4413650000000 1.0
C      1  0.5300980000000  0.4778840000000  0.4607110000000 1.0
C      1  0.5136630000000  0.4577610000000  0.4510870000000 1.0
C      1  0.4873030000000  0.4635760000000  0.4442740000000 1.0
C      1  0.4685130000000  0.4754640000000  0.4700290000000 1.0
C      1  0.4430460000000  0.5788930000000  0.5059030000000 1.0
C      1  0.4861430000000  0.6020210000000  0.5031860000000 1.0
C      1  0.5427600000000  0.5891550000000  0.5021940000000 1.0
C      1  0.5844170000000  0.5546920000000  0.5029050000000 1.0
C      1  0.6031530000000  0.5069930000000  0.5126980000000 1.0
C      1  0.5812280000000  0.4499420000000  0.4949610000000 1.0
C      1  0.5256620000000  0.3888090000000  0.4946480000000 1.0
C      1  0.4787560000000  0.3978940000000  0.5058250000000 1.0
C      1  0.4290560000000  0.4287350000000  0.4981870000000 1.0
C      1  0.4070370000000  0.4709170000000  0.5020150000000 1.0
C      1  0.3925120000000  0.5228150000000  0.5006250000000 1.0
C      1  0.4579980000000  0.4904450000000  0.4945480000000 1.0
C      1  0.4435930000000  0.5190790000000  0.4827840000000 1.0
C      1  0.4656410000000  0.5346890000000  0.4971100000000 1.0
C      1  0.4805840000000  0.5554230000000  0.4791660000000 1.0
C      1  0.5115340000000  0.5460540000000  0.4896850000000 1.0
C      1  0.5445170000000  0.5392180000000  0.4943460000000 1.0
C      1  0.5543190000000  0.5068000000000  0.4919360000000 1.0
C      1  0.5338230000000  0.4797580000000  0.4896740000000 1.0
C      1  0.5225430000000  0.4321080000000  0.4676350000000 1.0
C      1  0.5060180000000  0.4468620000000  0.4886660000000 1.0
C      1  0.4779020000000  0.4484140000000  0.4797960000000 1.0
C      1  0.4381630000000  0.5047170000000  0.4221240000000 1.0
C      1  0.4496380000000  0.5365860000000  0.4269450000000 1.0
C      1  0.4678820000000  0.5654290000000  0.4269180000000 1.0
C      1  0.4970340000000  0.5633960000000  0.4283930000000 1.0
C      1  0.5803330000000  0.5407560000000  0.4204160000000 1.0
C      1  0.5896150000000  0.5157440000000  0.4305380000000 1.0
C      1  0.5736170000000  0.4920490000000  0.4346240000000 1.0
C      1  0.5242120000000  0.4145310000000  0.4256910000000 1.0
C      1  0.4925110000000  0.4238660000000  0.4229310000000 1.0
C      1  0.4674540000000  0.4468320000000  0.4249080000000 1.0
C      1  0.4429770000000  0.4705370000000  0.4267540000000 1.0
END
