TITL C-3289321-8710-276 -0.00233722723144382 125000 -648.07653591891 0 0 123 (C1) n - 1
REM
REM in /nfs/bkarasulu/CARBON/AIRSS/Generating-Clusters/AIREBO/with-SteepDescent/Higher-Symm/SD-CG/HFTN-CG
REM
REM
REM
REM
REM
REM ./C.cell (b20cbc046b6831c77cfcea5457e17084)
REM
REM compiler GCC version 9.2.1 20190827 (Red Hat 9.2.1-1)
REM options -cpp -mtune=generic -march=x86-64 -g -O0 -fpre-include=/usr/include/finclude/math-vector-fortran.h
REM seed -1482087510 885811426 -2049864820 1411649930 -1739649557 -1321476985 -2086156912 1433993849 1935048638 -665565866 -1966232161 473957734 -430877591 579728662 -1327035529 1988115853 -1091625514 1386487529 -1371528496 -1761646883 -659558028 1826882451 1227203709 2143142546 629151272 -38206738 1676679169 -323558520 -94156108 -1230093486 -1029185151 352615123 -1345229296
REM
CELL 1.54180   50.00000   50.00000   50.00000   90.00000   90.00000   90.00000
LATT -1
SFAC C  
C      1  0.5333530000000  0.4845270000000  0.4520130000000 1.0
C      1  0.5230340000000  0.4961470000000  0.5464010000000 1.0
C      1  0.4636600000000  0.5205010000000  0.4802930000000 1.0
C      1  0.4511690000000  0.5249000000000  0.5086530000000 1.0
C      1  0.5977010000000  0.4959920000000  0.4487890000000 1.0
C      1  0.5765990000000  0.4958610000000  0.5529020000000 1.0
C      1  0.4454780000000  0.5481740000000  0.5307990000000 1.0
C      1  0.4430210000000  0.5451180000000  0.4751290000000 1.0
C      1  0.5263890000000  0.5745850000000  0.5200100000000 1.0
C      1  0.5250480000000  0.5632520000000  0.4877200000000 1.0
C      1  0.5408310000000  0.4389480000000  0.4117180000000 1.0
C      1  0.5311010000000  0.4697540000000  0.5803520000000 1.0
C      1  0.5787490000000  0.4969580000000  0.4858370000000 1.0
C      1  0.5673890000000  0.4968280000000  0.5140760000000 1.0
C      1  0.5192890000000  0.5011770000000  0.5860610000000 1.0
C      1  0.5315350000000  0.5099930000000  0.4046370000000 1.0
C      1  0.4744940000000  0.4518880000000  0.4789240000000 1.0
C      1  0.4766740000000  0.4698280000000  0.5057920000000 1.0
C      1  0.4350700000000  0.4875710000000  0.5118510000000 1.0
C      1  0.4384020000000  0.4820500000000  0.4826530000000 1.0
C      1  0.5154080000000  0.4688250000000  0.5343610000000 1.0
C      1  0.5126960000000  0.4575200000000  0.4517250000000 1.0
C      1  0.5287260000000  0.4313200000000  0.4422750000000 1.0
C      1  0.5155480000000  0.4484500000000  0.5588730000000 1.0
C      1  0.4944560000000  0.5655090000000  0.5273990000000 1.0
C      1  0.4945740000000  0.5769400000000  0.4954160000000 1.0
C      1  0.4785670000000  0.5472820000000  0.4552250000000 1.0
C      1  0.4779490000000  0.5389070000000  0.5348180000000 1.0
C      1  0.5567090000000  0.5353290000000  0.5159560000000 1.0
C      1  0.5581440000000  0.5375420000000  0.4850110000000 1.0
C      1  0.4577650000000  0.5781620000000  0.4362890000000 1.0
C      1  0.4531670000000  0.5597220000000  0.5694550000000 1.0
C      1  0.5320250000000  0.4494220000000  0.5142970000000 1.0
C      1  0.5435640000000  0.4657940000000  0.4864070000000 1.0
C      1  0.5275510000000  0.5514720000000  0.5449300000000 1.0
C      1  0.5258170000000  0.5265800000000  0.4434600000000 1.0
C      1  0.4243100000000  0.5072480000000  0.4413430000000 1.0
C      1  0.4380480000000  0.4985030000000  0.5647130000000 1.0
C      1  0.5759610000000  0.5198590000000  0.4405320000000 1.0
C      1  0.5689690000000  0.5284960000000  0.5619220000000 1.0
C      1  0.4136160000000  0.4814250000000  0.5527600000000 1.0
C      1  0.4124790000000  0.4940770000000  0.4663090000000 1.0
C      1  0.5333940000000  0.4981070000000  0.5140870000000 1.0
C      1  0.5348090000000  0.4983810000000  0.4812510000000 1.0
C      1  0.4578580000000  0.4594290000000  0.5284560000000 1.0
C      1  0.4476860000000  0.4477280000000  0.4644640000000 1.0
C      1  0.5232720000000  0.5301410000000  0.5193500000000 1.0
C      1  0.5257230000000  0.5309100000000  0.4771940000000 1.0
C      1  0.5323730000000  0.4228680000000  0.5440790000000 1.0
C      1  0.5459720000000  0.4187850000000  0.4640640000000 1.0
C      1  0.4456980000000  0.4492330000000  0.5794280000000 1.0
C      1  0.4631430000000  0.4363420000000  0.4397230000000 1.0
C      1  0.5071420000000  0.5549790000000  0.5657400000000 1.0
C      1  0.5142340000000  0.5548250000000  0.4284780000000 1.0
C      1  0.4662840000000  0.4977090000000  0.5207690000000 1.0
C      1  0.4631870000000  0.4926200000000  0.4699620000000 1.0
C      1  0.4723120000000  0.4241290000000  0.5171540000000 1.0
C      1  0.4581020000000  0.4159800000000  0.4864090000000 1.0
C      1  0.4656650000000  0.4825170000000  0.4389530000000 1.0
C      1  0.4688380000000  0.4892780000000  0.5536160000000 1.0
C      1  0.5121860000000  0.5355250000000  0.4062940000000 1.0
C      1  0.4968520000000  0.5290020000000  0.5757020000000 1.0
C      1  0.5037100000000  0.5002020000000  0.4463640000000 1.0
C      1  0.4968370000000  0.5069340000000  0.5537820000000 1.0
C      1  0.5181140000000  0.3961740000000  0.5110990000000 1.0
C      1  0.5050780000000  0.3967500000000  0.4866700000000 1.0
C      1  0.5537630000000  0.4556800000000  0.5668600000000 1.0
C      1  0.5622610000000  0.4484360000000  0.4288850000000 1.0
C      1  0.4396330000000  0.4348220000000  0.5160910000000 1.0
C      1  0.4282910000000  0.4323860000000  0.4866250000000 1.0
C      1  0.4844620000000  0.4570710000000  0.4324070000000 1.0
C      1  0.4664500000000  0.4559590000000  0.5600950000000 1.0
C      1  0.4251260000000  0.4622090000000  0.5303410000000 1.0
C      1  0.4167180000000  0.4602830000000  0.4709940000000 1.0
C      1  0.4925640000000  0.4607130000000  0.5759700000000 1.0
C      1  0.5087450000000  0.4413790000000  0.4159110000000 1.0
C      1  0.5015120000000  0.5067790000000  0.4153000000000 1.0
C      1  0.4926840000000  0.4859470000000  0.5875140000000 1.0
C      1  0.4672030000000  0.5774840000000  0.5540630000000 1.0
C      1  0.4741460000000  0.5865010000000  0.4604870000000 1.0
C      1  0.5490110000000  0.5054860000000  0.4302870000000 1.0
C      1  0.5462670000000  0.5034660000000  0.5658080000000 1.0
C      1  0.5867530000000  0.4483190000000  0.4878820000000 1.0
C      1  0.5965820000000  0.4544510000000  0.5131760000000 1.0
C      1  0.5561960000000  0.5550690000000  0.5580590000000 1.0
C      1  0.5538000000000  0.5451770000000  0.4460710000000 1.0
C      1  0.4045890000000  0.5168440000000  0.4890960000000 1.0
C      1  0.4077610000000  0.5102850000000  0.5418940000000 1.0
C      1  0.4960540000000  0.5691280000000  0.4434750000000 1.0
C      1  0.4935580000000  0.5792840000000  0.5649100000000 1.0
C      1  0.5745100000000  0.5187270000000  0.4720600000000 1.0
C      1  0.5799970000000  0.5215890000000  0.5316220000000 1.0
C      1  0.4648870000000  0.5015000000000  0.5853740000000 1.0
C      1  0.4426420000000  0.4912280000000  0.4261720000000 1.0
C      1  0.5075510000000  0.4789010000000  0.5028520000000 1.0
C      1  0.4941040000000  0.4785090000000  0.4709620000000 1.0
C      1  0.5542630000000  0.4559390000000  0.5392080000000 1.0
C      1  0.5590060000000  0.4626190000000  0.4562630000000 1.0
C      1  0.5517470000000  0.4220510000000  0.5185700000000 1.0
C      1  0.5581500000000  0.4350850000000  0.4877990000000 1.0
C      1  0.5779200000000  0.4717780000000  0.5301680000000 1.0
C      1  0.5863820000000  0.4724510000000  0.4688300000000 1.0
C      1  0.4318230000000  0.5332740000000  0.4453660000000 1.0
C      1  0.4317660000000  0.5290960000000  0.5554350000000 1.0
C      1  0.5675880000000  0.5728010000000  0.4841710000000 1.0
C      1  0.5645860000000  0.5661980000000  0.5118540000000 1.0
C      1  0.4174930000000  0.5566880000000  0.5135860000000 1.0
C      1  0.4158920000000  0.5431020000000  0.4892790000000 1.0
C      1  0.5057360000000  0.4279080000000  0.5115650000000 1.0
C      1  0.4904300000000  0.4254320000000  0.4817890000000 1.0
C      1  0.4644180000000  0.4114140000000  0.4548600000000 1.0
C      1  0.4763460000000  0.4261430000000  0.5470830000000 1.0
C      1  0.5006550000000  0.6081330000000  0.4990500000000 1.0
C      1  0.5210750000000  0.6071360000000  0.5159330000000 1.0
C      1  0.4630810000000  0.5757600000000  0.5203400000000 1.0
C      1  0.4622720000000  0.5706920000000  0.4866000000000 1.0
C      1  0.4548840000000  0.5486120000000  0.4371530000000 1.0
C      1  0.4648080000000  0.5281910000000  0.5642980000000 1.0
C      1  0.4931750000000  0.5308980000000  0.4812390000000 1.0
C      1  0.4914600000000  0.5193800000000  0.5134080000000 1.0
C      1  0.5471850000000  0.5682360000000  0.4623350000000 1.0
C      1  0.5558320000000  0.5783280000000  0.5369520000000 1.0
C      1  0.4107250000000  0.5059170000000  0.5142110000000 1.0
END
