TITL C-3289335-9438-107 0.00208559330709709 125000 -884.918903690242 0 0 158 (C1) n - 1
REM
REM in /nfs/bkarasulu/CARBON/AIRSS/Generating-Clusters/AIREBO/with-SteepDescent/Higher-Symm/SD-CG/HFTN-CG
REM
REM
REM
REM
REM
REM ./C.cell (b20cbc046b6831c77cfcea5457e17084)
REM
REM compiler GCC version 9.2.1 20190827 (Red Hat 9.2.1-1)
REM options -cpp -mtune=generic -march=x86-64 -g -O0 -fpre-include=/usr/include/finclude/math-vector-fortran.h
REM seed -1657959251 -1244358124 646267065 -546963338 -1256591121 -549956371 1552975807 1107454735 1568542673 1985690498 -1072468114 -2032221272 1453710342 -512380763 -1224102351 -1830014805 377390126 -1448817340 933997134 1678410161 -1004955822 -2025349759 -1040214691 1674271067 1101190359 1575918590 -1067067275 -2112332857 -1636773366 -620014223 1285650923 1594452872 -621811302
REM
CELL 1.54180   50.00000   50.00000   50.00000   90.00000   90.00000   90.00000
LATT -1
SFAC C  
C      1  0.4827970000000  0.3997760000000  0.5365680000000 1.0
C      1  0.4842270000000  0.5827270000000  0.5636840000000 1.0
C      1  0.4810960000000  0.5179880000000  0.4028180000000 1.0
C      1  0.5144640000000  0.3965910000000  0.5398110000000 1.0
C      1  0.5176820000000  0.5773350000000  0.5600200000000 1.0
C      1  0.5140210000000  0.5146340000000  0.3950020000000 1.0
C      1  0.4733900000000  0.5980920000000  0.5353480000000 1.0
C      1  0.4749860000000  0.4201610000000  0.5603190000000 1.0
C      1  0.4865430000000  0.4858490000000  0.3930540000000 1.0
C      1  0.5232090000000  0.6029550000000  0.5382950000000 1.0
C      1  0.5224470000000  0.4090280000000  0.5691560000000 1.0
C      1  0.5202350000000  0.4812380000000  0.3919320000000 1.0
C      1  0.4887250000000  0.5513520000000  0.5510250000000 1.0
C      1  0.4863600000000  0.5260470000000  0.4370210000000 1.0
C      1  0.4779090000000  0.4282690000000  0.5209520000000 1.0
C      1  0.5176860000000  0.5436120000000  0.5556020000000 1.0
C      1  0.5119200000000  0.5127140000000  0.4273490000000 1.0
C      1  0.5090760000000  0.4305200000000  0.5193470000000 1.0
C      1  0.4883410000000  0.4508790000000  0.5544380000000 1.0
C      1  0.4841500000000  0.4840750000000  0.4254850000000 1.0
C      1  0.4847570000000  0.5689080000000  0.5263910000000 1.0
C      1  0.5168440000000  0.4353300000000  0.5512990000000 1.0
C      1  0.5164770000000  0.4824020000000  0.4349420000000 1.0
C      1  0.5124500000000  0.5783100000000  0.5174720000000 1.0
C      1  0.5453600000000  0.5750020000000  0.5254260000000 1.0
C      1  0.5471450000000  0.4826060000000  0.4452620000000 1.0
C      1  0.5471970000000  0.4499780000000  0.5453740000000 1.0
C      1  0.4519300000000  0.5689430000000  0.5188370000000 1.0
C      1  0.4555510000000  0.4845420000000  0.4439690000000 1.0
C      1  0.4574000000000  0.4534260000000  0.5477110000000 1.0
C      1  0.5405690000000  0.4321130000000  0.5196720000000 1.0
C      1  0.5407200000000  0.5136500000000  0.4407690000000 1.0
C      1  0.5486550000000  0.5550720000000  0.5481830000000 1.0
C      1  0.4498210000000  0.4420670000000  0.5185430000000 1.0
C      1  0.4580320000000  0.5155670000000  0.4457770000000 1.0
C      1  0.4411630000000  0.5513680000000  0.5431890000000 1.0
C      1  0.4645010000000  0.6101070000000  0.5108000000000 1.0
C      1  0.4712090000000  0.4567970000000  0.3996170000000 1.0
C      1  0.4651270000000  0.4379570000000  0.5841730000000 1.0
C      1  0.5353320000000  0.6096430000000  0.5086720000000 1.0
C      1  0.5327030000000  0.4588610000000  0.4052430000000 1.0
C      1  0.5303320000000  0.4346000000000  0.5888740000000 1.0
C      1  0.4663370000000  0.3929450000000  0.5074850000000 1.0
C      1  0.4666980000000  0.5470240000000  0.4094490000000 1.0
C      1  0.4689940000000  0.5621400000000  0.5839250000000 1.0
C      1  0.5287280000000  0.3942920000000  0.5148670000000 1.0
C      1  0.5299870000000  0.5418160000000  0.4022570000000 1.0
C      1  0.5415370000000  0.5631020000000  0.5804810000000 1.0
C      1  0.5766110000000  0.4914780000000  0.5478790000000 1.0
C      1  0.5755510000000  0.5583300000000  0.4963690000000 1.0
C      1  0.5811170000000  0.4622690000000  0.4485530000000 1.0
C      1  0.4217150000000  0.4707560000000  0.5494220000000 1.0
C      1  0.4124230000000  0.5435440000000  0.4941650000000 1.0
C      1  0.4094400000000  0.4602230000000  0.4647510000000 1.0
C      1  0.5742940000000  0.5246370000000  0.5445300000000 1.0
C      1  0.5740930000000  0.4397920000000  0.4994120000000 1.0
C      1  0.5771410000000  0.5289960000000  0.4459640000000 1.0
C      1  0.4204640000000  0.5038960000000  0.5483170000000 1.0
C      1  0.4222580000000  0.4414060000000  0.4900050000000 1.0
C      1  0.4115730000000  0.5440700000000  0.4645130000000 1.0
C      1  0.3994150000000  0.4638540000000  0.5024250000000 1.0
C      1  0.3945140000000  0.5068940000000  0.5269660000000 1.0
C      1  0.4008090000000  0.5121920000000  0.4725620000000 1.0
C      1  0.5911470000000  0.4671180000000  0.4961790000000 1.0
C      1  0.5917960000000  0.5143660000000  0.5190170000000 1.0
C      1  0.5904520000000  0.5115020000000  0.4672740000000 1.0
C      1  0.3944410000000  0.5220410000000  0.5044840000000 1.0
C      1  0.4002420000000  0.4773710000000  0.5264550000000 1.0
C      1  0.3897060000000  0.4813420000000  0.4770820000000 1.0
C      1  0.5932590000000  0.5296740000000  0.4953030000000 1.0
C      1  0.5893430000000  0.4848090000000  0.5169990000000 1.0
C      1  0.5935390000000  0.4776490000000  0.4689250000000 1.0
C      1  0.5113880000000  0.5126340000000  0.4838010000000 1.0
C      1  0.5163230000000  0.4700660000000  0.5126850000000 1.0
C      1  0.5152610000000  0.5189520000000  0.5244450000000 1.0
C      1  0.4805600000000  0.5109180000000  0.4839680000000 1.0
C      1  0.4857250000000  0.4675310000000  0.4979860000000 1.0
C      1  0.4846470000000  0.5202170000000  0.5244160000000 1.0
C      1  0.5201020000000  0.4825110000000  0.4841970000000 1.0
C      1  0.5219990000000  0.5393030000000  0.4982400000000 1.0
C      1  0.5235970000000  0.4916200000000  0.5350830000000 1.0
C      1  0.4904110000000  0.4817120000000  0.4696160000000 1.0
C      1  0.4764980000000  0.5411980000000  0.4988930000000 1.0
C      1  0.4750710000000  0.4920450000000  0.5190010000000 1.0
C      1  0.4872620000000  0.4580000000000  0.4468000000000 1.0
C      1  0.4898610000000  0.4776460000000  0.5696720000000 1.0
C      1  0.4834090000000  0.5663390000000  0.4769480000000 1.0
C      1  0.5213250000000  0.4521520000000  0.4455360000000 1.0
C      1  0.5218470000000  0.4875690000000  0.5678020000000 1.0
C      1  0.5168530000000  0.5699710000000  0.4849300000000 1.0
C      1  0.4941320000000  0.5516030000000  0.4481630000000 1.0
C      1  0.4746760000000  0.5240870000000  0.5560280000000 1.0
C      1  0.4844540000000  0.4349670000000  0.4882660000000 1.0
C      1  0.5233480000000  0.5592700000000  0.4427990000000 1.0
C      1  0.5228610000000  0.5206540000000  0.5726280000000 1.0
C      1  0.5175890000000  0.4261720000000  0.4875250000000 1.0
C      1  0.4412680000000  0.4145020000000  0.5005580000000 1.0
C      1  0.4474470000000  0.5488560000000  0.5714220000000 1.0
C      1  0.4493870000000  0.5429290000000  0.4323310000000 1.0
C      1  0.5577160000000  0.4092150000000  0.5051440000000 1.0
C      1  0.5668030000000  0.5405620000000  0.5732230000000 1.0
C      1  0.5547290000000  0.5361280000000  0.4210910000000 1.0
C      1  0.4464560000000  0.5899080000000  0.4963160000000 1.0
C      1  0.4389960000000  0.4577100000000  0.5750940000000 1.0
C      1  0.4524690000000  0.4602870000000  0.4203410000000 1.0
C      1  0.5609600000000  0.5890710000000  0.5004300000000 1.0
C      1  0.5530810000000  0.4480010000000  0.5770290000000 1.0
C      1  0.5574560000000  0.4602140000000  0.4238900000000 1.0
C      1  0.5549480000000  0.4792980000000  0.5714340000000 1.0
C      1  0.5497420000000  0.5680180000000  0.4764660000000 1.0
C      1  0.5529630000000  0.4438160000000  0.4533360000000 1.0
C      1  0.4572800000000  0.4863620000000  0.5740320000000 1.0
C      1  0.4508620000000  0.5743520000000  0.4711590000000 1.0
C      1  0.4559290000000  0.4448400000000  0.4479300000000 1.0
C      1  0.5532780000000  0.5110630000000  0.5754380000000 1.0
C      1  0.5501930000000  0.4295290000000  0.4789230000000 1.0
C      1  0.5519670000000  0.5512220000000  0.4512940000000 1.0
C      1  0.4443660000000  0.5150920000000  0.5685350000000 1.0
C      1  0.4526610000000  0.4350430000000  0.4761610000000 1.0
C      1  0.4348170000000  0.5573520000000  0.4533130000000 1.0
C      1  0.4427650000000  0.5399490000000  0.5035700000000 1.0
C      1  0.4391550000000  0.4723490000000  0.4711500000000 1.0
C      1  0.4478740000000  0.4802110000000  0.5298680000000 1.0
C      1  0.5538430000000  0.5348540000000  0.4980940000000 1.0
C      1  0.5489170000000  0.4779820000000  0.4744430000000 1.0
C      1  0.5528480000000  0.4777230000000  0.5317260000000 1.0
C      1  0.4510500000000  0.4680820000000  0.4982630000000 1.0
C      1  0.4508840000000  0.5205540000000  0.4768470000000 1.0
C      1  0.4346840000000  0.5253110000000  0.5312160000000 1.0
C      1  0.5477990000000  0.4610060000000  0.5032710000000 1.0
C      1  0.5416670000000  0.5171780000000  0.4716990000000 1.0
C      1  0.5467590000000  0.5281150000000  0.5275470000000 1.0
C      1  0.4899870000000  0.4257360000000  0.4363730000000 1.0
C      1  0.4760240000000  0.4836020000000  0.6008820000000 1.0
C      1  0.4853130000000  0.5988690000000  0.4672050000000 1.0
C      1  0.5222170000000  0.4189050000000  0.4394670000000 1.0
C      1  0.5206210000000  0.4819310000000  0.6014050000000 1.0
C      1  0.5182730000000  0.5942230000000  0.4611240000000 1.0
C      1  0.4835740000000  0.5814320000000  0.4400250000000 1.0
C      1  0.4822270000000  0.5143320000000  0.5877200000000 1.0
C      1  0.4823200000000  0.4114160000000  0.4638240000000 1.0
C      1  0.5239970000000  0.5872040000000  0.4286390000000 1.0
C      1  0.5123250000000  0.5148700000000  0.6030120000000 1.0
C      1  0.5254210000000  0.4018190000000  0.4651140000000 1.0
C      1  0.5128140000000  0.4532900000000  0.6033880000000 1.0
C      1  0.5153980000000  0.6126320000000  0.4892390000000 1.0
C      1  0.5181630000000  0.4349090000000  0.4096950000000 1.0
C      1  0.4840260000000  0.4521610000000  0.5998780000000 1.0
C      1  0.4849860000000  0.6185520000000  0.4926970000000 1.0
C      1  0.4884000000000  0.4353180000000  0.4041740000000 1.0
C      1  0.5189390000000  0.5482620000000  0.6011510000000 1.0
C      1  0.5139600000000  0.3866340000000  0.4906740000000 1.0
C      1  0.5148590000000  0.5662870000000  0.4045720000000 1.0
C      1  0.4871080000000  0.5451980000000  0.5975140000000 1.0
C      1  0.4848280000000  0.3905260000000  0.4853920000000 1.0
C      1  0.4855000000000  0.5684090000000  0.4129080000000 1.0
C      1  0.4291270000000  0.5013000000000  0.4691970000000 1.0
C      1  0.5670400000000  0.5007380000000  0.4870440000000 1.0
END
