TITL C-3289320-4661-411 0.00380058714835678 125000 -384.709320691623 0 0 66 (C1) n - 1
REM
REM in /nfs/bkarasulu/CARBON/AIRSS/Generating-Clusters/AIREBO/with-SteepDescent/Higher-Symm/SD-CG/HFTN-CG
REM
REM
REM
REM
REM
REM ./C.cell (b20cbc046b6831c77cfcea5457e17084)
REM
REM compiler GCC version 9.2.1 20190827 (Red Hat 9.2.1-1)
REM options -cpp -mtune=generic -march=x86-64 -g -O0 -fpre-include=/usr/include/finclude/math-vector-fortran.h
REM seed -998847689 416832394 651237715 -880474339 500875224 -422250525 1022994507 1208875241 1127255081 -707413591 -1385110648 32957126 -1818949228 1152013260 -1797404896 979192911 -1426939946 2039290614 682746698 -523876419 531553549 1073279397 1970342601 -1469979111 1900610653 1894046804 1890096065 2080353887 368395609 119190473 -1470431219 -829525234 -183772697
REM
CELL 1.54180   50.00000   50.00000   50.00000   90.00000   90.00000   90.00000
LATT -1
SFAC C  
C      1  0.4732180000000  0.5179090000000  0.5837350000000 1.0
C      1  0.4385370000000  0.5071520000000  0.5198520000000 1.0
C      1  0.4524070000000  0.5081640000000  0.4459650000000 1.0
C      1  0.5252500000000  0.5075350000000  0.4262820000000 1.0
C      1  0.5683220000000  0.5013230000000  0.4884930000000 1.0
C      1  0.5434120000000  0.5051540000000  0.5596910000000 1.0
C      1  0.4738910000000  0.5421390000000  0.5158920000000 1.0
C      1  0.4717980000000  0.5386450000000  0.4890620000000 1.0
C      1  0.4940330000000  0.5327710000000  0.4744190000000 1.0
C      1  0.5172450000000  0.5277680000000  0.4873580000000 1.0
C      1  0.5184890000000  0.5296290000000  0.5142150000000 1.0
C      1  0.4969230000000  0.5360370000000  0.5288130000000 1.0
C      1  0.5077560000000  0.4573630000000  0.4484220000000 1.0
C      1  0.5615280000000  0.4454600000000  0.5140790000000 1.0
C      1  0.5218950000000  0.4693820000000  0.5295220000000 1.0
C      1  0.4755640000000  0.4741590000000  0.5456200000000 1.0
C      1  0.4429860000000  0.4434410000000  0.4836520000000 1.0
C      1  0.4627240000000  0.4612460000000  0.4656090000000 1.0
C      1  0.5499380000000  0.3436400000000  0.5099100000000 1.0
C      1  0.4682050000000  0.4480710000000  0.5453730000000 1.0
C      1  0.4161120000000  0.3916830000000  0.4920200000000 1.0
C      1  0.4931460000000  0.3655630000000  0.4792400000000 1.0
C      1  0.5074920000000  0.4313690000000  0.4410820000000 1.0
C      1  0.5981120000000  0.4078590000000  0.4916850000000 1.0
C      1  0.5052290000000  0.5737160000000  0.5388590000000 1.0
C      1  0.4729080000000  0.5778240000000  0.5337050000000 1.0
C      1  0.4686100000000  0.5743280000000  0.4714920000000 1.0
C      1  0.4970090000000  0.5699360000000  0.4603560000000 1.0
C      1  0.5264840000000  0.5662270000000  0.4820250000000 1.0
C      1  0.5297900000000  0.5678470000000  0.5159550000000 1.0
C      1  0.4487580000000  0.5502780000000  0.4723710000000 1.0
C      1  0.4973320000000  0.5404250000000  0.4454310000000 1.0
C      1  0.5414540000000  0.5369940000000  0.4730880000000 1.0
C      1  0.5438780000000  0.5384950000000  0.5259170000000 1.0
C      1  0.5018980000000  0.5452040000000  0.5571070000000 1.0
C      1  0.4541610000000  0.5529730000000  0.5347330000000 1.0
C      1  0.5413010000000  0.4962620000000  0.4470310000000 1.0
C      1  0.5606790000000  0.4944960000000  0.5150920000000 1.0
C      1  0.5154200000000  0.5003130000000  0.5647380000000 1.0
C      1  0.4514790000000  0.5134800000000  0.5665740000000 1.0
C      1  0.4381320000000  0.5019910000000  0.4921130000000 1.0
C      1  0.4779900000000  0.4972730000000  0.4391300000000 1.0
C      1  0.5489810000000  0.5894140000000  0.5199050000000 1.0
C      1  0.5145260000000  0.5953480000000  0.5553940000000 1.0
C      1  0.4655040000000  0.5980380000000  0.5157270000000 1.0
C      1  0.4636570000000  0.5959790000000  0.4885180000000 1.0
C      1  0.5042070000000  0.5908900000000  0.4424560000000 1.0
C      1  0.5421290000000  0.5902110000000  0.4711270000000 1.0
C      1  0.5724390000000  0.3908790000000  0.5015660000000 1.0
C      1  0.5616860000000  0.3668810000000  0.5069310000000 1.0
C      1  0.4313950000000  0.4198690000000  0.4872320000000 1.0
C      1  0.4474320000000  0.3915590000000  0.4856180000000 1.0
C      1  0.4707890000000  0.3785010000000  0.4836770000000 1.0
C      1  0.5733880000000  0.4227440000000  0.5061770000000 1.0
C      1  0.4385350000000  0.5304820000000  0.5431660000000 1.0
C      1  0.4420270000000  0.5201550000000  0.4699080000000 1.0
C      1  0.4985880000000  0.5158460000000  0.4319030000000 1.0
C      1  0.5548840000000  0.5129520000000  0.4661020000000 1.0
C      1  0.5556690000000  0.5145480000000  0.5353020000000 1.0
C      1  0.4991530000000  0.5224290000000  0.5731710000000 1.0
C      1  0.4412400000000  0.4753840000000  0.4848640000000 1.0
C      1  0.4833230000000  0.4719240000000  0.4507980000000 1.0
C      1  0.5320000000000  0.4706140000000  0.4541360000000 1.0
C      1  0.5482330000000  0.4690410000000  0.5196950000000 1.0
C      1  0.5035730000000  0.4805040000000  0.5478760000000 1.0
C      1  0.4551450000000  0.4942830000000  0.5430430000000 1.0
END
