TITL C-3289328-6581-396 -0.00041066192563154 125000 -209.386146349289 0 0 35 (C3) n - 1
REM
REM in /nfs/bkarasulu/CARBON/AIRSS/Generating-Clusters/AIREBO/with-SteepDescent/Higher-Symm/SD-CG/HFTN-CG
REM
REM
REM
REM
REM
REM ./C.cell (b20cbc046b6831c77cfcea5457e17084)
REM
REM compiler GCC version 9.2.1 20190827 (Red Hat 9.2.1-1)
REM options -cpp -mtune=generic -march=x86-64 -g -O0 -fpre-include=/usr/include/finclude/math-vector-fortran.h
REM seed 1770489819 -685565900 -344172401 1503866540 1222254962 -1708870899 -1524532113 -366179674 1662828250 1931586326 -1081769597 951058418 264682336 -127742916 -1010268987 -2132449398 -1855208081 -1992027990 -1666201601 1460914375 27305048 1028127100 -1514882644 679628424 -357063841 1758248451 152757977 202057246 -582160873 1831517429 -798827294 556857721 38712699
REM
CELL 1.54180   50.00000   50.00000   50.00000   90.00000   90.00000   90.00000
LATT -1
SFAC C  
C      1  0.4784490000000  0.4702300000000  0.4758000000000 1.0
C      1  0.5310640000000  0.4695950000000  0.4944480000000 1.0
C      1  0.4886090000000  0.4702290000000  0.5306930000000 1.0
C      1  0.4870650000000  0.5372700000000  0.4739640000000 1.0
C      1  0.5295080000000  0.5367880000000  0.5018400000000 1.0
C      1  0.4841480000000  0.5374280000000  0.5246610000000 1.0
C      1  0.5432640000000  0.5269470000000  0.4789130000000 1.0
C      1  0.4969580000000  0.5277090000000  0.5481810000000 1.0
C      1  0.4601270000000  0.5280070000000  0.4734390000000 1.0
C      1  0.5561520000000  0.4826880000000  0.4761020000000 1.0
C      1  0.4921850000000  0.4837160000000  0.5613980000000 1.0
C      1  0.4503050000000  0.4840250000000  0.4633460000000 1.0
C      1  0.5247200000000  0.4832450000000  0.4637090000000 1.0
C      1  0.5186360000000  0.4835040000000  0.5403680000000 1.0
C      1  0.4552940000000  0.4842190000000  0.4967670000000 1.0
C      1  0.5259990000000  0.5149400000000  0.4602280000000 1.0
C      1  0.5215590000000  0.5151930000000  0.5427500000000 1.0
C      1  0.4523190000000  0.5159800000000  0.4976410000000 1.0
C      1  0.4586300000000  0.4746250000000  0.5247980000000 1.0
C      1  0.4986120000000  0.4739380000000  0.4527240000000 1.0
C      1  0.5410350000000  0.4735570000000  0.5233910000000 1.0
C      1  0.4574310000000  0.5281930000000  0.5220390000000 1.0
C      1  0.5025280000000  0.5274460000000  0.4522750000000 1.0
C      1  0.5403930000000  0.5271320000000  0.5262180000000 1.0
C      1  0.4902960000000  0.5147960000000  0.4298400000000 1.0
C      1  0.5657150000000  0.5140530000000  0.5270300000000 1.0
C      1  0.4438460000000  0.5156650000000  0.5437520000000 1.0
C      1  0.4898830000000  0.4868360000000  0.4301860000000 1.0
C      1  0.5651380000000  0.4860940000000  0.5269110000000 1.0
C      1  0.4437530000000  0.4877000000000  0.5437240000000 1.0
C      1  0.4514010000000  0.5096860000000  0.4529010000000 1.0
C      1  0.4831430000000  0.5095430000000  0.5658670000000 1.0
C      1  0.5650940000000  0.5082860000000  0.4818950000000 1.0
C      1  0.5002860000000  0.5406520000000  0.5001470000000 1.0
C      1  0.4993910000000  0.4713910000000  0.5003100000000 1.0
END
