TITL C-3289322-3858-708 0.00211465002331651 125000 -126.2290977969 0 0 25 (C1) n - 1
REM
REM in /nfs/bkarasulu/CARBON/AIRSS/Generating-Clusters/AIREBO/with-SteepDescent/Higher-Symm/SD-CG/HFTN-CG
REM
REM
REM
REM
REM
REM ./C.cell (b20cbc046b6831c77cfcea5457e17084)
REM
REM compiler GCC version 9.2.1 20190827 (Red Hat 9.2.1-1)
REM options -cpp -mtune=generic -march=x86-64 -g -O0 -fpre-include=/usr/include/finclude/math-vector-fortran.h
REM seed -669053265 -131784200 740501829 979956330 1897298857 -341696669 1659729923 -346725014 2051398915 -476445633 -12993863 504068695 1468896443 1971516184 -656781644 709594339 1976439853 -1125470405 -425806667 1258625554 806525080 -1811017547 1998862975 -148057198 -1987428154 -1503816034 -1715406059 1661369602 -64000031 1890520183 -1901714166 197956349 -32659689
REM
CELL 1.54180   50.00000   50.00000   50.00000   90.00000   90.00000   90.00000
LATT -1
SFAC C  
C      1  0.4641840000000  0.4593480000000  0.4658000000000 1.0
C      1  0.4523800000000  0.5340300000000  0.5104630000000 1.0
C      1  0.4671180000000  0.4726110000000  0.5418450000000 1.0
C      1  0.5144180000000  0.5429290000000  0.5451180000000 1.0
C      1  0.5409640000000  0.4517030000000  0.5213980000000 1.0
C      1  0.5365600000000  0.5390690000000  0.4933850000000 1.0
C      1  0.5309200000000  0.4652200000000  0.4633090000000 1.0
C      1  0.4900320000000  0.5296840000000  0.4632020000000 1.0
C      1  0.4911860000000  0.5510390000000  0.4799430000000 1.0
C      1  0.4762650000000  0.4584230000000  0.4949740000000 1.0
C      1  0.4799780000000  0.5464850000000  0.5102210000000 1.0
C      1  0.4877600000000  0.4544760000000  0.5265510000000 1.0
C      1  0.5073050000000  0.5651640000000  0.5239120000000 1.0
C      1  0.5122480000000  0.4446130000000  0.5055220000000 1.0
C      1  0.5154820000000  0.5578870000000  0.4960440000000 1.0
C      1  0.5073030000000  0.4498190000000  0.4763550000000 1.0
C      1  0.4997380000000  0.5262160000000  0.5255300000000 1.0
C      1  0.5161070000000  0.4733430000000  0.5226180000000 1.0
C      1  0.5316930000000  0.5115640000000  0.4924470000000 1.0
C      1  0.5301520000000  0.4920180000000  0.4690140000000 1.0
C      1  0.4984030000000  0.5017800000000  0.4727140000000 1.0
C      1  0.4907720000000  0.4734000000000  0.4612410000000 1.0
C      1  0.4505660000000  0.5092640000000  0.5060750000000 1.0
C      1  0.4720030000000  0.4877840000000  0.5115890000000 1.0
C      1  0.5036370000000  0.4995800000000  0.5074700000000 1.0
END
