TITL C-3289334-2237-309 -0.00069030541669131 125000 -848.383679776072 0 0 158 (C1) n - 1
REM
REM in /nfs/bkarasulu/CARBON/AIRSS/Generating-Clusters/AIREBO/with-SteepDescent/Higher-Symm/SD-CG/HFTN-CG
REM
REM
REM
REM
REM
REM ./C.cell (b20cbc046b6831c77cfcea5457e17084)
REM
REM compiler GCC version 9.2.1 20190827 (Red Hat 9.2.1-1)
REM options -cpp -mtune=generic -march=x86-64 -g -O0 -fpre-include=/usr/include/finclude/math-vector-fortran.h
REM seed -2064487366 -1774780634 1326333169 1850951928 1577069592 -516199860 -1756124160 -67595320 -395525788 918872411 -303892539 -894387684 1911543781 -50011341 -1994451500 1262779640 1068388764 187192244 582333366 1892714851 1955940284 39667265 668901115 -1723329194 -631354023 1020790531 -1533175234 1214069514 -1565455959 -1386042752 -1057034821 -574428204 197179266
REM
CELL 1.54180   50.00000   50.00000   50.00000   90.00000   90.00000   90.00000
LATT -1
SFAC C  
C      1  0.4985840000000  0.4345120000000  0.5208990000000 1.0
C      1  0.4911780000000  0.4405150000000  0.4608550000000 1.0
C      1  0.4958540000000  0.4715240000000  0.4523390000000 1.0
C      1  0.4957960000000  0.4607520000000  0.5393000000000 1.0
C      1  0.5126940000000  0.4834650000000  0.6041520000000 1.0
C      1  0.5133420000000  0.4831280000000  0.3950850000000 1.0
C      1  0.5257020000000  0.5069230000000  0.3914990000000 1.0
C      1  0.5222430000000  0.5097890000000  0.6084790000000 1.0
C      1  0.4047700000000  0.5451350000000  0.5484290000000 1.0
C      1  0.4239310000000  0.5479010000000  0.4587890000000 1.0
C      1  0.4561090000000  0.5721330000000  0.5544990000000 1.0
C      1  0.4620280000000  0.5983260000000  0.4527850000000 1.0
C      1  0.4840360000000  0.4431880000000  0.5730810000000 1.0
C      1  0.4700230000000  0.4418830000000  0.4141620000000 1.0
C      1  0.4697150000000  0.4755780000000  0.4233090000000 1.0
C      1  0.4686030000000  0.4619210000000  0.5863110000000 1.0
C      1  0.6194480000000  0.5021560000000  0.4584280000000 1.0
C      1  0.6225140000000  0.5171650000000  0.5311500000000 1.0
C      1  0.5282980000000  0.4634740000000  0.4153830000000 1.0
C      1  0.5277010000000  0.4669490000000  0.5866950000000 1.0
C      1  0.4374260000000  0.4804190000000  0.4618130000000 1.0
C      1  0.4349870000000  0.4746530000000  0.5414410000000 1.0
C      1  0.5067760000000  0.4039000000000  0.5445970000000 1.0
C      1  0.4821840000000  0.3965800000000  0.4463190000000 1.0
C      1  0.4995680000000  0.6063340000000  0.5439560000000 1.0
C      1  0.5175680000000  0.6232070000000  0.4704280000000 1.0
C      1  0.4259800000000  0.5038070000000  0.5346070000000 1.0
C      1  0.4366800000000  0.5128100000000  0.4721430000000 1.0
C      1  0.5164520000000  0.4930880000000  0.5304170000000 1.0
C      1  0.5080290000000  0.5007130000000  0.4614140000000 1.0
C      1  0.4557420000000  0.5361330000000  0.4563650000000 1.0
C      1  0.4287710000000  0.5584380000000  0.5445060000000 1.0
C      1  0.4708990000000  0.5089250000000  0.5942780000000 1.0
C      1  0.4705180000000  0.5068690000000  0.4335860000000 1.0
C      1  0.4136840000000  0.5513820000000  0.4860100000000 1.0
C      1  0.3838080000000  0.5517270000000  0.5304500000000 1.0
C      1  0.5293780000000  0.4293010000000  0.5455140000000 1.0
C      1  0.5226670000000  0.4450640000000  0.4629410000000 1.0
C      1  0.5940520000000  0.4265210000000  0.5153350000000 1.0
C      1  0.5930340000000  0.4247090000000  0.4899120000000 1.0
C      1  0.5105030000000  0.4548450000000  0.5693900000000 1.0
C      1  0.4986100000000  0.4576310000000  0.4237200000000 1.0
C      1  0.5900720000000  0.4880490000000  0.4223490000000 1.0
C      1  0.5926110000000  0.5053050000000  0.5718520000000 1.0
C      1  0.4151720000000  0.5209420000000  0.4467260000000 1.0
C      1  0.4093510000000  0.5173800000000  0.5513220000000 1.0
C      1  0.5444900000000  0.5210480000000  0.5287410000000 1.0
C      1  0.5438160000000  0.5179910000000  0.4486510000000 1.0
C      1  0.5723070000000  0.4438350000000  0.5603900000000 1.0
C      1  0.5629120000000  0.4315990000000  0.4429810000000 1.0
C      1  0.5163050000000  0.5084340000000  0.5563780000000 1.0
C      1  0.5095720000000  0.5126200000000  0.4295950000000 1.0
C      1  0.5190630000000  0.6103610000000  0.5280080000000 1.0
C      1  0.5103110000000  0.5985490000000  0.4741800000000 1.0
C      1  0.4676610000000  0.5623070000000  0.4682160000000 1.0
C      1  0.4728530000000  0.5534360000000  0.5234070000000 1.0
C      1  0.4842880000000  0.5321230000000  0.5857400000000 1.0
C      1  0.5010080000000  0.5372230000000  0.3995160000000 1.0
C      1  0.4421600000000  0.4733000000000  0.5746600000000 1.0
C      1  0.4366230000000  0.4774450000000  0.4279490000000 1.0
C      1  0.5977910000000  0.5569350000000  0.4724600000000 1.0
C      1  0.5725350000000  0.5676510000000  0.5347210000000 1.0
C      1  0.5478410000000  0.5806720000000  0.5476760000000 1.0
C      1  0.5501800000000  0.5646630000000  0.4638530000000 1.0
C      1  0.4878650000000  0.5767080000000  0.5432400000000 1.0
C      1  0.4867910000000  0.5806730000000  0.4477190000000 1.0
C      1  0.4145470000000  0.4566150000000  0.4394000000000 1.0
C      1  0.4152480000000  0.4562440000000  0.5621310000000 1.0
C      1  0.5945490000000  0.4987600000000  0.4477550000000 1.0
C      1  0.6001860000000  0.5099570000000  0.5444110000000 1.0
C      1  0.5152780000000  0.5284580000000  0.5839700000000 1.0
C      1  0.5319230000000  0.5319470000000  0.4127590000000 1.0
C      1  0.5720150000000  0.4400720000000  0.4727890000000 1.0
C      1  0.5778850000000  0.4523700000000  0.5279420000000 1.0
C      1  0.5565220000000  0.4699620000000  0.5755350000000 1.0
C      1  0.5573020000000  0.4459570000000  0.4198380000000 1.0
C      1  0.5474900000000  0.5191590000000  0.5626390000000 1.0
C      1  0.5407280000000  0.4859150000000  0.4377360000000 1.0
C      1  0.4813780000000  0.4247890000000  0.5486340000000 1.0
C      1  0.4712840000000  0.4258490000000  0.4428180000000 1.0
C      1  0.4744870000000  0.5011300000000  0.4670350000000 1.0
C      1  0.4845120000000  0.4863650000000  0.5208910000000 1.0
C      1  0.5685890000000  0.4995540000000  0.4629200000000 1.0
C      1  0.5696250000000  0.5028000000000  0.5338770000000 1.0
C      1  0.5292680000000  0.4617040000000  0.5349190000000 1.0
C      1  0.5315300000000  0.4774330000000  0.4693570000000 1.0
C      1  0.4717700000000  0.5535890000000  0.5757400000000 1.0
C      1  0.4791960000000  0.5283350000000  0.4086860000000 1.0
C      1  0.5660740000000  0.4746630000000  0.4198570000000 1.0
C      1  0.5664120000000  0.4995120000000  0.5747600000000 1.0
C      1  0.4437240000000  0.5024450000000  0.5871920000000 1.0
C      1  0.4238250000000  0.4978380000000  0.4093680000000 1.0
C      1  0.4660060000000  0.4696930000000  0.4767940000000 1.0
C      1  0.4567650000000  0.4743670000000  0.5197610000000 1.0
C      1  0.5649200000000  0.5748270000000  0.4360060000000 1.0
C      1  0.5486710000000  0.5792320000000  0.5761530000000 1.0
C      1  0.5621790000000  0.4707250000000  0.4791590000000 1.0
C      1  0.5581200000000  0.4761290000000  0.5421330000000 1.0
C      1  0.4453520000000  0.4282940000000  0.4572920000000 1.0
C      1  0.4510450000000  0.4225340000000  0.5434300000000 1.0
C      1  0.5206290000000  0.5692040000000  0.5380280000000 1.0
C      1  0.5183000000000  0.5740450000000  0.4566590000000 1.0
C      1  0.4882940000000  0.5324540000000  0.4472140000000 1.0
C      1  0.4893860000000  0.5368170000000  0.5429860000000 1.0
C      1  0.4859150000000  0.4809160000000  0.3938820000000 1.0
C      1  0.4840220000000  0.4831660000000  0.5991190000000 1.0
C      1  0.4239790000000  0.4499770000000  0.4699110000000 1.0
C      1  0.4284030000000  0.4421780000000  0.5337650000000 1.0
C      1  0.5572030000000  0.5419850000000  0.4317520000000 1.0
C      1  0.5432070000000  0.5470050000000  0.5782970000000 1.0
C      1  0.4896600000000  0.3867590000000  0.4681820000000 1.0
C      1  0.5032340000000  0.3878780000000  0.5218930000000 1.0
C      1  0.5196800000000  0.5389430000000  0.5417480000000 1.0
C      1  0.5196830000000  0.5416650000000  0.4535880000000 1.0
C      1  0.4459720000000  0.5857580000000  0.4754310000000 1.0
C      1  0.4526460000000  0.5879160000000  0.5250190000000 1.0
C      1  0.5550610000000  0.4218950000000  0.5609190000000 1.0
C      1  0.5387060000000  0.4243100000000  0.4573590000000 1.0
C      1  0.5851860000000  0.5531030000000  0.4486750000000 1.0
C      1  0.5715200000000  0.5509600000000  0.5597750000000 1.0
C      1  0.5435140000000  0.3767830000000  0.4943340000000 1.0
C      1  0.5313570000000  0.4283940000000  0.5130190000000 1.0
C      1  0.5769290000000  0.5934870000000  0.5045690000000 1.0
C      1  0.4534910000000  0.3824840000000  0.5050140000000 1.0
C      1  0.4051670000000  0.4072290000000  0.5011500000000 1.0
C      1  0.5530420000000  0.5999430000000  0.5014040000000 1.0
C      1  0.5633960000000  0.5446560000000  0.4881850000000 1.0
C      1  0.5866330000000  0.4996170000000  0.5082670000000 1.0
C      1  0.4098390000000  0.4879530000000  0.5015420000000 1.0
C      1  0.5172340000000  0.4774700000000  0.5002180000000 1.0
C      1  0.4943890000000  0.5873410000000  0.4982640000000 1.0
C      1  0.4693030000000  0.5068890000000  0.5002340000000 1.0
C      1  0.5377330000000  0.4002050000000  0.5026820000000 1.0
C      1  0.4897410000000  0.5300870000000  0.4957420000000 1.0
C      1  0.3958210000000  0.4636890000000  0.5032300000000 1.0
C      1  0.5658640000000  0.5139690000000  0.4903350000000 1.0
C      1  0.4731970000000  0.6027020000000  0.5141270000000 1.0
C      1  0.5984130000000  0.4746280000000  0.5124740000000 1.0
C      1  0.4064470000000  0.5940870000000  0.5085330000000 1.0
C      1  0.4433900000000  0.5487870000000  0.5176520000000 1.0
C      1  0.4183880000000  0.4385550000000  0.5014630000000 1.0
C      1  0.3874780000000  0.5446990000000  0.5044300000000 1.0
C      1  0.4923560000000  0.4582190000000  0.4898640000000 1.0
C      1  0.4336500000000  0.4005790000000  0.4990110000000 1.0
C      1  0.4293840000000  0.5761880000000  0.5031630000000 1.0
C      1  0.5849760000000  0.5626460000000  0.5034670000000 1.0
C      1  0.4375060000000  0.5178580000000  0.5057780000000 1.0
C      1  0.4825800000000  0.5594820000000  0.4938260000000 1.0
C      1  0.4826080000000  0.3936350000000  0.4980490000000 1.0
C      1  0.5251780000000  0.5834750000000  0.5081050000000 1.0
C      1  0.4388040000000  0.4793110000000  0.4956690000000 1.0
C      1  0.5362030000000  0.5058540000000  0.4992310000000 1.0
C      1  0.5171520000000  0.5254630000000  0.4828880000000 1.0
C      1  0.5545310000000  0.4483100000000  0.5035590000000 1.0
C      1  0.4489890000000  0.4253660000000  0.4884790000000 1.0
C      1  0.4043640000000  0.5183400000000  0.4981670000000 1.0
C      1  0.4795030000000  0.4274690000000  0.4967740000000 1.0
C      1  0.5321010000000  0.5549390000000  0.4909570000000 1.0
END
