TITL C-3289321-8710-343 -0.000471344202836067 125000 -349.277766620012 0 0 65 (C1) n - 1
REM
REM in /nfs/bkarasulu/CARBON/AIRSS/Generating-Clusters/AIREBO/with-SteepDescent/Higher-Symm/SD-CG/HFTN-CG
REM
REM
REM
REM
REM
REM ./C.cell (b20cbc046b6831c77cfcea5457e17084)
REM
REM compiler GCC version 9.2.1 20190827 (Red Hat 9.2.1-1)
REM options -cpp -mtune=generic -march=x86-64 -g -O0 -fpre-include=/usr/include/finclude/math-vector-fortran.h
REM seed 419484757 -1343069145 -582186636 -372254714 1804960832 254692568 -1637941438 517160836 -1731927327 -764994857 1370697606 1080777781 816660499 344568952 456710417 581604493 -373569205 180468498 1692744550 -835399824 -859253421 -25350483 -1247941046 -976999571 -119412676 -463799546 -40105555 -70366507 724143537 699063914 -151877896 598532004 -1649162605
REM
CELL 1.54180   50.00000   50.00000   50.00000   90.00000   90.00000   90.00000
LATT -1
SFAC C  
C      1  0.4571630000000  0.5204240000000  0.4354500000000 1.0
C      1  0.4530300000000  0.4727910000000  0.4438710000000 1.0
C      1  0.4497570000000  0.4359870000000  0.5082390000000 1.0
C      1  0.4500090000000  0.4673260000000  0.5554530000000 1.0
C      1  0.4554640000000  0.5206760000000  0.5620290000000 1.0
C      1  0.4586940000000  0.5563140000000  0.5265810000000 1.0
C      1  0.4646180000000  0.5566720000000  0.4730940000000 1.0
C      1  0.5043200000000  0.4431570000000  0.5388350000000 1.0
C      1  0.5059790000000  0.5091130000000  0.5571890000000 1.0
C      1  0.5199450000000  0.5546760000000  0.5308240000000 1.0
C      1  0.5125600000000  0.5528980000000  0.4733050000000 1.0
C      1  0.5032320000000  0.5111520000000  0.4474710000000 1.0
C      1  0.5234860000000  0.4626830000000  0.4477750000000 1.0
C      1  0.5229010000000  0.4370540000000  0.4944050000000 1.0
C      1  0.5338050000000  0.5213640000000  0.4327960000000 1.0
C      1  0.5374060000000  0.4479930000000  0.4283710000000 1.0
C      1  0.5404870000000  0.4155950000000  0.4934250000000 1.0
C      1  0.5303060000000  0.4518620000000  0.5420930000000 1.0
C      1  0.5234270000000  0.5026840000000  0.5801660000000 1.0
C      1  0.5368300000000  0.5773830000000  0.5415630000000 1.0
C      1  0.5251910000000  0.5807890000000  0.4738980000000 1.0
C      1  0.4903730000000  0.5635230000000  0.5165510000000 1.0
C      1  0.4859430000000  0.5536490000000  0.4550040000000 1.0
C      1  0.5005500000000  0.4810720000000  0.4365000000000 1.0
C      1  0.5070600000000  0.4463170000000  0.4686110000000 1.0
C      1  0.4979960000000  0.4343920000000  0.5128910000000 1.0
C      1  0.4836380000000  0.4589680000000  0.5536370000000 1.0
C      1  0.4993550000000  0.5417870000000  0.5504760000000 1.0
C      1  0.5326940000000  0.5084740000000  0.4642400000000 1.0
C      1  0.5427160000000  0.4790270000000  0.4686860000000 1.0
C      1  0.5346650000000  0.4664120000000  0.4966120000000 1.0
C      1  0.5465270000000  0.4763830000000  0.5274260000000 1.0
C      1  0.5274500000000  0.5043420000000  0.5311190000000 1.0
C      1  0.5352640000000  0.5315520000000  0.5185360000000 1.0
C      1  0.5344450000000  0.5317660000000  0.4852750000000 1.0
C      1  0.4772670000000  0.5163960000000  0.5738980000000 1.0
C      1  0.4750170000000  0.5541560000000  0.5522010000000 1.0
C      1  0.4698950000000  0.5748790000000  0.4931490000000 1.0
C      1  0.4823830000000  0.5328270000000  0.4354050000000 1.0
C      1  0.4759530000000  0.4714800000000  0.4293320000000 1.0
C      1  0.4748450000000  0.4341120000000  0.4970640000000 1.0
C      1  0.4625780000000  0.4512060000000  0.5791770000000 1.0
C      1  0.5752230000000  0.4839950000000  0.5203530000000 1.0
C      1  0.5811610000000  0.5114540000000  0.5244330000000 1.0
C      1  0.5656560000000  0.5302720000000  0.5100440000000 1.0
C      1  0.5679010000000  0.5310920000000  0.4803770000000 1.0
C      1  0.5800440000000  0.5105830000000  0.4655010000000 1.0
C      1  0.5729870000000  0.4837470000000  0.4716430000000 1.0
C      1  0.5841790000000  0.4731320000000  0.4955780000000 1.0
C      1  0.4787910000000  0.5142830000000  0.5167550000000 1.0
C      1  0.4973400000000  0.5369470000000  0.4992160000000 1.0
C      1  0.4851440000000  0.5192280000000  0.4751200000000 1.0
C      1  0.4821350000000  0.4872230000000  0.4713890000000 1.0
C      1  0.4762410000000  0.4548510000000  0.4715270000000 1.0
C      1  0.4714510000000  0.4685090000000  0.5170360000000 1.0
C      1  0.4830400000000  0.4903350000000  0.5405280000000 1.0
C      1  0.4535800000000  0.5280880000000  0.4841730000000 1.0
C      1  0.4515090000000  0.5014180000000  0.4630780000000 1.0
C      1  0.4467740000000  0.4708510000000  0.4772390000000 1.0
C      1  0.4388160000000  0.4670250000000  0.5075580000000 1.0
C      1  0.4388320000000  0.4822750000000  0.5349990000000 1.0
C      1  0.4492250000000  0.5103070000000  0.5330990000000 1.0
C      1  0.4448550000000  0.5345010000000  0.5133010000000 1.0
C      1  0.5151380000000  0.4876790000000  0.5072760000000 1.0
C      1  0.4875780000000  0.4891500000000  0.5010990000000 1.0
END
