TITL C-3289324-3781-525 0.000554420306210414 125000 -527.561221689858 0 0 104 (C1) n - 1
REM
REM in /nfs/bkarasulu/CARBON/AIRSS/Generating-Clusters/AIREBO/with-SteepDescent/Higher-Symm/SD-CG/HFTN-CG
REM
REM
REM
REM
REM
REM ./C.cell (b20cbc046b6831c77cfcea5457e17084)
REM
REM compiler GCC version 9.2.1 20190827 (Red Hat 9.2.1-1)
REM options -cpp -mtune=generic -march=x86-64 -g -O0 -fpre-include=/usr/include/finclude/math-vector-fortran.h
REM seed 1381143301 643175419 571551957 1901717187 440829402 -235168449 256302504 -1622807435 245228299 -1429670813 802223717 1423448008 1048629546 -1193624190 -1165088631 1090258245 -1241976429 1866153495 -1453847175 -1553170713 -1117186717 1433736826 447252270 736570440 -1222375531 1350952765 -1060232407 -1210553071 2037580227 -1189939327 -696262870 1382588123 398847571
REM
CELL 1.54180   50.00000   50.00000   50.00000   90.00000   90.00000   90.00000
LATT -1
SFAC C  
C      1  0.4872980000000  0.4624850000000  0.4178350000000 1.0
C      1  0.4665820000000  0.5184920000000  0.4194200000000 1.0
C      1  0.5171170000000  0.5464840000000  0.4202060000000 1.0
C      1  0.5380910000000  0.4714040000000  0.4285560000000 1.0
C      1  0.5175550000000  0.4545490000000  0.4190750000000 1.0
C      1  0.5344900000000  0.5243780000000  0.4241670000000 1.0
C      1  0.4852110000000  0.5418030000000  0.4284210000000 1.0
C      1  0.4693980000000  0.4853980000000  0.4267480000000 1.0
C      1  0.5437980000000  0.4849340000000  0.5674190000000 1.0
C      1  0.4830720000000  0.4641680000000  0.5723000000000 1.0
C      1  0.4551600000000  0.5208580000000  0.5713080000000 1.0
C      1  0.5166680000000  0.5416140000000  0.5737490000000 1.0
C      1  0.4584940000000  0.4871790000000  0.5657530000000 1.0
C      1  0.5165640000000  0.4643260000000  0.5643330000000 1.0
C      1  0.5425500000000  0.5193370000000  0.5703890000000 1.0
C      1  0.4829930000000  0.5404690000000  0.5672990000000 1.0
C      1  0.5635790000000  0.4628450000000  0.4603920000000 1.0
C      1  0.4651210000000  0.4354730000000  0.4626990000000 1.0
C      1  0.4331480000000  0.5377280000000  0.4613960000000 1.0
C      1  0.5402580000000  0.5608450000000  0.4689820000000 1.0
C      1  0.4410880000000  0.4595920000000  0.4635970000000 1.0
C      1  0.5441790000000  0.4351450000000  0.4640750000000 1.0
C      1  0.5608810000000  0.5342170000000  0.4636240000000 1.0
C      1  0.4547040000000  0.5637240000000  0.4655000000000 1.0
C      1  0.4251740000000  0.5505860000000  0.4914700000000 1.0
C      1  0.5479280000000  0.5738020000000  0.4994700000000 1.0
C      1  0.5733260000000  0.4479820000000  0.4893810000000 1.0
C      1  0.4507180000000  0.4259500000000  0.4986360000000 1.0
C      1  0.5719160000000  0.5505950000000  0.4910850000000 1.0
C      1  0.4477680000000  0.5764920000000  0.4953910000000 1.0
C      1  0.4265150000000  0.4482370000000  0.4911330000000 1.0
C      1  0.5502770000000  0.4227440000000  0.4944690000000 1.0
C      1  0.4694050000000  0.4355990000000  0.5598160000000 1.0
C      1  0.4310740000000  0.5384470000000  0.5549230000000 1.0
C      1  0.5351600000000  0.5661040000000  0.5613020000000 1.0
C      1  0.5671710000000  0.4653250000000  0.5521040000000 1.0
C      1  0.5281030000000  0.4347210000000  0.5531040000000 1.0
C      1  0.5662750000000  0.5383340000000  0.5551410000000 1.0
C      1  0.4688170000000  0.5676710000000  0.5546100000000 1.0
C      1  0.4335760000000  0.4684540000000  0.5521630000000 1.0
C      1  0.4801340000000  0.4394530000000  0.5215350000000 1.0
C      1  0.4366260000000  0.5234290000000  0.5182950000000 1.0
C      1  0.5186670000000  0.5550190000000  0.5187010000000 1.0
C      1  0.5620970000000  0.4779020000000  0.5130980000000 1.0
C      1  0.5186340000000  0.4395320000000  0.5115790000000 1.0
C      1  0.5663050000000  0.5222120000000  0.5185890000000 1.0
C      1  0.4801320000000  0.5639280000000  0.5145610000000 1.0
C      1  0.4362330000000  0.4794350000000  0.5138380000000 1.0
C      1  0.5130540000000  0.5320380000000  0.4661770000000 1.0
C      1  0.5303600000000  0.4847690000000  0.4579630000000 1.0
C      1  0.4835690000000  0.4603380000000  0.4684050000000 1.0
C      1  0.4648160000000  0.5148120000000  0.4682340000000 1.0
C      1  0.4831060000000  0.5364120000000  0.4600650000000 1.0
C      1  0.4708090000000  0.4858370000000  0.4583260000000 1.0
C      1  0.5119790000000  0.4576250000000  0.4583830000000 1.0
C      1  0.5238120000000  0.5116260000000  0.4488550000000 1.0
C      1  0.4293150000000  0.5545670000000  0.5251280000000 1.0
C      1  0.5455640000000  0.5686510000000  0.5330520000000 1.0
C      1  0.5691280000000  0.4470700000000  0.5234720000000 1.0
C      1  0.4509650000000  0.4259720000000  0.5326480000000 1.0
C      1  0.5710080000000  0.5534370000000  0.5250140000000 1.0
C      1  0.4518660000000  0.5741510000000  0.5291350000000 1.0
C      1  0.4314430000000  0.4487320000000  0.5251070000000 1.0
C      1  0.5457520000000  0.4282640000000  0.5278050000000 1.0
C      1  0.5613640000000  0.5168300000000  0.4369590000000 1.0
C      1  0.5188480000000  0.4295330000000  0.4420650000000 1.0
C      1  0.4380500000000  0.4779360000000  0.4376140000000 1.0
C      1  0.4796590000000  0.5716290000000  0.4437810000000 1.0
C      1  0.4435760000000  0.5108610000000  0.4433440000000 1.0
C      1  0.4860930000000  0.4371690000000  0.4359900000000 1.0
C      1  0.5644970000000  0.4880970000000  0.4376250000000 1.0
C      1  0.5119890000000  0.5619550000000  0.4500540000000 1.0
C      1  0.4880220000000  0.5952930000000  0.5250970000000 1.0
C      1  0.5917270000000  0.5098510000000  0.5336110000000 1.0
C      1  0.5070590000000  0.4100510000000  0.5235300000000 1.0
C      1  0.4081190000000  0.4877700000000  0.5281090000000 1.0
C      1  0.5080580000000  0.5817590000000  0.5368280000000 1.0
C      1  0.4102510000000  0.5124880000000  0.5337590000000 1.0
C      1  0.4919780000000  0.4191170000000  0.5460940000000 1.0
C      1  0.5918420000000  0.4850000000000  0.5279280000000 1.0
C      1  0.4262670000000  0.5160980000000  0.4867290000000 1.0
C      1  0.5145960000000  0.5709070000000  0.4889090000000 1.0
C      1  0.5786330000000  0.4824730000000  0.4837260000000 1.0
C      1  0.4841510000000  0.4268270000000  0.4901910000000 1.0
C      1  0.5778010000000  0.5163730000000  0.4871190000000 1.0
C      1  0.4813730000000  0.5758820000000  0.4827520000000 1.0
C      1  0.4239430000000  0.4822810000000  0.4822560000000 1.0
C      1  0.5171250000000  0.4241330000000  0.4815030000000 1.0
C      1  0.5164030000000  0.5310060000000  0.5425510000000 1.0
C      1  0.5360170000000  0.4823540000000  0.5344220000000 1.0
C      1  0.4822500000000  0.4678450000000  0.5401360000000 1.0
C      1  0.4625320000000  0.5192080000000  0.5399180000000 1.0
C      1  0.4859840000000  0.5380890000000  0.5340670000000 1.0
C      1  0.4613220000000  0.4889080000000  0.5322220000000 1.0
C      1  0.5122100000000  0.4637810000000  0.5308950000000 1.0
C      1  0.5408130000000  0.5124520000000  0.5388610000000 1.0
C      1  0.4624530000000  0.4836180000000  0.4925970000000 1.0
C      1  0.4852340000000  0.5372350000000  0.4941250000000 1.0
C      1  0.5400340000000  0.5125490000000  0.4992810000000 1.0
C      1  0.5167630000000  0.4649310000000  0.4897290000000 1.0
C      1  0.5392300000000  0.4847890000000  0.4888900000000 1.0
C      1  0.5169960000000  0.5293520000000  0.4965040000000 1.0
C      1  0.4638310000000  0.5144960000000  0.5002910000000 1.0
C      1  0.4863310000000  0.4653710000000  0.5005370000000 1.0
END
