TITL C-3289323-3850-145 -3.16950117235435e-05 125000 -110.47670018476 0 0 22 (C1) n - 1
REM
REM in /nfs/bkarasulu/CARBON/AIRSS/Generating-Clusters/AIREBO/with-SteepDescent/Higher-Symm/SD-CG/HFTN-CG
REM
REM
REM
REM
REM
REM ./C.cell (b20cbc046b6831c77cfcea5457e17084)
REM
REM compiler GCC version 9.2.1 20190827 (Red Hat 9.2.1-1)
REM options -cpp -mtune=generic -march=x86-64 -g -O0 -fpre-include=/usr/include/finclude/math-vector-fortran.h
REM seed 578033855 -1589364728 -1811154650 1539628586 2097406969 49250306 -1882872967 1688582211 745118823 -975909768 -1956747776 839809868 647656376 -1696205180 1379595460 1026109871 -1407565183 -600485913 1800988597 -788191140 640177695 342174421 1985439027 162525485 1846539693 -317849958 767436661 816415948 -232481850 -1091700898 -1160652214 -996224564 1688042770
REM
CELL 1.54180   50.00000   50.00000   50.00000   90.00000   90.00000   90.00000
LATT -1
SFAC C  
C      1  0.5314650000000  0.5226740000000  0.4515610000000 1.0
C      1  0.4445970000000  0.4918920000000  0.4849280000000 1.0
C      1  0.5238090000000  0.5344910000000  0.5040690000000 1.0
C      1  0.5490320000000  0.4687320000000  0.4844960000000 1.0
C      1  0.4777090000000  0.4633840000000  0.4674180000000 1.0
C      1  0.4620300000000  0.5272410000000  0.4782900000000 1.0
C      1  0.4722910000000  0.4856160000000  0.4843930000000 1.0
C      1  0.4790200000000  0.4582490000000  0.5265230000000 1.0
C      1  0.5500410000000  0.5004570000000  0.5347490000000 1.0
C      1  0.5116150000000  0.4805100000000  0.4440250000000 1.0
C      1  0.4835310000000  0.4813670000000  0.5125860000000 1.0
C      1  0.4965380000000  0.5349230000000  0.4968310000000 1.0
C      1  0.4725620000000  0.4372330000000  0.5407890000000 1.0
C      1  0.4568760000000  0.5347910000000  0.5019170000000 1.0
C      1  0.5292120000000  0.5044320000000  0.5132450000000 1.0
C      1  0.5668170000000  0.4947440000000  0.5531170000000 1.0
C      1  0.5169320000000  0.5010280000000  0.4631530000000 1.0
C      1  0.4750120000000  0.5427570000000  0.5494310000000 1.0
C      1  0.5331290000000  0.4893050000000  0.4869890000000 1.0
C      1  0.4793760000000  0.5311070000000  0.5250290000000 1.0
C      1  0.4979980000000  0.5038880000000  0.5218080000000 1.0
C      1  0.4904080000000  0.5111780000000  0.4746560000000 1.0
END
