TITL C-3289320-4661-699 471.979720126216 125000 -621.219625075141 0 0 112 (C1) n - 1
REM
REM in /nfs/bkarasulu/CARBON/AIRSS/Generating-Clusters/AIREBO/with-SteepDescent/Higher-Symm/SD-CG/HFTN-CG
REM
REM
REM
REM
REM
REM ./C.cell (b20cbc046b6831c77cfcea5457e17084)
REM
REM compiler GCC version 9.2.1 20190827 (Red Hat 9.2.1-1)
REM options -cpp -mtune=generic -march=x86-64 -g -O0 -fpre-include=/usr/include/finclude/math-vector-fortran.h
REM seed 1463468718 763995767 742315976 -1004294812 1405232410 829323855 1281270841 1971480034 765288103 1902794511 -230687435 -530014771 -1693579951 72010287 2086939180 -439432449 84039258 602881023 -1915138634 1966223723 691840304 -1064109779 1976750923 602576742 -1282049399 -499246781 -431338211 -1988964665 396059198 762198434 1167175826 172715439 -1123168408
REM
CELL 1.54180   50.00000   50.00000   50.00000   90.00000   90.00000   90.00000
LATT -1
SFAC C  
C      1  0.4650920000000  0.4528050000000  0.4651030000000 1.0
C      1  0.5936650000000  0.5298140000000  0.4911090000000 1.0
C      1  0.4728970000000  0.5849080000000  0.4935130000000 1.0
C      1  0.4383620000000  0.4380740000000  0.4757440000000 1.0
C      1  0.4622720000000  0.4201490000000  0.5220670000000 1.0
C      1  0.5055920000000  0.4970310000000  0.4842180000000 1.0
C      1  0.5477740000000  0.4541770000000  0.4394990000000 1.0
C      1  0.5254260000000  0.4563290000000  0.4987920000000 1.0
C      1  0.4842350000000  0.4878450000000  0.4273130000000 1.0
C      1  0.4874590000000  0.5168030000000  0.4633180000000 1.0
C      1  0.5326770000000  0.5223790000000  0.5251550000000 1.0
C      1  0.5748330000000  0.5590770000000  0.4655410000000 1.0
C      1  0.4726570000000  0.4696270000000  0.5185320000000 1.0
C      1  0.5247970000000  0.5421260000000  0.5679170000000 1.0
C      1  0.4423410000000  0.5330370000000  0.5771680000000 1.0
C      1  0.5832850000000  0.4936800000000  0.4561360000000 1.0
C      1  0.4214000000000  0.4988100000000  0.5306280000000 1.0
C      1  0.5659000000000  0.4422780000000  0.5339590000000 1.0
C      1  0.4768920000000  0.5348460000000  0.4901350000000 1.0
C      1  0.5231520000000  0.5167230000000  0.4105040000000 1.0
C      1  0.5454760000000  0.5704330000000  0.5170270000000 1.0
C      1  0.4899140000000  0.4733080000000  0.5476140000000 1.0
C      1  0.4522910000000  0.4934300000000  0.4375770000000 1.0
C      1  0.4920160000000  0.5955810000000  0.4685760000000 1.0
C      1  0.5076250000000  0.4523280000000  0.5275530000000 1.0
C      1  0.5283640000000  0.5307570000000  0.4405450000000 1.0
C      1  0.4949190000000  0.5276630000000  0.5754430000000 1.0
C      1  0.4817940000000  0.4728130000000  0.4861710000000 1.0
C      1  0.5778750000000  0.5264310000000  0.4624900000000 1.0
C      1  0.4574970000000  0.5608780000000  0.5384310000000 1.0
C      1  0.5304790000000  0.4657080000000  0.4217810000000 1.0
C      1  0.4143940000000  0.5299470000000  0.5299370000000 1.0
C      1  0.4005140000000  0.4629310000000  0.4979630000000 1.0
C      1  0.4407540000000  0.4861390000000  0.5458730000000 1.0
C      1  0.5987160000000  0.4915850000000  0.5217410000000 1.0
C      1  0.4627990000000  0.5254980000000  0.4415600000000 1.0
C      1  0.6109840000000  0.5163420000000  0.5076020000000 1.0
C      1  0.5081820000000  0.5707500000000  0.5315960000000 1.0
C      1  0.5706630000000  0.4933380000000  0.5396390000000 1.0
C      1  0.5758730000000  0.4752550000000  0.4755110000000 1.0
C      1  0.4989580000000  0.5895530000000  0.5126590000000 1.0
C      1  0.4208140000000  0.5358620000000  0.5611750000000 1.0
C      1  0.5129680000000  0.4482440000000  0.5685370000000 1.0
C      1  0.4382680000000  0.4900310000000  0.4862840000000 1.0
C      1  0.5332080000000  0.4093390000000  0.5298530000000 1.0
C      1  0.4783660000000  0.5012940000000  0.5149980000000 1.0
C      1  0.5211360000000  0.4175380000000  0.4699890000000 1.0
C      1  0.4609630000000  0.5073060000000  0.4911620000000 1.0
C      1  0.4859480000000  0.4187980000000  0.4676810000000 1.0
C      1  0.5093200000000  0.5303350000000  0.4938740000000 1.0
C      1  0.4278990000000  0.4951230000000  0.4571760000000 1.0
C      1  0.4088580000000  0.4709040000000  0.4527640000000 1.0
C      1  0.4631200000000  0.5561910000000  0.5065450000000 1.0
C      1  0.5045000000000  0.5414320000000  0.5248320000000 1.0
C      1  0.4361220000000  0.5509860000000  0.4775560000000 1.0
C      1  0.5047090000000  0.5452820000000  0.4117790000000 1.0
C      1  0.5643620000000  0.5458240000000  0.5304470000000 1.0
C      1  0.4875150000000  0.4969890000000  0.5884840000000 1.0
C      1  0.4619190000000  0.4633370000000  0.4339650000000 1.0
C      1  0.4308690000000  0.5470500000000  0.5086900000000 1.0
C      1  0.5426000000000  0.4525110000000  0.5523700000000 1.0
C      1  0.5383050000000  0.4991010000000  0.5833270000000 1.0
C      1  0.4972680000000  0.4442160000000  0.4872310000000 1.0
C      1  0.4593510000000  0.5093330000000  0.5821850000000 1.0
C      1  0.5614820000000  0.5388720000000  0.4973410000000 1.0
C      1  0.4565810000000  0.4119600000000  0.4775070000000 1.0
C      1  0.4450680000000  0.4576590000000  0.5499210000000 1.0
C      1  0.5859950000000  0.4627440000000  0.5344860000000 1.0
C      1  0.4459580000000  0.4608640000000  0.4993010000000 1.0
C      1  0.5082670000000  0.5078790000000  0.5555210000000 1.0
C      1  0.4582490000000  0.5678820000000  0.4688050000000 1.0
C      1  0.5265050000000  0.5622840000000  0.4531530000000 1.0
C      1  0.5179750000000  0.5866090000000  0.4713990000000 1.0
C      1  0.3864210000000  0.5339460000000  0.5253380000000 1.0
C      1  0.5329500000000  0.5408390000000  0.4789510000000 1.0
C      1  0.5245380000000  0.5858760000000  0.4984640000000 1.0
C      1  0.5707630000000  0.5714070000000  0.4939500000000 1.0
C      1  0.4689490000000  0.5435390000000  0.5640510000000 1.0
C      1  0.4445800000000  0.4423630000000  0.5262710000000 1.0
C      1  0.4786460000000  0.5272360000000  0.5370150000000 1.0
C      1  0.4153790000000  0.4854420000000  0.5069700000000 1.0
C      1  0.5576860000000  0.5698420000000  0.4466830000000 1.0
C      1  0.4988500000000  0.5595290000000  0.4348330000000 1.0
C      1  0.5323630000000  0.5623090000000  0.5475350000000 1.0
C      1  0.4743130000000  0.5563520000000  0.4485250000000 1.0
C      1  0.4792220000000  0.4350700000000  0.4391180000000 1.0
C      1  0.5355730000000  0.4905060000000  0.4695660000000 1.0
C      1  0.5472640000000  0.4587350000000  0.4728270000000 1.0
C      1  0.5539140000000  0.5067540000000  0.5035660000000 1.0
C      1  0.5476310000000  0.5164180000000  0.4607670000000 1.0
C      1  0.5338960000000  0.4877330000000  0.4059240000000 1.0
C      1  0.5127510000000  0.4461430000000  0.4570120000000 1.0
C      1  0.5760280000000  0.4871900000000  0.5005840000000 1.0
C      1  0.5013920000000  0.4597580000000  0.4301780000000 1.0
C      1  0.4886520000000  0.4657600000000  0.5868170000000 1.0
C      1  0.5156080000000  0.4249100000000  0.5438930000000 1.0
C      1  0.5534970000000  0.4234380000000  0.5133300000000 1.0
C      1  0.4590010000000  0.5323570000000  0.4119750000000 1.0
C      1  0.4542340000000  0.4010260000000  0.5026450000000 1.0
C      1  0.4104310000000  0.4524640000000  0.4732590000000 1.0
C      1  0.5452510000000  0.5229350000000  0.5720420000000 1.0
C      1  0.5453320000000  0.4764700000000  0.5346490000000 1.0
C      1  0.5071000000000  0.5019170000000  0.5259790000000 1.0
C      1  0.5270530000000  0.4864850000000  0.5084280000000 1.0
C      1  0.4350230000000  0.5281150000000  0.4611860000000 1.0
C      1  0.5000090000000  0.5127400000000  0.4344650000000 1.0
C      1  0.5476270000000  0.4267100000000  0.4843060000000 1.0
C      1  0.4686350000000  0.4991940000000  0.5534440000000 1.0
C      1  0.5594130000000  0.5200880000000  0.5460600000000 1.0
C      1  0.4877470000000  0.4291330000000  0.5161790000000 1.0
C      1  0.4691170000000  0.4536570000000  0.5657300000000 1.0
C      1  0.5179020000000  0.4806510000000  0.5655100000000 1.0
END
