TITL C-3289324-3781-643 0.000775022791564345 125000 -953.816342001108 0 0 177 (C1) n - 1
REM
REM in /nfs/bkarasulu/CARBON/AIRSS/Generating-Clusters/AIREBO/with-SteepDescent/Higher-Symm/SD-CG/HFTN-CG
REM
REM
REM
REM
REM
REM ./C.cell (b20cbc046b6831c77cfcea5457e17084)
REM
REM compiler GCC version 9.2.1 20190827 (Red Hat 9.2.1-1)
REM options -cpp -mtune=generic -march=x86-64 -g -O0 -fpre-include=/usr/include/finclude/math-vector-fortran.h
REM seed -291110522 -640240950 -1265220005 31555640 1855016730 934306808 -2044393893 -1181767579 1430336416 -471141200 -457012686 -1466679148 -1073861527 1672481152 1197058262 910649631 1085253580 2057706157 818800938 -1511895428 500066800 251490560 -627591353 -960714020 1637743914 1832521905 1535111191 -753844495 196761296 -1849455969 -1611818750 202081160 -9941872
REM
CELL 1.54180   50.00000   50.00000   50.00000   90.00000   90.00000   90.00000
LATT -1
SFAC C  
C      1  0.4268570000000  0.5736190000000  0.4565100000000 1.0
C      1  0.4488340000000  0.4295790000000  0.5694550000000 1.0
C      1  0.5689810000000  0.4374220000000  0.4328480000000 1.0
C      1  0.4558970000000  0.4102420000000  0.5495660000000 1.0
C      1  0.5637350000000  0.4134500000000  0.4504900000000 1.0
C      1  0.5472190000000  0.6090440000000  0.5313180000000 1.0
C      1  0.4608630000000  0.5638670000000  0.3956060000000 1.0
C      1  0.5438990000000  0.5488700000000  0.5893270000000 1.0
C      1  0.5476760000000  0.4429090000000  0.4139770000000 1.0
C      1  0.6046850000000  0.5264650000000  0.5575640000000 1.0
C      1  0.4137550000000  0.5479030000000  0.4536380000000 1.0
C      1  0.4257260000000  0.4478780000000  0.5661760000000 1.0
C      1  0.5584120000000  0.5729880000000  0.4456090000000 1.0
C      1  0.5327450000000  0.4669990000000  0.6100020000000 1.0
C      1  0.3992510000000  0.4636690000000  0.4548180000000 1.0
C      1  0.5336850000000  0.3986300000000  0.5402550000000 1.0
C      1  0.4507520000000  0.3960680000000  0.4596580000000 1.0
C      1  0.4564420000000  0.5924190000000  0.5497810000000 1.0
C      1  0.5453720000000  0.5626670000000  0.4169160000000 1.0
C      1  0.4506840000000  0.5717840000000  0.5688250000000 1.0
C      1  0.4754420000000  0.4425150000000  0.3941100000000 1.0
C      1  0.4262090000000  0.5576360000000  0.5640920000000 1.0
C      1  0.5827840000000  0.5529590000000  0.4490150000000 1.0
C      1  0.6039490000000  0.4588030000000  0.5416230000000 1.0
C      1  0.4063160000000  0.4387650000000  0.4993830000000 1.0
C      1  0.5345730000000  0.4058730000000  0.4506640000000 1.0
C      1  0.4507570000000  0.5367360000000  0.3995210000000 1.0
C      1  0.3916140000000  0.5384490000000  0.4712680000000 1.0
C      1  0.6161240000000  0.5280890000000  0.5345800000000 1.0
C      1  0.5926090000000  0.4462910000000  0.4930820000000 1.0
C      1  0.5196360000000  0.6120870000000  0.5436690000000 1.0
C      1  0.4535430000000  0.5879410000000  0.4501390000000 1.0
C      1  0.4829620000000  0.3976870000000  0.5430020000000 1.0
C      1  0.4470340000000  0.4906310000000  0.5896080000000 1.0
C      1  0.5408250000000  0.4719440000000  0.4017520000000 1.0
C      1  0.5512030000000  0.5169850000000  0.5995150000000 1.0
C      1  0.5932190000000  0.4410770000000  0.5217840000000 1.0
C      1  0.4680660000000  0.4009570000000  0.4417550000000 1.0
C      1  0.5536700000000  0.5373730000000  0.4027590000000 1.0
C      1  0.5896820000000  0.5520920000000  0.4773450000000 1.0
C      1  0.4145750000000  0.5532850000000  0.5347920000000 1.0
C      1  0.3939390000000  0.4601440000000  0.4828800000000 1.0
C      1  0.4879950000000  0.5998200000000  0.5457890000000 1.0
C      1  0.5182770000000  0.5980490000000  0.4514190000000 1.0
C      1  0.5078320000000  0.4099320000000  0.5525100000000 1.0
C      1  0.5506290000000  0.4830700000000  0.5964040000000 1.0
C      1  0.4675990000000  0.4689240000000  0.3992900000000 1.0
C      1  0.4343290000000  0.5136940000000  0.6045100000000 1.0
C      1  0.4876810000000  0.5427860000000  0.5201780000000 1.0
C      1  0.5244520000000  0.4759180000000  0.5457480000000 1.0
C      1  0.5471730000000  0.5123820000000  0.4788720000000 1.0
C      1  0.4876190000000  0.4534570000000  0.4812200000000 1.0
C      1  0.5255340000000  0.4563360000000  0.5206670000000 1.0
C      1  0.5085460000000  0.5466000000000  0.4858240000000 1.0
C      1  0.5197110000000  0.5245650000000  0.4624430000000 1.0
C      1  0.4881680000000  0.5101060000000  0.5295590000000 1.0
C      1  0.4831060000000  0.4798380000000  0.4650660000000 1.0
C      1  0.5451910000000  0.4806120000000  0.5109060000000 1.0
C      1  0.4597120000000  0.4885740000000  0.4798330000000 1.0
C      1  0.4544800000000  0.5081960000000  0.5253490000000 1.0
C      1  0.5218740000000  0.5416500000000  0.5141300000000 1.0
C      1  0.4931470000000  0.4794690000000  0.5434840000000 1.0
C      1  0.4559630000000  0.5151370000000  0.4947980000000 1.0
C      1  0.5173460000000  0.4552700000000  0.4901780000000 1.0
C      1  0.4861800000000  0.4638780000000  0.5135640000000 1.0
C      1  0.4763900000000  0.5379020000000  0.4889790000000 1.0
C      1  0.4859170000000  0.5275830000000  0.4582650000000 1.0
C      1  0.5205310000000  0.5080490000000  0.5395810000000 1.0
C      1  0.5126860000000  0.4920210000000  0.4554940000000 1.0
C      1  0.4558870000000  0.4792840000000  0.5123340000000 1.0
C      1  0.5351110000000  0.4807100000000  0.4784150000000 1.0
C      1  0.5407810000000  0.5142620000000  0.5129840000000 1.0
C      1  0.5202310000000  0.4365880000000  0.4522310000000 1.0
C      1  0.4409220000000  0.5304860000000  0.4300510000000 1.0
C      1  0.4377500000000  0.4439530000000  0.5113130000000 1.0
C      1  0.5203650000000  0.5687500000000  0.5514430000000 1.0
C      1  0.4796170000000  0.5661140000000  0.4505720000000 1.0
C      1  0.4805130000000  0.4424060000000  0.5489470000000 1.0
C      1  0.4460580000000  0.4871230000000  0.5584990000000 1.0
C      1  0.5539100000000  0.4780910000000  0.4317520000000 1.0
C      1  0.5485920000000  0.5182380000000  0.5661030000000 1.0
C      1  0.4381400000000  0.5488990000000  0.4852930000000 1.0
C      1  0.5587070000000  0.5562550000000  0.5224860000000 1.0
C      1  0.5686520000000  0.4415490000000  0.4779320000000 1.0
C      1  0.4868320000000  0.4291240000000  0.4450320000000 1.0
C      1  0.5555200000000  0.5114300000000  0.4250750000000 1.0
C      1  0.5626050000000  0.4411580000000  0.5307460000000 1.0
C      1  0.4865040000000  0.5664620000000  0.5522110000000 1.0
C      1  0.5141120000000  0.5687680000000  0.4479510000000 1.0
C      1  0.5119830000000  0.4405640000000  0.5618600000000 1.0
C      1  0.5624690000000  0.4692910000000  0.5746680000000 1.0
C      1  0.4510230000000  0.4726750000000  0.4276390000000 1.0
C      1  0.4595400000000  0.5180550000000  0.5633880000000 1.0
C      1  0.5616470000000  0.5571560000000  0.4885290000000 1.0
C      1  0.4411200000000  0.5565770000000  0.5182860000000 1.0
C      1  0.4466080000000  0.4461210000000  0.4773920000000 1.0
C      1  0.5077430000000  0.4534620000000  0.5930720000000 1.0
C      1  0.5775670000000  0.5254400000000  0.4416830000000 1.0
C      1  0.4546920000000  0.5858620000000  0.5174660000000 1.0
C      1  0.5126130000000  0.5563770000000  0.4181680000000 1.0
C      1  0.4785030000000  0.5574370000000  0.5822840000000 1.0
C      1  0.4924920000000  0.4314280000000  0.4115850000000 1.0
C      1  0.5820120000000  0.4810970000000  0.5549880000000 1.0
C      1  0.4240830000000  0.4836690000000  0.4435960000000 1.0
C      1  0.4293530000000  0.5287350000000  0.5657900000000 1.0
C      1  0.4471500000000  0.4149980000000  0.4854390000000 1.0
C      1  0.5491930000000  0.4175490000000  0.5166400000000 1.0
C      1  0.5515730000000  0.5870640000000  0.4767710000000 1.0
C      1  0.4772630000000  0.4428460000000  0.5810500000000 1.0
C      1  0.4216030000000  0.5149970000000  0.4497690000000 1.0
C      1  0.5499140000000  0.5872170000000  0.5115070000000 1.0
C      1  0.4813610000000  0.5535470000000  0.4190230000000 1.0
C      1  0.5122940000000  0.5509090000000  0.5781830000000 1.0
C      1  0.5161480000000  0.4489180000000  0.4227650000000 1.0
C      1  0.4171680000000  0.4725360000000  0.5512620000000 1.0
C      1  0.5822730000000  0.4649050000000  0.4426140000000 1.0
C      1  0.5772530000000  0.5112910000000  0.5548760000000 1.0
C      1  0.5581930000000  0.4136780000000  0.4840720000000 1.0
C      1  0.4535780000000  0.4148720000000  0.5170520000000 1.0
C      1  0.4391190000000  0.5815860000000  0.4872430000000 1.0
C      1  0.5686970000000  0.5248610000000  0.5258930000000 1.0
C      1  0.5190750000000  0.5754230000000  0.5196950000000 1.0
C      1  0.5150470000000  0.5176270000000  0.5717460000000 1.0
C      1  0.5914180000000  0.4813150000000  0.4634020000000 1.0
C      1  0.4231770000000  0.4742510000000  0.5061990000000 1.0
C      1  0.4258030000000  0.5203080000000  0.4805540000000 1.0
C      1  0.5188330000000  0.4234490000000  0.4829300000000 1.0
C      1  0.4831970000000  0.4307630000000  0.5206810000000 1.0
C      1  0.4712470000000  0.5711290000000  0.4833520000000 1.0
C      1  0.5086160000000  0.4782640000000  0.4245720000000 1.0
C      1  0.4805490000000  0.4740980000000  0.5732280000000 1.0
C      1  0.4737500000000  0.5217620000000  0.4284240000000 1.0
C      1  0.4288980000000  0.5165700000000  0.5382000000000 1.0
C      1  0.4856120000000  0.5761020000000  0.5136890000000 1.0
C      1  0.4835990000000  0.5238190000000  0.5831580000000 1.0
C      1  0.4325430000000  0.4749210000000  0.4735210000000 1.0
C      1  0.5708710000000  0.4737870000000  0.5251590000000 1.0
C      1  0.5784480000000  0.5083220000000  0.4672610000000 1.0
C      1  0.4785870000000  0.4211450000000  0.4770450000000 1.0
C      1  0.5158580000000  0.4243420000000  0.5154560000000 1.0
C      1  0.5206780000000  0.5783660000000  0.4858680000000 1.0
C      1  0.4790590000000  0.4886600000000  0.4342000000000 1.0
C      1  0.5107680000000  0.4856440000000  0.5824890000000 1.0
C      1  0.5262380000000  0.5280600000000  0.4297890000000 1.0
C      1  0.4713210000000  0.5146190000000  0.3949410000000 1.0
C      1  0.4028050000000  0.4894710000000  0.5254920000000 1.0
C      1  0.5187030000000  0.3913520000000  0.4722680000000 1.0
C      1  0.4772990000000  0.4898630000000  0.6032070000000 1.0
C      1  0.5149300000000  0.4903980000000  0.3954270000000 1.0
C      1  0.5314940000000  0.5062930000000  0.6226980000000 1.0
C      1  0.3973830000000  0.5151720000000  0.4953820000000 1.0
C      1  0.5972120000000  0.5168760000000  0.5122440000000 1.0
C      1  0.6019930000000  0.4720790000000  0.4874140000000 1.0
C      1  0.5107660000000  0.6075260000000  0.5110880000000 1.0
C      1  0.4744180000000  0.6027630000000  0.4712930000000 1.0
C      1  0.4846260000000  0.3830190000000  0.5135080000000 1.0
C      1  0.5276270000000  0.5176610000000  0.3976230000000 1.0
C      1  0.5955060000000  0.4867790000000  0.5105780000000 1.0
C      1  0.4917820000000  0.3940710000000  0.4847810000000 1.0
C      1  0.5074870000000  0.4987430000000  0.6125140000000 1.0
C      1  0.4829960000000  0.4904230000000  0.3896990000000 1.0
C      1  0.4635840000000  0.5201030000000  0.6101020000000 1.0
C      1  0.5972060000000  0.5260010000000  0.4843510000000 1.0
C      1  0.4005720000000  0.5234640000000  0.5260220000000 1.0
C      1  0.3857540000000  0.4835990000000  0.4966650000000 1.0
C      1  0.4910850000000  0.6289190000000  0.5284760000000 1.0
C      1  0.5037410000000  0.6071090000000  0.4793060000000 1.0
C      1  0.5133950000000  0.3905340000000  0.5181000000000 1.0
C      1  0.5436280000000  0.4516180000000  0.5559270000000 1.0
C      1  0.5398410000000  0.5519770000000  0.4628320000000 1.0
C      1  0.4625270000000  0.5445000000000  0.5421280000000 1.0
C      1  0.4611580000000  0.4505230000000  0.4490890000000 1.0
C      1  0.4528520000000  0.4597490000000  0.5394160000000 1.0
C      1  0.4548320000000  0.5434840000000  0.4560970000000 1.0
C      1  0.5480030000000  0.5504480000000  0.5544390000000 1.0
C      1  0.5463470000000  0.4581140000000  0.4582630000000 1.0
C      1  0.4918180000000  0.4946890000000  0.5025510000000 1.0
END
