TITL C-3289320-4661-231 -0.0010705225680093 125000 -513.136571514785 0 0 102 (C1) n - 1
REM
REM in /nfs/bkarasulu/CARBON/AIRSS/Generating-Clusters/AIREBO/with-SteepDescent/Higher-Symm/SD-CG/HFTN-CG
REM
REM
REM
REM
REM
REM ./C.cell (b20cbc046b6831c77cfcea5457e17084)
REM
REM compiler GCC version 9.2.1 20190827 (Red Hat 9.2.1-1)
REM options -cpp -mtune=generic -march=x86-64 -g -O0 -fpre-include=/usr/include/finclude/math-vector-fortran.h
REM seed 539576844 387362679 1179117743 669800236 -1611223876 -569036768 1819707568 1236967592 -1431976124 -1627705660 -739483868 -980558255 -222678379 690927420 -1077020235 1831380524 -1295053053 -956433592 962507242 465377395 938501996 1709620214 459114586 -1149695818 -2038201461 1221785255 -500361316 -849394705 -1548424551 -450570794 24769473 1478934469 -155806840
REM
CELL 1.54180   50.00000   50.00000   50.00000   90.00000   90.00000   90.00000
LATT -1
SFAC C  
C      1  0.5372430000000  0.4005290000000  0.4899140000000 1.0
C      1  0.6000750000000  0.5319540000000  0.4978210000000 1.0
C      1  0.4665130000000  0.5958100000000  0.4940390000000 1.0
C      1  0.3976700000000  0.4684720000000  0.4999430000000 1.0
C      1  0.4730670000000  0.3944130000000  0.5008370000000 1.0
C      1  0.4027220000000  0.5341720000000  0.5032940000000 1.0
C      1  0.5351410000000  0.5954360000000  0.4989200000000 1.0
C      1  0.5998390000000  0.4714340000000  0.5059500000000 1.0
C      1  0.4412910000000  0.5496760000000  0.5506620000000 1.0
C      1  0.4576550000000  0.4408140000000  0.5560870000000 1.0
C      1  0.5589430000000  0.4572300000000  0.5633950000000 1.0
C      1  0.5490840000000  0.5583940000000  0.5504960000000 1.0
C      1  0.5652240000000  0.5444760000000  0.4420200000000 1.0
C      1  0.5453690000000  0.4462000000000  0.4516000000000 1.0
C      1  0.4354870000000  0.4515010000000  0.4462360000000 1.0
C      1  0.4538660000000  0.5575510000000  0.4457960000000 1.0
C      1  0.4564660000000  0.5066340000000  0.5507280000000 1.0
C      1  0.4933310000000  0.4576720000000  0.5509560000000 1.0
C      1  0.5399410000000  0.4909560000000  0.5543370000000 1.0
C      1  0.5099870000000  0.5402530000000  0.5554530000000 1.0
C      1  0.5431070000000  0.5038340000000  0.4466670000000 1.0
C      1  0.4978690000000  0.4617400000000  0.4446370000000 1.0
C      1  0.4499540000000  0.4934080000000  0.4490890000000 1.0
C      1  0.4967990000000  0.5387360000000  0.4480970000000 1.0
C      1  0.5148260000000  0.5733970000000  0.5071280000000 1.0
C      1  0.4263210000000  0.5153110000000  0.5071800000000 1.0
C      1  0.4886230000000  0.4187910000000  0.5057410000000 1.0
C      1  0.5753390000000  0.4882840000000  0.5121240000000 1.0
C      1  0.4845730000000  0.5708420000000  0.4917060000000 1.0
C      1  0.5775590000000  0.5139830000000  0.4899070000000 1.0
C      1  0.5165570000000  0.4212660000000  0.4864510000000 1.0
C      1  0.4208460000000  0.4855170000000  0.4916390000000 1.0
C      1  0.5274670000000  0.5691690000000  0.4549560000000 1.0
C      1  0.4234270000000  0.5220110000000  0.4576710000000 1.0
C      1  0.4773990000000  0.4278380000000  0.4514750000000 1.0
C      1  0.5753450000000  0.4810270000000  0.4523210000000 1.0
C      1  0.4810550000000  0.5817910000000  0.5473560000000 1.0
C      1  0.5712040000000  0.5260920000000  0.5468680000000 1.0
C      1  0.5254530000000  0.4327270000000  0.5413050000000 1.0
C      1  0.4305280000000  0.4770950000000  0.5437610000000 1.0
C      1  0.5306730000000  0.4506280000000  0.5630820000000 1.0
C      1  0.5499100000000  0.5326960000000  0.5698770000000 1.0
C      1  0.4670790000000  0.5573470000000  0.5613130000000 1.0
C      1  0.4490630000000  0.4675420000000  0.5623970000000 1.0
C      1  0.4621200000000  0.4464290000000  0.4356510000000 1.0
C      1  0.4440400000000  0.5315400000000  0.4386870000000 1.0
C      1  0.5389360000000  0.5535570000000  0.4343220000000 1.0
C      1  0.5536360000000  0.4687600000000  0.4314100000000 1.0
C      1  0.4819300000000  0.4399990000000  0.4800060000000 1.0
C      1  0.5499160000000  0.4730180000000  0.4709680000000 1.0
C      1  0.5263930000000  0.5513780000000  0.4839120000000 1.0
C      1  0.4448300000000  0.5242240000000  0.4799010000000 1.0
C      1  0.5248410000000  0.4449090000000  0.5095510000000 1.0
C      1  0.4437790000000  0.4763280000000  0.5150460000000 1.0
C      1  0.4808500000000  0.5607350000000  0.5239950000000 1.0
C      1  0.5445590000000  0.5318070000000  0.5287730000000 1.0
C      1  0.5657290000000  0.5224920000000  0.4591640000000 1.0
C      1  0.4766050000000  0.5587980000000  0.4609010000000 1.0
C      1  0.4324040000000  0.4755040000000  0.4611910000000 1.0
C      1  0.5191350000000  0.4383280000000  0.4571370000000 1.0
C      1  0.4386330000000  0.5244690000000  0.5375680000000 1.0
C      1  0.5216570000000  0.5629760000000  0.5388180000000 1.0
C      1  0.5652990000000  0.4789040000000  0.5432450000000 1.0
C      1  0.4767130000000  0.4331160000000  0.5343030000000 1.0
C      1  0.4993350000000  0.5957260000000  0.5275870000000 1.0
C      1  0.4121500000000  0.4950960000000  0.5305810000000 1.0
C      1  0.5138310000000  0.4106790000000  0.5270710000000 1.0
C      1  0.5887020000000  0.5100240000000  0.5346100000000 1.0
C      1  0.5068230000000  0.5833690000000  0.4692270000000 1.0
C      1  0.5933630000000  0.4947660000000  0.4667200000000 1.0
C      1  0.4959980000000  0.4068680000000  0.4634850000000 1.0
C      1  0.4046090000000  0.5059670000000  0.4698480000000 1.0
C      1  0.5260200000000  0.5266340000000  0.4605790000000 1.0
C      1  0.4754410000000  0.5191350000000  0.4657730000000 1.0
C      1  0.4800170000000  0.4871450000000  0.4585490000000 1.0
C      1  0.5194640000000  0.4832040000000  0.4597730000000 1.0
C      1  0.4825040000000  0.5066960000000  0.5343910000000 1.0
C      1  0.5154580000000  0.5151000000000  0.5342990000000 1.0
C      1  0.5129460000000  0.4813960000000  0.5397150000000 1.0
C      1  0.4740590000000  0.4769010000000  0.5305860000000 1.0
C      1  0.5003330000000  0.5375660000000  0.5167850000000 1.0
C      1  0.4716240000000  0.5101860000000  0.5060300000000 1.0
C      1  0.4945830000000  0.4603410000000  0.5114470000000 1.0
C      1  0.5319450000000  0.4922670000000  0.5152330000000 1.0
C      1  0.4977420000000  0.5333550000000  0.4871440000000 1.0
C      1  0.5399510000000  0.5017630000000  0.4862440000000 1.0
C      1  0.5046460000000  0.4652130000000  0.4820810000000 1.0
C      1  0.4723700000000  0.4873170000000  0.4895400000000 1.0
C      1  0.4780590000000  0.4728510000000  0.4213700000000 1.0
C      1  0.5290020000000  0.4874950000000  0.4213670000000 1.0
C      1  0.5183790000000  0.5275340000000  0.4260100000000 1.0
C      1  0.4653930000000  0.5106480000000  0.4276010000000 1.0
C      1  0.5091090000000  0.4730800000000  0.5768360000000 1.0
C      1  0.4686270000000  0.4887040000000  0.5738380000000 1.0
C      1  0.4854080000000  0.5366980000000  0.5712640000000 1.0
C      1  0.5318850000000  0.5110000000000  0.5725970000000 1.0
C      1  0.5501900000000  0.4669230000000  0.5038180000000 1.0
C      1  0.4664020000000  0.5424730000000  0.4966860000000 1.0
C      1  0.4631550000000  0.4567760000000  0.4983270000000 1.0
C      1  0.5494870000000  0.5311420000000  0.4985630000000 1.0
C      1  0.4977410000000  0.5004010000000  0.4252650000000 1.0
C      1  0.4983650000000  0.5052590000000  0.5729480000000 1.0
END
