TITL C-3289321-8710-525 -0.0018555348091649 125000 -855.043913614584 0 0 167 (C1) n - 1
REM
REM in /nfs/bkarasulu/CARBON/AIRSS/Generating-Clusters/AIREBO/with-SteepDescent/Higher-Symm/SD-CG/HFTN-CG
REM
REM
REM
REM
REM
REM ./C.cell (b20cbc046b6831c77cfcea5457e17084)
REM
REM compiler GCC version 9.2.1 20190827 (Red Hat 9.2.1-1)
REM options -cpp -mtune=generic -march=x86-64 -g -O0 -fpre-include=/usr/include/finclude/math-vector-fortran.h
REM seed 360941151 -1511442494 -839052648 -355529158 374758941 1224374551 -551232993 -1239677119 -1965940054 -1216263287 1026089875 1972527092 1020770792 -59022111 1626200625 1781960134 -271334475 -1437508963 386974571 1813106290 -2116598081 -307097286 1787087836 -358014607 -87079595 -920571097 1091229377 1634561216 -1306172501 -753752356 -1024634818 -1291409242 -1476865811
REM
CELL 1.54180   50.00000   50.00000   50.00000   90.00000   90.00000   90.00000
LATT -1
SFAC C  
C      1  0.4631430000000  0.5632870000000  0.5528520000000 1.0
C      1  0.5395280000000  0.4294080000000  0.5400330000000 1.0
C      1  0.4790360000000  0.6001230000000  0.5176030000000 1.0
C      1  0.4506690000000  0.4280280000000  0.4386050000000 1.0
C      1  0.4871640000000  0.5417200000000  0.4392940000000 1.0
C      1  0.5212090000000  0.5480600000000  0.4144130000000 1.0
C      1  0.5921870000000  0.4773430000000  0.4569240000000 1.0
C      1  0.5333260000000  0.4354850000000  0.4999100000000 1.0
C      1  0.4809290000000  0.4179550000000  0.5641130000000 1.0
C      1  0.4515380000000  0.4473100000000  0.4172830000000 1.0
C      1  0.5938580000000  0.4776130000000  0.4912070000000 1.0
C      1  0.4877920000000  0.4424550000000  0.4397750000000 1.0
C      1  0.4972510000000  0.6167300000000  0.4800490000000 1.0
C      1  0.4846910000000  0.4868200000000  0.5206080000000 1.0
C      1  0.3920950000000  0.4447520000000  0.5010430000000 1.0
C      1  0.4272900000000  0.4439930000000  0.5191400000000 1.0
C      1  0.4648620000000  0.5139860000000  0.5224010000000 1.0
C      1  0.5472770000000  0.4438970000000  0.4200490000000 1.0
C      1  0.4605870000000  0.5004310000000  0.5533070000000 1.0
C      1  0.4451120000000  0.5859680000000  0.4779150000000 1.0
C      1  0.5370520000000  0.5016820000000  0.5531690000000 1.0
C      1  0.4318790000000  0.4718260000000  0.4197870000000 1.0
C      1  0.5277040000000  0.4635920000000  0.4846940000000 1.0
C      1  0.5693640000000  0.4592070000000  0.4412650000000 1.0
C      1  0.4897250000000  0.5809550000000  0.5501860000000 1.0
C      1  0.5472280000000  0.5736560000000  0.5080540000000 1.0
C      1  0.4737010000000  0.5331010000000  0.4091100000000 1.0
C      1  0.4590470000000  0.5006690000000  0.4480510000000 1.0
C      1  0.4827680000000  0.5074520000000  0.4006330000000 1.0
C      1  0.5557180000000  0.5299970000000  0.5504090000000 1.0
C      1  0.4626540000000  0.5469350000000  0.5142320000000 1.0
C      1  0.5893460000000  0.4610180000000  0.5372430000000 1.0
C      1  0.4505360000000  0.4978160000000  0.4808540000000 1.0
C      1  0.5843280000000  0.5063890000000  0.5066240000000 1.0
C      1  0.5304090000000  0.5234460000000  0.3934290000000 1.0
C      1  0.5582240000000  0.5806550000000  0.4673180000000 1.0
C      1  0.4241360000000  0.5620280000000  0.5020320000000 1.0
C      1  0.4235940000000  0.4875930000000  0.5103890000000 1.0
C      1  0.4568280000000  0.4579380000000  0.5897660000000 1.0
C      1  0.5001820000000  0.5055460000000  0.5905190000000 1.0
C      1  0.4861750000000  0.4145850000000  0.4913150000000 1.0
C      1  0.5768260000000  0.5482500000000  0.4251600000000 1.0
C      1  0.4717900000000  0.4625590000000  0.5406690000000 1.0
C      1  0.3998470000000  0.4569500000000  0.5320520000000 1.0
C      1  0.4357990000000  0.5029990000000  0.4062250000000 1.0
C      1  0.5449040000000  0.4824510000000  0.5253960000000 1.0
C      1  0.4818690000000  0.4581060000000  0.4112170000000 1.0
C      1  0.6177540000000  0.4934350000000  0.4725330000000 1.0
C      1  0.5316890000000  0.5241350000000  0.4956900000000 1.0
C      1  0.5777580000000  0.4757250000000  0.5647350000000 1.0
C      1  0.5102250000000  0.5039720000000  0.4011240000000 1.0
C      1  0.4882650000000  0.3990720000000  0.4625770000000 1.0
C      1  0.5340210000000  0.5225710000000  0.4329520000000 1.0
C      1  0.4910220000000  0.5617680000000  0.5219940000000 1.0
C      1  0.4741290000000  0.5313560000000  0.5569000000000 1.0
C      1  0.4346310000000  0.5550450000000  0.4704420000000 1.0
C      1  0.4268630000000  0.5007490000000  0.5747510000000 1.0
C      1  0.5902470000000  0.5133820000000  0.4738640000000 1.0
C      1  0.5794220000000  0.5050360000000  0.4426760000000 1.0
C      1  0.5314360000000  0.4280870000000  0.4667670000000 1.0
C      1  0.4974250000000  0.4556090000000  0.5619180000000 1.0
C      1  0.4187020000000  0.4750130000000  0.5538540000000 1.0
C      1  0.4896070000000  0.5129890000000  0.4573200000000 1.0
C      1  0.5608120000000  0.4174770000000  0.4772550000000 1.0
C      1  0.4252150000000  0.4978090000000  0.4499270000000 1.0
C      1  0.5217160000000  0.5098390000000  0.4687090000000 1.0
C      1  0.4759930000000  0.5736770000000  0.4681360000000 1.0
C      1  0.4775400000000  0.4343270000000  0.5250130000000 1.0
C      1  0.5795350000000  0.5311920000000  0.5294140000000 1.0
C      1  0.5467590000000  0.4044210000000  0.5215970000000 1.0
C      1  0.5151720000000  0.5951860000000  0.5676840000000 1.0
C      1  0.4534620000000  0.5796080000000  0.4271980000000 1.0
C      1  0.5197660000000  0.5670570000000  0.4773130000000 1.0
C      1  0.5180360000000  0.4924490000000  0.4283340000000 1.0
C      1  0.5812540000000  0.5408160000000  0.4824610000000 1.0
C      1  0.5532670000000  0.5001650000000  0.5028110000000 1.0
C      1  0.5670360000000  0.4503300000000  0.4718620000000 1.0
C      1  0.4628310000000  0.4858000000000  0.4176850000000 1.0
C      1  0.4192040000000  0.5112470000000  0.4773940000000 1.0
C      1  0.5173030000000  0.5552110000000  0.4474450000000 1.0
C      1  0.3975950000000  0.5081470000000  0.5027590000000 1.0
C      1  0.4377450000000  0.5715650000000  0.5324040000000 1.0
C      1  0.4737240000000  0.5035680000000  0.6046370000000 1.0
C      1  0.5566470000000  0.4581590000000  0.5785770000000 1.0
C      1  0.5294190000000  0.4229180000000  0.4373880000000 1.0
C      1  0.5030350000000  0.5204170000000  0.5422950000000 1.0
C      1  0.4352040000000  0.5579970000000  0.4365550000000 1.0
C      1  0.5433550000000  0.6072970000000  0.5112010000000 1.0
C      1  0.5153800000000  0.4343180000000  0.5814480000000 1.0
C      1  0.4406970000000  0.5326780000000  0.4141330000000 1.0
C      1  0.5842540000000  0.4540920000000  0.5077120000000 1.0
C      1  0.5169210000000  0.5963370000000  0.4943840000000 1.0
C      1  0.4854990000000  0.4482700000000  0.5929080000000 1.0
C      1  0.4766360000000  0.4131840000000  0.4421700000000 1.0
C      1  0.5449890000000  0.5255520000000  0.6048320000000 1.0
C      1  0.5535690000000  0.4534440000000  0.5205030000000 1.0
C      1  0.5402400000000  0.4733030000000  0.5955710000000 1.0
C      1  0.4543250000000  0.4235410000000  0.5555050000000 1.0
C      1  0.4763020000000  0.4771520000000  0.4891060000000 1.0
C      1  0.4945390000000  0.4810910000000  0.4466200000000 1.0
C      1  0.5427930000000  0.5849780000000  0.4410390000000 1.0
C      1  0.5426340000000  0.4744220000000  0.4299720000000 1.0
C      1  0.5423360000000  0.4356270000000  0.5702000000000 1.0
C      1  0.4927850000000  0.4961690000000  0.5600570000000 1.0
C      1  0.5234000000000  0.5390870000000  0.5558660000000 1.0
C      1  0.4126970000000  0.4328590000000  0.4547030000000 1.0
C      1  0.5036620000000  0.5386720000000  0.5836790000000 1.0
C      1  0.3995760000000  0.4574510000000  0.4730540000000 1.0
C      1  0.5023170000000  0.3984260000000  0.5272350000000 1.0
C      1  0.4469370000000  0.4678350000000  0.5194230000000 1.0
C      1  0.5127910000000  0.5802500000000  0.4248910000000 1.0
C      1  0.5865150000000  0.4288800000000  0.4899470000000 1.0
C      1  0.4279360000000  0.4724030000000  0.4806410000000 1.0
C      1  0.5064200000000  0.4823550000000  0.4766660000000 1.0
C      1  0.5493470000000  0.4990150000000  0.4521140000000 1.0
C      1  0.4720520000000  0.5512050000000  0.5844320000000 1.0
C      1  0.5125890000000  0.4527570000000  0.5205940000000 1.0
C      1  0.4847980000000  0.5265580000000  0.4873260000000 1.0
C      1  0.5749710000000  0.5715340000000  0.5276190000000 1.0
C      1  0.4464330000000  0.5293020000000  0.5765490000000 1.0
C      1  0.4758070000000  0.3959970000000  0.5143980000000 1.0
C      1  0.4116590000000  0.4712160000000  0.4443790000000 1.0
C      1  0.4524890000000  0.5312250000000  0.4869580000000 1.0
C      1  0.6026540000000  0.5555390000000  0.5354700000000 1.0
C      1  0.4049750000000  0.5381780000000  0.4921590000000 1.0
C      1  0.5139660000000  0.4823440000000  0.5373260000000 1.0
C      1  0.5222830000000  0.5512880000000  0.5138650000000 1.0
C      1  0.5589190000000  0.5171410000000  0.3956390000000 1.0
C      1  0.5156100000000  0.4043350000000  0.4814420000000 1.0
C      1  0.5409870000000  0.5862540000000  0.5725910000000 1.0
C      1  0.4511310000000  0.4128010000000  0.5252500000000 1.0
C      1  0.4279880000000  0.3993730000000  0.4955460000000 1.0
C      1  0.5131580000000  0.4465800000000  0.4191700000000 1.0
C      1  0.5554760000000  0.5681260000000  0.5523840000000 1.0
C      1  0.5256980000000  0.5674760000000  0.5409900000000 1.0
C      1  0.4245470000000  0.5239140000000  0.5526900000000 1.0
C      1  0.5253210000000  0.5443850000000  0.6064660000000 1.0
C      1  0.5110730000000  0.5952660000000  0.5279020000000 1.0
C      1  0.5726840000000  0.5079150000000  0.5699290000000 1.0
C      1  0.4342670000000  0.5148970000000  0.5235570000000 1.0
C      1  0.5774120000000  0.5827540000000  0.4953120000000 1.0
C      1  0.5056590000000  0.4282840000000  0.5431650000000 1.0
C      1  0.5354470000000  0.5021780000000  0.5852440000000 1.0
C      1  0.4591650000000  0.5801120000000  0.5074170000000 1.0
C      1  0.4919400000000  0.5565750000000  0.4884030000000 1.0
C      1  0.3967060000000  0.4888780000000  0.5311800000000 1.0
C      1  0.4450810000000  0.4545350000000  0.5601320000000 1.0
C      1  0.5031250000000  0.5137200000000  0.5109310000000 1.0
C      1  0.4553090000000  0.4883590000000  0.5846640000000 1.0
C      1  0.4881020000000  0.4464180000000  0.4976340000000 1.0
C      1  0.5715930000000  0.5164630000000  0.5960090000000 1.0
C      1  0.5088900000000  0.4726990000000  0.5893990000000 1.0
C      1  0.5958520000000  0.5463950000000  0.5051230000000 1.0
C      1  0.4810860000000  0.5750790000000  0.4366990000000 1.0
C      1  0.4088900000000  0.4188060000000  0.5062740000000 1.0
C      1  0.5504880000000  0.5518570000000  0.4407470000000 1.0
C      1  0.4546860000000  0.5329290000000  0.4441830000000 1.0
C      1  0.4737070000000  0.6034120000000  0.4783810000000 1.0
C      1  0.5494720000000  0.5513170000000  0.4825120000000 1.0
C      1  0.5778470000000  0.5217570000000  0.4173210000000 1.0
C      1  0.4713660000000  0.4600690000000  0.4601190000000 1.0
C      1  0.4421980000000  0.4441110000000  0.4673440000000 1.0
C      1  0.5908260000000  0.4918710000000  0.5366860000000 1.0
C      1  0.5240890000000  0.3949050000000  0.5096240000000 1.0
C      1  0.4459800000000  0.4283360000000  0.4954400000000 1.0
C      1  0.4183710000000  0.5444160000000  0.5293180000000 1.0
C      1  0.5536870000000  0.4793820000000  0.4792550000000 1.0
END
