TITL C-3289323-3850-178 2.71248036516573e-05 125000 -98.0064011306115 0 0 20 (C1) n - 1
REM
REM in /nfs/bkarasulu/CARBON/AIRSS/Generating-Clusters/AIREBO/with-SteepDescent/Higher-Symm/SD-CG/HFTN-CG
REM
REM
REM
REM
REM
REM ./C.cell (b20cbc046b6831c77cfcea5457e17084)
REM
REM compiler GCC version 9.2.1 20190827 (Red Hat 9.2.1-1)
REM options -cpp -mtune=generic -march=x86-64 -g -O0 -fpre-include=/usr/include/finclude/math-vector-fortran.h
REM seed -980136669 73182389 -985255207 -292177945 -1018712576 1961490612 -2112764336 -1953546372 -234620886 1577276443 -603349704 -554980639 -1952108247 2091659274 -172722768 1742135884 1239009477 586032123 -354004377 1537014501 -1724025995 -1214920601 -1206418555 -1188228051 -1358126119 950941561 52192291 -3952429 696435182 -1726749886 1350724242 1444111034 1351848335
REM
CELL 1.54180   50.00000   50.00000   50.00000   90.00000   90.00000   90.00000
LATT -1
SFAC C  
C      1  0.4844770000000  0.5130330000000  0.5266990000000 1.0
C      1  0.5173300000000  0.5167870000000  0.5338410000000 1.0
C      1  0.5359400000000  0.5169250000000  0.5132030000000 1.0
C      1  0.5254490000000  0.5133800000000  0.4812140000000 1.0
C      1  0.4973270000000  0.5194530000000  0.4648400000000 1.0
C      1  0.4720510000000  0.5098080000000  0.4743070000000 1.0
C      1  0.4652170000000  0.5191940000000  0.5005120000000 1.0
C      1  0.4556100000000  0.4945340000000  0.4593970000000 1.0
C      1  0.4429110000000  0.5348370000000  0.5046410000000 1.0
C      1  0.4701590000000  0.5028470000000  0.5483100000000 1.0
C      1  0.5238770000000  0.5217890000000  0.5600820000000 1.0
C      1  0.5626920000000  0.5220360000000  0.5170410000000 1.0
C      1  0.5455320000000  0.5035030000000  0.4646370000000 1.0
C      1  0.4989800000000  0.5352870000000  0.4423490000000 1.0
C      1  0.5028110000000  0.5358960000000  0.5021630000000 1.0
C      1  0.4998820000000  0.4190520000000  0.5010400000000 1.0
C      1  0.5020740000000  0.4715460000000  0.5010560000000 1.0
C      1  0.5021000000000  0.5616730000000  0.5017080000000 1.0
C      1  0.5012280000000  0.5019570000000  0.5005100000000 1.0
C      1  0.5008550000000  0.4452120000000  0.4997710000000 1.0
END
