TITL C-3289320-4661-552 -0.000999451229342166 125000 -356.972803237376 0 0 74 (C1) n - 1
REM
REM in /nfs/bkarasulu/CARBON/AIRSS/Generating-Clusters/AIREBO/with-SteepDescent/Higher-Symm/SD-CG/HFTN-CG
REM
REM
REM
REM
REM
REM ./C.cell (b20cbc046b6831c77cfcea5457e17084)
REM
REM compiler GCC version 9.2.1 20190827 (Red Hat 9.2.1-1)
REM options -cpp -mtune=generic -march=x86-64 -g -O0 -fpre-include=/usr/include/finclude/math-vector-fortran.h
REM seed 1337750539 -525957820 1369132377 44352516 1068881579 -675707098 -282841737 -535975177 1969379578 947588383 -1262816958 -1765126175 497950954 -1872069204 270743441 1280536112 2100588274 -1134538210 890283812 -1497079142 1641430012 -268993313 -1403998270 621415341 1400126198 149332358 -996662109 -1589073550 1388770575 1604088362 989899485 -414262029 357092307
REM
CELL 1.54180   50.00000   50.00000   50.00000   90.00000   90.00000   90.00000
LATT -1
SFAC C  
C      1  0.5481740000000  0.4504120000000  0.4870280000000 1.0
C      1  0.5680580000000  0.4856570000000  0.5118600000000 1.0
C      1  0.5625280000000  0.5258150000000  0.4881850000000 1.0
C      1  0.5410720000000  0.5569190000000  0.5168690000000 1.0
C      1  0.4968080000000  0.5640000000000  0.4927660000000 1.0
C      1  0.4552870000000  0.5540170000000  0.5159210000000 1.0
C      1  0.4379260000000  0.5136040000000  0.4897720000000 1.0
C      1  0.4364310000000  0.4688740000000  0.5166440000000 1.0
C      1  0.4709470000000  0.4422550000000  0.4917030000000 1.0
C      1  0.5130170000000  0.4326580000000  0.5150120000000 1.0
C      1  0.4682590000000  0.4991940000000  0.4224390000000 1.0
C      1  0.4810380000000  0.4798800000000  0.5867240000000 1.0
C      1  0.4920850000000  0.4744500000000  0.4241280000000 1.0
C      1  0.5139540000000  0.4755960000000  0.5816600000000 1.0
C      1  0.5310560000000  0.4872090000000  0.4285960000000 1.0
C      1  0.5277700000000  0.5065940000000  0.5838890000000 1.0
C      1  0.5172700000000  0.5243510000000  0.4258320000000 1.0
C      1  0.5057220000000  0.5289980000000  0.5760180000000 1.0
C      1  0.4848250000000  0.5278930000000  0.4175870000000 1.0
C      1  0.4772760000000  0.5106250000000  0.5729520000000 1.0
C      1  0.4912490000000  0.5584720000000  0.4037680000000 1.0
C      1  0.4646600000000  0.5423940000000  0.5758270000000 1.0
C      1  0.4457510000000  0.5228290000000  0.4178240000000 1.0
C      1  0.4510410000000  0.4807320000000  0.5759230000000 1.0
C      1  0.4629640000000  0.4610630000000  0.4133900000000 1.0
C      1  0.4987530000000  0.4451850000000  0.5822190000000 1.0
C      1  0.5293600000000  0.4602380000000  0.4216300000000 1.0
C      1  0.5525160000000  0.4893700000000  0.5999180000000 1.0
C      1  0.5473910000000  0.5183270000000  0.4176640000000 1.0
C      1  0.5323260000000  0.5459790000000  0.5817440000000 1.0
C      1  0.5193330000000  0.4689440000000  0.4644890000000 1.0
C      1  0.5484350000000  0.4754060000000  0.5487840000000 1.0
C      1  0.5340570000000  0.5058490000000  0.4689970000000 1.0
C      1  0.5236300000000  0.5195670000000  0.5270800000000 1.0
C      1  0.5100550000000  0.5501810000000  0.4553850000000 1.0
C      1  0.4850870000000  0.5280320000000  0.5212590000000 1.0
C      1  0.4752390000000  0.5131040000000  0.4686660000000 1.0
C      1  0.4681120000000  0.4922710000000  0.5216190000000 1.0
C      1  0.4800000000000  0.4735780000000  0.4664060000000 1.0
C      1  0.4998710000000  0.4679630000000  0.5278240000000 1.0
C      1  0.4530330000000  0.5385760000000  0.4899570000000 1.0
C      1  0.4292510000000  0.4988390000000  0.5151900000000 1.0
C      1  0.4511150000000  0.4622710000000  0.4916330000000 1.0
C      1  0.4841920000000  0.4324220000000  0.5165180000000 1.0
C      1  0.5234680000000  0.4350750000000  0.4883250000000 1.0
C      1  0.5555190000000  0.4603100000000  0.5124450000000 1.0
C      1  0.5688910000000  0.4976850000000  0.4867660000000 1.0
C      1  0.5591390000000  0.5339220000000  0.5157100000000 1.0
C      1  0.5242070000000  0.5590630000000  0.4919320000000 1.0
C      1  0.4820490000000  0.5675360000000  0.5176950000000 1.0
C      1  0.5298500000000  0.4559510000000  0.5317440000000 1.0
C      1  0.5517000000000  0.4769240000000  0.4660310000000 1.0
C      1  0.5538110000000  0.5049480000000  0.5327340000000 1.0
C      1  0.5348760000000  0.5369320000000  0.4713110000000 1.0
C      1  0.5096270000000  0.5505440000000  0.5281230000000 1.0
C      1  0.4799050000000  0.5467260000000  0.4707390000000 1.0
C      1  0.4518280000000  0.5217730000000  0.5262070000000 1.0
C      1  0.4506210000000  0.4898480000000  0.4717290000000 1.0
C      1  0.4669770000000  0.4593210000000  0.5282160000000 1.0
C      1  0.4965370000000  0.4442580000000  0.4697130000000 1.0
C      1  0.5572630000000  0.5015000000000  0.4431960000000 1.0
C      1  0.5404050000000  0.5241370000000  0.5573950000000 1.0
C      1  0.5106170000000  0.5567030000000  0.4265880000000 1.0
C      1  0.4870070000000  0.5433710000000  0.5524760000000 1.0
C      1  0.4641050000000  0.5328530000000  0.4433130000000 1.0
C      1  0.4528280000000  0.4996270000000  0.5519910000000 1.0
C      1  0.4564740000000  0.4751850000000  0.4416150000000 1.0
C      1  0.4848130000000  0.4622920000000  0.5577960000000 1.0
C      1  0.5073080000000  0.4481070000000  0.4380800000000 1.0
C      1  0.5452590000000  0.4718930000000  0.5760820000000 1.0
C      1  0.4968880000000  0.5009450000000  0.5469100000000 1.0
C      1  0.5035270000000  0.4993780000000  0.4444390000000 1.0
C      1  0.5029510000000  0.4956870000000  0.4782840000000 1.0
C      1  0.5003900000000  0.4987740000000  0.5131150000000 1.0
END
