TITL C-3289334-2237-594 0.000825127547560673 125000 -764.084486973833 0 0 137 (C1) n - 1
REM
REM in /nfs/bkarasulu/CARBON/AIRSS/Generating-Clusters/AIREBO/with-SteepDescent/Higher-Symm/SD-CG/HFTN-CG
REM
REM
REM
REM
REM
REM ./C.cell (b20cbc046b6831c77cfcea5457e17084)
REM
REM compiler GCC version 9.2.1 20190827 (Red Hat 9.2.1-1)
REM options -cpp -mtune=generic -march=x86-64 -g -O0 -fpre-include=/usr/include/finclude/math-vector-fortran.h
REM seed 427054960 929144655 1744260646 -1248355774 724489725 -1460084902 322216589 -1155178648 -2142519590 -1370203906 -469913967 476487345 1135665667 -165407599 878245814 1654010087 1531827664 -856356132 588195531 -186751674 1561349617 2058065892 -142324574 -506318230 -1839289078 1024787737 1840493947 1086106273 811757648 -395464474 30519488 -553904194 -995261717
REM
CELL 1.54180   50.00000   50.00000   50.00000   90.00000   90.00000   90.00000
LATT -1
SFAC C  
C      1  0.4843900000000  0.4581640000000  0.5189130000000 1.0
C      1  0.5271150000000  0.4701340000000  0.5050170000000 1.0
C      1  0.4975820000000  0.4661280000000  0.4886020000000 1.0
C      1  0.4617940000000  0.4882640000000  0.5962820000000 1.0
C      1  0.6019780000000  0.4876360000000  0.4828660000000 1.0
C      1  0.4377400000000  0.4983040000000  0.4360940000000 1.0
C      1  0.5026410000000  0.5529330000000  0.4190690000000 1.0
C      1  0.4268540000000  0.5485360000000  0.5362940000000 1.0
C      1  0.5728330000000  0.5452030000000  0.5630370000000 1.0
C      1  0.5783810000000  0.4955770000000  0.4364300000000 1.0
C      1  0.3979860000000  0.5053330000000  0.4696640000000 1.0
C      1  0.5137780000000  0.5008350000000  0.5928670000000 1.0
C      1  0.5655830000000  0.5076640000000  0.5163070000000 1.0
C      1  0.4882900000000  0.5074230000000  0.4382330000000 1.0
C      1  0.4507000000000  0.5047720000000  0.5488180000000 1.0
C      1  0.5772910000000  0.4353680000000  0.5273550000000 1.0
C      1  0.5023590000000  0.4324750000000  0.4233010000000 1.0
C      1  0.4317170000000  0.4345280000000  0.5401380000000 1.0
C      1  0.4607930000000  0.4276770000000  0.5426090000000 1.0
C      1  0.5538810000000  0.4258810000000  0.5111120000000 1.0
C      1  0.4909620000000  0.4267940000000  0.4490270000000 1.0
C      1  0.5752240000000  0.4607910000000  0.5380420000000 1.0
C      1  0.5146640000000  0.4579280000000  0.4219950000000 1.0
C      1  0.4253030000000  0.4586270000000  0.5281880000000 1.0
C      1  0.4103750000000  0.4630270000000  0.4988690000000 1.0
C      1  0.5378020000000  0.4549240000000  0.5780860000000 1.0
C      1  0.5480080000000  0.4563430000000  0.4219270000000 1.0
C      1  0.5300100000000  0.5880960000000  0.4664600000000 1.0
C      1  0.4419810000000  0.5768720000000  0.4642110000000 1.0
C      1  0.4964190000000  0.5704500000000  0.5679660000000 1.0
C      1  0.4394240000000  0.4725830000000  0.4537740000000 1.0
C      1  0.4915150000000  0.4769520000000  0.5833420000000 1.0
C      1  0.5786110000000  0.4735210000000  0.4623140000000 1.0
C      1  0.5179630000000  0.4614140000000  0.5965570000000 1.0
C      1  0.5738010000000  0.4558990000000  0.4376870000000 1.0
C      1  0.4130300000000  0.4760350000000  0.4703320000000 1.0
C      1  0.4793010000000  0.4836310000000  0.4170970000000 1.0
C      1  0.4368350000000  0.4897100000000  0.5727350000000 1.0
C      1  0.5913530000000  0.4894340000000  0.5153960000000 1.0
C      1  0.4202290000000  0.5292930000000  0.5095210000000 1.0
C      1  0.5535150000000  0.5175990000000  0.5680920000000 1.0
C      1  0.5346950000000  0.5188600000000  0.4292340000000 1.0
C      1  0.5597010000000  0.5285090000000  0.5364880000000 1.0
C      1  0.5103910000000  0.5288680000000  0.4395150000000 1.0
C      1  0.4495120000000  0.5256940000000  0.5248310000000 1.0
C      1  0.5770620000000  0.5295470000000  0.4370130000000 1.0
C      1  0.3994970000000  0.5374750000000  0.4582840000000 1.0
C      1  0.5073040000000  0.5337280000000  0.6003400000000 1.0
C      1  0.5709760000000  0.5230180000000  0.4891960000000 1.0
C      1  0.4600460000000  0.5184990000000  0.4449590000000 1.0
C      1  0.4763840000000  0.5151150000000  0.5647440000000 1.0
C      1  0.4189550000000  0.5168880000000  0.4463770000000 1.0
C      1  0.4823650000000  0.5136810000000  0.5949800000000 1.0
C      1  0.5872780000000  0.5122400000000  0.4645710000000 1.0
C      1  0.5059530000000  0.4799580000000  0.4464440000000 1.0
C      1  0.4435490000000  0.4862680000000  0.5246020000000 1.0
C      1  0.5514540000000  0.4810920000000  0.5260990000000 1.0
C      1  0.4670700000000  0.3917310000000  0.5184410000000 1.0
C      1  0.5318880000000  0.3927680000000  0.5203130000000 1.0
C      1  0.4969950000000  0.3922950000000  0.4681660000000 1.0
C      1  0.5506580000000  0.4959890000000  0.4215630000000 1.0
C      1  0.4095020000000  0.5029180000000  0.4995430000000 1.0
C      1  0.5379550000000  0.4945720000000  0.5751100000000 1.0
C      1  0.4857790000000  0.5254220000000  0.4823470000000 1.0
C      1  0.4911120000000  0.5078900000000  0.5202090000000 1.0
C      1  0.5310730000000  0.5236660000000  0.4909150000000 1.0
C      1  0.5026930000000  0.4969140000000  0.4024670000000 1.0
C      1  0.4112190000000  0.5001340000000  0.5530660000000 1.0
C      1  0.5838840000000  0.4920530000000  0.5485050000000 1.0
C      1  0.5390590000000  0.4844980000000  0.4491670000000 1.0
C      1  0.4412550000000  0.4968100000000  0.4923520000000 1.0
C      1  0.5283360000000  0.4795050000000  0.5480740000000 1.0
C      1  0.5921240000000  0.5173970000000  0.5597450000000 1.0
C      1  0.5024120000000  0.5243420000000  0.4006370000000 1.0
C      1  0.4069850000000  0.5279060000000  0.5521840000000 1.0
C      1  0.4139110000000  0.5590460000000  0.4682200000000 1.0
C      1  0.5130710000000  0.5557620000000  0.5839480000000 1.0
C      1  0.5612120000000  0.5486910000000  0.4274190000000 1.0
C      1  0.5116560000000  0.4414440000000  0.4698240000000 1.0
C      1  0.4589990000000  0.4403740000000  0.5115740000000 1.0
C      1  0.5283850000000  0.4414490000000  0.5211400000000 1.0
C      1  0.4996690000000  0.4972440000000  0.4750500000000 1.0
C      1  0.4726410000000  0.4862920000000  0.5143100000000 1.0
C      1  0.5187770000000  0.5024360000000  0.5095990000000 1.0
C      1  0.4514870000000  0.4603560000000  0.5816640000000 1.0
C      1  0.5946760000000  0.4596290000000  0.4996900000000 1.0
C      1  0.4600170000000  0.4663870000000  0.4274280000000 1.0
C      1  0.5399750000000  0.5512810000000  0.5694550000000 1.0
C      1  0.5347250000000  0.5587120000000  0.4287540000000 1.0
C      1  0.4455850000000  0.5632020000000  0.5120010000000 1.0
C      1  0.5085780000000  0.5810220000000  0.5410280000000 1.0
C      1  0.5079880000000  0.6101230000000  0.4684680000000 1.0
C      1  0.4589530000000  0.5989310000000  0.4821120000000 1.0
C      1  0.4588580000000  0.4106160000000  0.4985330000000 1.0
C      1  0.5149300000000  0.4124180000000  0.5326440000000 1.0
C      1  0.5193750000000  0.4087100000000  0.4719990000000 1.0
C      1  0.4789850000000  0.5380390000000  0.5131860000000 1.0
C      1  0.5344410000000  0.5428850000000  0.5188380000000 1.0
C      1  0.5126410000000  0.5383530000000  0.4698900000000 1.0
C      1  0.5233190000000  0.4460630000000  0.5523270000000 1.0
C      1  0.5376030000000  0.4514660000000  0.4539280000000 1.0
C      1  0.4437310000000  0.4628730000000  0.4922600000000 1.0
C      1  0.4631310000000  0.5413450000000  0.5590050000000 1.0
C      1  0.5748290000000  0.5530930000000  0.4940340000000 1.0
C      1  0.4569810000000  0.5440420000000  0.4273920000000 1.0
C      1  0.5158820000000  0.6064720000000  0.4984190000000 1.0
C      1  0.4812810000000  0.6061510000000  0.4618930000000 1.0
C      1  0.4658100000000  0.5902130000000  0.5118600000000 1.0
C      1  0.5036330000000  0.5028640000000  0.5491870000000 1.0
C      1  0.5493890000000  0.5028680000000  0.4732870000000 1.0
C      1  0.4545980000000  0.5230920000000  0.4770810000000 1.0
C      1  0.4037520000000  0.4842630000000  0.5258390000000 1.0
C      1  0.5628630000000  0.4728350000000  0.5670950000000 1.0
C      1  0.5311370000000  0.4792780000000  0.4021720000000 1.0
C      1  0.5702590000000  0.4451260000000  0.4892140000000 1.0
C      1  0.4631330000000  0.4411470000000  0.4483840000000 1.0
C      1  0.4722000000000  0.4474610000000  0.5646660000000 1.0
C      1  0.5486650000000  0.4265230000000  0.4717200000000 1.0
C      1  0.4461910000000  0.4304400000000  0.4744480000000 1.0
C      1  0.4976730000000  0.4287420000000  0.5575370000000 1.0
C      1  0.5422130000000  0.5889330000000  0.4949080000000 1.0
C      1  0.4685060000000  0.5836140000000  0.4465700000000 1.0
C      1  0.4761260000000  0.5882720000000  0.5469670000000 1.0
C      1  0.4690170000000  0.4653090000000  0.4699640000000 1.0
C      1  0.4882320000000  0.4725370000000  0.5497560000000 1.0
C      1  0.5527800000000  0.4720690000000  0.4843760000000 1.0
C      1  0.4755660000000  0.5641240000000  0.4284650000000 1.0
C      1  0.4673200000000  0.5592620000000  0.5370730000000 1.0
C      1  0.5535270000000  0.5659350000000  0.5053890000000 1.0
C      1  0.4423570000000  0.5510590000000  0.4844460000000 1.0
C      1  0.5219060000000  0.5315670000000  0.5483610000000 1.0
C      1  0.5253270000000  0.5632810000000  0.4556070000000 1.0
C      1  0.4702750000000  0.4071220000000  0.4677050000000 1.0
C      1  0.4831740000000  0.4032690000000  0.5402590000000 1.0
C      1  0.5428050000000  0.4005290000000  0.4934980000000 1.0
C      1  0.5061680000000  0.5579650000000  0.5167410000000 1.0
C      1  0.4965600000000  0.5894230000000  0.5126970000000 1.0
END
