TITL C-3289333-7213-441 0.000540874270804032 125000 -1001.02020393713 0 0 188 (C1) n - 1
REM
REM in /nfs/bkarasulu/CARBON/AIRSS/Generating-Clusters/AIREBO/with-SteepDescent/Higher-Symm/SD-CG/HFTN-CG
REM
REM
REM
REM
REM
REM ./C.cell (b20cbc046b6831c77cfcea5457e17084)
REM
REM compiler GCC version 9.2.1 20190827 (Red Hat 9.2.1-1)
REM options -cpp -mtune=generic -march=x86-64 -g -O0 -fpre-include=/usr/include/finclude/math-vector-fortran.h
REM seed -340515955 -1058773384 594376941 164202638 1350415960 1304781588 -813695632 1491932150 -1413643659 -782684499 697532181 -1722264825 -2081698735 -419036341 -957986754 -1859012123 577948196 -1599804506 -1336527860 1643188366 1722999632 371692185 -1433927571 1005160085 1707031568 1511521983 94735652 908030942 2068484763 -786763515 -1786161131 -428918638 817675041
REM
CELL 1.54180   50.00000   50.00000   50.00000   90.00000   90.00000   90.00000
LATT -1
SFAC C  
C      1  0.4995530000000  0.5472880000000  0.4665230000000 1.0
C      1  0.5087660000000  0.4511760000000  0.5273740000000 1.0
C      1  0.4939570000000  0.4010460000000  0.4843710000000 1.0
C      1  0.5044240000000  0.6048540000000  0.5235770000000 1.0
C      1  0.5554010000000  0.4948940000000  0.3950760000000 1.0
C      1  0.4490330000000  0.5071450000000  0.6040790000000 1.0
C      1  0.3815940000000  0.5010910000000  0.5095360000000 1.0
C      1  0.6124030000000  0.5045770000000  0.4938220000000 1.0
C      1  0.5839120000000  0.4321690000000  0.4567550000000 1.0
C      1  0.4225430000000  0.5703000000000  0.5393960000000 1.0
C      1  0.4709420000000  0.4020480000000  0.5279060000000 1.0
C      1  0.5274620000000  0.5885730000000  0.4777960000000 1.0
C      1  0.4374060000000  0.4806240000000  0.5914000000000 1.0
C      1  0.5649540000000  0.5198130000000  0.4088060000000 1.0
C      1  0.5311880000000  0.5454990000000  0.4374550000000 1.0
C      1  0.4585920000000  0.4570550000000  0.5638480000000 1.0
C      1  0.4846100000000  0.4101950000000  0.4540140000000 1.0
C      1  0.5146720000000  0.5915820000000  0.5481190000000 1.0
C      1  0.4829880000000  0.4327180000000  0.4869420000000 1.0
C      1  0.5246360000000  0.5593070000000  0.4948710000000 1.0
C      1  0.3852160000000  0.4932890000000  0.4822570000000 1.0
C      1  0.6179890000000  0.5103300000000  0.5218740000000 1.0
C      1  0.4479360000000  0.4619570000000  0.4512520000000 1.0
C      1  0.5449260000000  0.5366830000000  0.5522820000000 1.0
C      1  0.5878160000000  0.5837340000000  0.4653490000000 1.0
C      1  0.4154900000000  0.4284780000000  0.5268960000000 1.0
C      1  0.4699450000000  0.4339930000000  0.4127270000000 1.0
C      1  0.5286820000000  0.5668780000000  0.5900670000000 1.0
C      1  0.4614940000000  0.4808630000000  0.4048960000000 1.0
C      1  0.5348400000000  0.5186550000000  0.5974820000000 1.0
C      1  0.4978440000000  0.4749660000000  0.5432690000000 1.0
C      1  0.5002600000000  0.5216540000000  0.4505170000000 1.0
C      1  0.5406750000000  0.4173530000000  0.4338690000000 1.0
C      1  0.4574020000000  0.5856450000000  0.5711630000000 1.0
C      1  0.4525450000000  0.4582130000000  0.4177670000000 1.0
C      1  0.5442260000000  0.5424430000000  0.5857880000000 1.0
C      1  0.5394940000000  0.5455700000000  0.4674160000000 1.0
C      1  0.4463420000000  0.4532170000000  0.5172370000000 1.0
C      1  0.5669630000000  0.5117330000000  0.4786050000000 1.0
C      1  0.4334940000000  0.4919690000000  0.5222610000000 1.0
C      1  0.5801740000000  0.5005760000000  0.5942960000000 1.0
C      1  0.4212480000000  0.5072780000000  0.4099930000000 1.0
C      1  0.5483570000000  0.5759950000000  0.4186400000000 1.0
C      1  0.4461360000000  0.4223790000000  0.5783610000000 1.0
C      1  0.4013030000000  0.5273670000000  0.5072450000000 1.0
C      1  0.5979820000000  0.4749800000000  0.4937340000000 1.0
C      1  0.4685500000000  0.5506280000000  0.5485880000000 1.0
C      1  0.5342930000000  0.4525970000000  0.4512050000000 1.0
C      1  0.5740070000000  0.4126430000000  0.4746400000000 1.0
C      1  0.4364000000000  0.5851760000000  0.5212640000000 1.0
C      1  0.4201440000000  0.5011760000000  0.4426130000000 1.0
C      1  0.5812750000000  0.5034750000000  0.5608990000000 1.0
C      1  0.5880580000000  0.4919640000000  0.4412520000000 1.0
C      1  0.4144080000000  0.5100630000000  0.5589010000000 1.0
C      1  0.4528340000000  0.5228220000000  0.5585530000000 1.0
C      1  0.5498970000000  0.4795620000000  0.4401880000000 1.0
C      1  0.4419840000000  0.4508470000000  0.5928660000000 1.0
C      1  0.5518250000000  0.5445810000000  0.4104770000000 1.0
C      1  0.3971320000000  0.4662660000000  0.4716160000000 1.0
C      1  0.6041910000000  0.5366500000000  0.5300400000000 1.0
C      1  0.5887800000000  0.4709390000000  0.5531350000000 1.0
C      1  0.4128360000000  0.5333740000000  0.4508470000000 1.0
C      1  0.5707450000000  0.4421200000000  0.5601280000000 1.0
C      1  0.4332900000000  0.5548990000000  0.4371140000000 1.0
C      1  0.4226400000000  0.4398850000000  0.4566840000000 1.0
C      1  0.5716430000000  0.5573460000000  0.5562420000000 1.0
C      1  0.4337030000000  0.4675690000000  0.5445310000000 1.0
C      1  0.5669820000000  0.5328750000000  0.4550530000000 1.0
C      1  0.5585420000000  0.5715210000000  0.4776090000000 1.0
C      1  0.4473920000000  0.4209950000000  0.5216010000000 1.0
C      1  0.4533890000000  0.4952520000000  0.4467600000000 1.0
C      1  0.5472720000000  0.5036970000000  0.5602440000000 1.0
C      1  0.5546380000000  0.4462090000000  0.5870910000000 1.0
C      1  0.4459590000000  0.5453570000000  0.4076180000000 1.0
C      1  0.4773490000000  0.5322400000000  0.4098620000000 1.0
C      1  0.5243770000000  0.4615110000000  0.5830880000000 1.0
C      1  0.5613830000000  0.4652420000000  0.4114810000000 1.0
C      1  0.4402760000000  0.5359440000000  0.5872960000000 1.0
C      1  0.5108710000000  0.5125350000000  0.5780730000000 1.0
C      1  0.4923680000000  0.4846040000000  0.4123990000000 1.0
C      1  0.5384880000000  0.4577360000000  0.5360740000000 1.0
C      1  0.4687370000000  0.5417430000000  0.4715670000000 1.0
C      1  0.4505830000000  0.4641060000000  0.4852470000000 1.0
C      1  0.5498370000000  0.5339640000000  0.5187050000000 1.0
C      1  0.5880080000000  0.4595200000000  0.5219540000000 1.0
C      1  0.4110380000000  0.5421830000000  0.4789480000000 1.0
C      1  0.5151430000000  0.4429070000000  0.3870570000000 1.0
C      1  0.4823890000000  0.5545310000000  0.6133620000000 1.0
C      1  0.4321700000000  0.5153140000000  0.4995730000000 1.0
C      1  0.5682650000000  0.4886530000000  0.5030660000000 1.0
C      1  0.5228530000000  0.6134510000000  0.4984990000000 1.0
C      1  0.4779120000000  0.3784840000000  0.5042160000000 1.0
C      1  0.5113580000000  0.5239550000000  0.3841520000000 1.0
C      1  0.4882160000000  0.4638060000000  0.6124740000000 1.0
C      1  0.4846230000000  0.4931550000000  0.5212540000000 1.0
C      1  0.5113520000000  0.5036080000000  0.4738820000000 1.0
C      1  0.5068590000000  0.5476540000000  0.4059020000000 1.0
C      1  0.4974870000000  0.4429620000000  0.5931000000000 1.0
C      1  0.5856760000000  0.5015240000000  0.5275680000000 1.0
C      1  0.4154980000000  0.5015260000000  0.4747210000000 1.0
C      1  0.4732740000000  0.5404080000000  0.5172320000000 1.0
C      1  0.5261820000000  0.4646750000000  0.4802020000000 1.0
C      1  0.4268010000000  0.5307210000000  0.5381390000000 1.0
C      1  0.5752180000000  0.4707990000000  0.4611350000000 1.0
C      1  0.5575870000000  0.4605470000000  0.4871910000000 1.0
C      1  0.4414960000000  0.5448670000000  0.5109310000000 1.0
C      1  0.4790010000000  0.5080680000000  0.4284130000000 1.0
C      1  0.5194310000000  0.4848380000000  0.5657890000000 1.0
C      1  0.4712320000000  0.5618270000000  0.4207870000000 1.0
C      1  0.5265050000000  0.4282190000000  0.5896610000000 1.0
C      1  0.5544420000000  0.4163790000000  0.4929520000000 1.0
C      1  0.4620320000000  0.5798930000000  0.4995510000000 1.0
C      1  0.5790820000000  0.5273250000000  0.5064220000000 1.0
C      1  0.4210660000000  0.4751490000000  0.4954510000000 1.0
C      1  0.4900120000000  0.5747960000000  0.4822020000000 1.0
C      1  0.5076540000000  0.4213890000000  0.5158980000000 1.0
C      1  0.4796520000000  0.4756360000000  0.4960040000000 1.0
C      1  0.5247610000000  0.5199030000000  0.5005460000000 1.0
C      1  0.4022400000000  0.4583400000000  0.5174720000000 1.0
C      1  0.5860970000000  0.5531760000000  0.4854600000000 1.0
C      1  0.4540640000000  0.4249540000000  0.4908050000000 1.0
C      1  0.5540110000000  0.5656320000000  0.5107880000000 1.0
C      1  0.4840010000000  0.4505130000000  0.4628440000000 1.0
C      1  0.5188690000000  0.5571600000000  0.5283190000000 1.0
C      1  0.4092990000000  0.4684380000000  0.4438690000000 1.0
C      1  0.5912270000000  0.5359190000000  0.5552150000000 1.0
C      1  0.5251910000000  0.4122190000000  0.4882420000000 1.0
C      1  0.4750170000000  0.5987040000000  0.5215720000000 1.0
C      1  0.5660780000000  0.5799790000000  0.4392140000000 1.0
C      1  0.4268250000000  0.4193140000000  0.5584090000000 1.0
C      1  0.5070420000000  0.3879740000000  0.5195510000000 1.0
C      1  0.4926090000000  0.6082830000000  0.4838130000000 1.0
C      1  0.5155130000000  0.5727400000000  0.4273590000000 1.0
C      1  0.4783280000000  0.4299930000000  0.5704200000000 1.0
C      1  0.4639120000000  0.4323490000000  0.4455080000000 1.0
C      1  0.5321860000000  0.5679720000000  0.5576800000000 1.0
C      1  0.5038920000000  0.5861610000000  0.4532970000000 1.0
C      1  0.4953160000000  0.4143410000000  0.5467970000000 1.0
C      1  0.5598810000000  0.4414650000000  0.5152480000000 1.0
C      1  0.4337840000000  0.5664920000000  0.4861570000000 1.0
C      1  0.6096400000000  0.5290340000000  0.4808110000000 1.0
C      1  0.3823810000000  0.4768650000000  0.5252440000000 1.0
C      1  0.5563750000000  0.4726750000000  0.5572850000000 1.0
C      1  0.4518670000000  0.5291960000000  0.4483520000000 1.0
C      1  0.5268360000000  0.4017800000000  0.5440460000000 1.0
C      1  0.4726950000000  0.5992490000000  0.4569960000000 1.0
C      1  0.4606700000000  0.5104390000000  0.5272020000000 1.0
C      1  0.5418290000000  0.4933280000000  0.4706950000000 1.0
C      1  0.5111720000000  0.5327760000000  0.5507510000000 1.0
C      1  0.4954610000000  0.4721980000000  0.4439180000000 1.0
C      1  0.4784800000000  0.5095960000000  0.5749290000000 1.0
C      1  0.5242230000000  0.4900820000000  0.4229530000000 1.0
C      1  0.4793550000000  0.4779870000000  0.5674630000000 1.0
C      1  0.5166870000000  0.5203410000000  0.4236070000000 1.0
C      1  0.6015490000000  0.4535390000000  0.4695350000000 1.0
C      1  0.4016850000000  0.5507570000000  0.5294810000000 1.0
C      1  0.5841300000000  0.5561350000000  0.4460110000000 1.0
C      1  0.4098040000000  0.4462690000000  0.5543700000000 1.0
C      1  0.4425180000000  0.5815730000000  0.4574600000000 1.0
C      1  0.5573520000000  0.4177620000000  0.5401180000000 1.0
C      1  0.5162110000000  0.4174410000000  0.4557540000000 1.0
C      1  0.4821990000000  0.5879390000000  0.5520570000000 1.0
C      1  0.5034390000000  0.4561920000000  0.4971140000000 1.0
C      1  0.4971910000000  0.5397790000000  0.4996020000000 1.0
C      1  0.5321900000000  0.4319660000000  0.5573550000000 1.0
C      1  0.4694700000000  0.5666820000000  0.4489790000000 1.0
C      1  0.5100550000000  0.4430290000000  0.4341600000000 1.0
C      1  0.4938980000000  0.5585800000000  0.5646280000000 1.0
C      1  0.4256770000000  0.4877460000000  0.5675910000000 1.0
C      1  0.5760380000000  0.5139290000000  0.4329880000000 1.0
C      1  0.5222520000000  0.4984710000000  0.3900590000000 1.0
C      1  0.4758680000000  0.4866730000000  0.5998610000000 1.0
C      1  0.5378130000000  0.4865660000000  0.5180530000000 1.0
C      1  0.4611520000000  0.5142730000000  0.4840150000000 1.0
C      1  0.4547580000000  0.3950830000000  0.4856440000000 1.0
C      1  0.5452040000000  0.5975760000000  0.5184140000000 1.0
C      1  0.4802230000000  0.4915670000000  0.4673690000000 1.0
C      1  0.5131150000000  0.5080110000000  0.5273670000000 1.0
C      1  0.4978780000000  0.4362320000000  0.4075670000000 1.0
C      1  0.5008650000000  0.5628620000000  0.5946110000000 1.0
C      1  0.4628510000000  0.5370850000000  0.6112530000000 1.0
C      1  0.5337310000000  0.4665300000000  0.3921330000000 1.0
C      1  0.4394160000000  0.5601430000000  0.5633110000000 1.0
C      1  0.5629300000000  0.4419960000000  0.4362540000000 1.0
C      1  0.5558910000000  0.5030010000000  0.6076520000000 1.0
C      1  0.4409330000000  0.4964090000000  0.3942350000000 1.0
C      1  0.4320520000000  0.4132600000000  0.4676660000000 1.0
C      1  0.5674400000000  0.5803430000000  0.5383470000000 1.0
END
