TITL C-3289333-7213-53 0.000878906246455201 125000 -693.111948812542 0 0 126 (C1) n - 1
REM
REM in /nfs/bkarasulu/CARBON/AIRSS/Generating-Clusters/AIREBO/with-SteepDescent/Higher-Symm/SD-CG/HFTN-CG
REM
REM
REM
REM
REM
REM ./C.cell (b20cbc046b6831c77cfcea5457e17084)
REM
REM compiler GCC version 9.2.1 20190827 (Red Hat 9.2.1-1)
REM options -cpp -mtune=generic -march=x86-64 -g -O0 -fpre-include=/usr/include/finclude/math-vector-fortran.h
REM seed 1131667629 444423599 1710962087 1482439325 2125253291 -775147882 365095932 -185385121 -1215115742 -318201803 1209756732 -1221496006 450878331 1578227306 1069410775 1617257602 2005995495 -1844432107 -1699355685 -412543027 1534377741 1556509571 504357328 113277681 -1603439102 36400227 -752188189 657839559 -231865435 -1553368794 -86909959 1807937113 -405283792
REM
CELL 1.54180   50.00000   50.00000   50.00000   90.00000   90.00000   90.00000
LATT -1
SFAC C  
C      1  0.5795250000000  0.5533640000000  0.4780160000000 1.0
C      1  0.4672620000000  0.5637540000000  0.5748820000000 1.0
C      1  0.4465820000000  0.5490540000000  0.4412350000000 1.0
C      1  0.5700160000000  0.5478880000000  0.5252340000000 1.0
C      1  0.4944160000000  0.5393780000000  0.4174770000000 1.0
C      1  0.4306470000000  0.5567850000000  0.5494740000000 1.0
C      1  0.4403990000000  0.5799360000000  0.5047030000000 1.0
C      1  0.5179980000000  0.5905270000000  0.4393110000000 1.0
C      1  0.5427630000000  0.5952220000000  0.5330930000000 1.0
C      1  0.4398170000000  0.5892710000000  0.4718970000000 1.0
C      1  0.5203730000000  0.5968510000000  0.5447880000000 1.0
C      1  0.5364440000000  0.5884370000000  0.4587730000000 1.0
C      1  0.5204440000000  0.5007730000000  0.5167280000000 1.0
C      1  0.4742320000000  0.4827720000000  0.5160270000000 1.0
C      1  0.4998480000000  0.5052740000000  0.4827910000000 1.0
C      1  0.5235840000000  0.4857350000000  0.4905650000000 1.0
C      1  0.4740350000000  0.4953440000000  0.4901780000000 1.0
C      1  0.4962940000000  0.4941320000000  0.5323230000000 1.0
C      1  0.5729400000000  0.5249350000000  0.4892990000000 1.0
C      1  0.4681900000000  0.5390240000000  0.5612150000000 1.0
C      1  0.4540050000000  0.5221670000000  0.4488200000000 1.0
C      1  0.5717610000000  0.5180280000000  0.5204180000000 1.0
C      1  0.4801810000000  0.5148350000000  0.4354610000000 1.0
C      1  0.4439780000000  0.5267200000000  0.5451900000000 1.0
C      1  0.4518970000000  0.5143990000000  0.4818620000000 1.0
C      1  0.5393420000000  0.5068730000000  0.4610480000000 1.0
C      1  0.4971110000000  0.5086350000000  0.5615110000000 1.0
C      1  0.4492310000000  0.5270130000000  0.5127040000000 1.0
C      1  0.5471440000000  0.4991730000000  0.5324930000000 1.0
C      1  0.5067100000000  0.5056870000000  0.4515620000000 1.0
C      1  0.5752140000000  0.4906760000000  0.5628720000000 1.0
C      1  0.4082010000000  0.4986110000000  0.5316680000000 1.0
C      1  0.5082570000000  0.5096590000000  0.4078360000000 1.0
C      1  0.5726100000000  0.4999010000000  0.4400110000000 1.0
C      1  0.4144010000000  0.4959490000000  0.4741400000000 1.0
C      1  0.5202860000000  0.4875540000000  0.5890150000000 1.0
C      1  0.5283970000000  0.3990380000000  0.5105240000000 1.0
C      1  0.4797560000000  0.4033460000000  0.5207810000000 1.0
C      1  0.4963450000000  0.4026380000000  0.4730570000000 1.0
C      1  0.5246860000000  0.4054740000000  0.4839300000000 1.0
C      1  0.4755070000000  0.4076090000000  0.4910410000000 1.0
C      1  0.5058930000000  0.4040210000000  0.5300950000000 1.0
C      1  0.4247200000000  0.5502820000000  0.5105130000000 1.0
C      1  0.5176080000000  0.5378820000000  0.4494280000000 1.0
C      1  0.5416950000000  0.5296630000000  0.5465230000000 1.0
C      1  0.4362090000000  0.5441700000000  0.4793280000000 1.0
C      1  0.5146370000000  0.5347980000000  0.5649750000000 1.0
C      1  0.5506450000000  0.5446830000000  0.4496550000000 1.0
C      1  0.4878480000000  0.4443640000000  0.5871470000000 1.0
C      1  0.4315540000000  0.4443240000000  0.4508250000000 1.0
C      1  0.5856060000000  0.4489080000000  0.4636400000000 1.0
C      1  0.4800020000000  0.4451100000000  0.4141560000000 1.0
C      1  0.4284150000000  0.4467130000000  0.5506240000000 1.0
C      1  0.5944990000000  0.4382250000000  0.5203570000000 1.0
C      1  0.5528010000000  0.4810790000000  0.4734020000000 1.0
C      1  0.4965060000000  0.4751070000000  0.5595220000000 1.0
C      1  0.4597310000000  0.4780320000000  0.4677030000000 1.0
C      1  0.5585990000000  0.4675240000000  0.5349580000000 1.0
C      1  0.5081010000000  0.4729580000000  0.4424360000000 1.0
C      1  0.4472970000000  0.4792540000000  0.5278490000000 1.0
C      1  0.4128300000000  0.5206270000000  0.4867800000000 1.0
C      1  0.5643640000000  0.5243120000000  0.4295110000000 1.0
C      1  0.5322990000000  0.5109220000000  0.5803030000000 1.0
C      1  0.4062270000000  0.5221770000000  0.5162500000000 1.0
C      1  0.5607680000000  0.5135000000000  0.5694880000000 1.0
C      1  0.5324300000000  0.5269980000000  0.4223600000000 1.0
C      1  0.5144110000000  0.4413300000000  0.5772050000000 1.0
C      1  0.4286040000000  0.4475220000000  0.4833500000000 1.0
C      1  0.5555670000000  0.4532530000000  0.4541940000000 1.0
C      1  0.4992270000000  0.4438570000000  0.4331750000000 1.0
C      1  0.4312420000000  0.4512910000000  0.5170470000000 1.0
C      1  0.5699680000000  0.4357520000000  0.5315690000000 1.0
C      1  0.5853660000000  0.4878880000000  0.5298630000000 1.0
C      1  0.4340230000000  0.4968800000000  0.5537270000000 1.0
C      1  0.4768340000000  0.4966440000000  0.4087980000000 1.0
C      1  0.5822030000000  0.4981680000000  0.4726010000000 1.0
C      1  0.4350680000000  0.4940480000000  0.4506370000000 1.0
C      1  0.4883660000000  0.4840360000000  0.5913070000000 1.0
C      1  0.4624600000000  0.5728430000000  0.4482050000000 1.0
C      1  0.5608040000000  0.5752500000000  0.4831320000000 1.0
C      1  0.4685740000000  0.5830120000000  0.5529440000000 1.0
C      1  0.4440260000000  0.5785350000000  0.5384130000000 1.0
C      1  0.5521010000000  0.5713880000000  0.5137210000000 1.0
C      1  0.4929090000000  0.5681910000000  0.4333780000000 1.0
C      1  0.5545230000000  0.4792660000000  0.4333680000000 1.0
C      1  0.5326650000000  0.4630230000000  0.5814660000000 1.0
C      1  0.4117550000000  0.4729960000000  0.4896960000000 1.0
C      1  0.5578030000000  0.4656580000000  0.5688980000000 1.0
C      1  0.5285000000000  0.4873130000000  0.4236560000000 1.0
C      1  0.4044100000000  0.4741600000000  0.5179950000000 1.0
C      1  0.5093320000000  0.4241500000000  0.4526650000000 1.0
C      1  0.5424230000000  0.4199380000000  0.5307580000000 1.0
C      1  0.4567550000000  0.4283660000000  0.5194170000000 1.0
C      1  0.5148480000000  0.4276320000000  0.5497090000000 1.0
C      1  0.5372550000000  0.4331560000000  0.4698590000000 1.0
C      1  0.4575970000000  0.4334660000000  0.4865030000000 1.0
C      1  0.5193030000000  0.5624310000000  0.5139970000000 1.0
C      1  0.4734250000000  0.5836660000000  0.5118870000000 1.0
C      1  0.4985110000000  0.5682010000000  0.4661740000000 1.0
C      1  0.5279860000000  0.5654670000000  0.4823740000000 1.0
C      1  0.4723680000000  0.5829750000000  0.4791210000000 1.0
C      1  0.4969790000000  0.5766090000000  0.5353720000000 1.0
C      1  0.4799360000000  0.4509350000000  0.5145840000000 1.0
C      1  0.5052690000000  0.4566470000000  0.4701680000000 1.0
C      1  0.5316360000000  0.4510550000000  0.5223070000000 1.0
C      1  0.4783380000000  0.4566770000000  0.4814580000000 1.0
C      1  0.5026150000000  0.4548390000000  0.5363220000000 1.0
C      1  0.5289900000000  0.4549090000000  0.4929900000000 1.0
C      1  0.6117200000000  0.5032330000000  0.4887190000000 1.0
C      1  0.4602140000000  0.4971530000000  0.5995890000000 1.0
C      1  0.4270870000000  0.4994490000000  0.4180250000000 1.0
C      1  0.6128560000000  0.5003080000000  0.5141580000000 1.0
C      1  0.4455470000000  0.4996660000000  0.4005590000000 1.0
C      1  0.4389410000000  0.5014530000000  0.5870590000000 1.0
C      1  0.4622740000000  0.4669390000000  0.4163070000000 1.0
C      1  0.5971990000000  0.4638840000000  0.5088710000000 1.0
C      1  0.4419480000000  0.4658200000000  0.5651090000000 1.0
C      1  0.4645230000000  0.4626770000000  0.5798270000000 1.0
C      1  0.5936240000000  0.4675200000000  0.4818950000000 1.0
C      1  0.4414410000000  0.4646180000000  0.4348440000000 1.0
C      1  0.4689460000000  0.5499640000000  0.4866100000000 1.0
C      1  0.5419960000000  0.5343630000000  0.4808850000000 1.0
C      1  0.4936490000000  0.5430410000000  0.5418010000000 1.0
C      1  0.4704040000000  0.5509310000000  0.5205670000000 1.0
C      1  0.5331820000000  0.5313920000000  0.5136000000000 1.0
C      1  0.4973600000000  0.5360940000000  0.4757830000000 1.0
END
