TITL C-3289334-2237-273 0.000644213965693653 125000 -640.972747485095 0 0 118 (C1) n - 1
REM
REM in /nfs/bkarasulu/CARBON/AIRSS/Generating-Clusters/AIREBO/with-SteepDescent/Higher-Symm/SD-CG/HFTN-CG
REM
REM
REM
REM
REM
REM ./C.cell (b20cbc046b6831c77cfcea5457e17084)
REM
REM compiler GCC version 9.2.1 20190827 (Red Hat 9.2.1-1)
REM options -cpp -mtune=generic -march=x86-64 -g -O0 -fpre-include=/usr/include/finclude/math-vector-fortran.h
REM seed 305171725 1519738974 139707941 -581526300 -1485916122 -1672684432 983100972 1518641307 -727089632 -1476248273 -75431786 -1312937218 -1708951974 -1973856957 -1601896456 1588471766 -1135366924 1464468304 -519174853 623723406 25991858 -2065190949 -876151386 520887619 -972076755 -673459248 -1881497368 1403576569 -2099687861 -377886893 -140135800 1412824179 248008519
REM
CELL 1.54180   50.00000   50.00000   50.00000   90.00000   90.00000   90.00000
LATT -1
SFAC C  
C      1  0.4509810000000  0.5616320000000  0.4820510000000 1.0
C      1  0.5568500000000  0.4302220000000  0.4822650000000 1.0
C      1  0.4443800000000  0.5617810000000  0.5213510000000 1.0
C      1  0.5534040000000  0.4290450000000  0.5264170000000 1.0
C      1  0.4729550000000  0.5030070000000  0.4394220000000 1.0
C      1  0.5190400000000  0.4946450000000  0.4520840000000 1.0
C      1  0.4833030000000  0.5009320000000  0.5401890000000 1.0
C      1  0.5202910000000  0.4831640000000  0.5354960000000 1.0
C      1  0.5399700000000  0.5608540000000  0.4430990000000 1.0
C      1  0.4570210000000  0.4404490000000  0.4477240000000 1.0
C      1  0.5419970000000  0.5652610000000  0.5487290000000 1.0
C      1  0.4565190000000  0.4363770000000  0.5537970000000 1.0
C      1  0.5263610000000  0.4685330000000  0.4810290000000 1.0
C      1  0.4743650000000  0.5369490000000  0.4818370000000 1.0
C      1  0.5097620000000  0.4669660000000  0.5088940000000 1.0
C      1  0.4894830000000  0.5341360000000  0.5121790000000 1.0
C      1  0.5516360000000  0.5132940000000  0.5596900000000 1.0
C      1  0.4549980000000  0.4893760000000  0.5550770000000 1.0
C      1  0.5524460000000  0.4950670000000  0.4460080000000 1.0
C      1  0.4426250000000  0.5108430000000  0.4481890000000 1.0
C      1  0.4825140000000  0.4945740000000  0.4831240000000 1.0
C      1  0.5206340000000  0.5130850000000  0.4872680000000 1.0
C      1  0.4911800000000  0.4931950000000  0.5102640000000 1.0
C      1  0.5156760000000  0.5142500000000  0.5208970000000 1.0
C      1  0.4603690000000  0.4535860000000  0.5134050000000 1.0
C      1  0.5390590000000  0.5495370000000  0.5120860000000 1.0
C      1  0.4663950000000  0.4580570000000  0.4822240000000 1.0
C      1  0.5381280000000  0.5478080000000  0.4808470000000 1.0
C      1  0.4016750000000  0.4958120000000  0.4691000000000 1.0
C      1  0.5972410000000  0.5047360000000  0.4786520000000 1.0
C      1  0.4004390000000  0.4994190000000  0.5222110000000 1.0
C      1  0.6016000000000  0.5180740000000  0.5263760000000 1.0
C      1  0.4694420000000  0.4820240000000  0.5850790000000 1.0
C      1  0.5355500000000  0.5104000000000  0.5880450000000 1.0
C      1  0.4670440000000  0.4717650000000  0.4155090000000 1.0
C      1  0.5382070000000  0.5113630000000  0.4197730000000 1.0
C      1  0.5069130000000  0.4149970000000  0.5194900000000 1.0
C      1  0.4823830000000  0.5818880000000  0.5261450000000 1.0
C      1  0.5077570000000  0.4196390000000  0.4797970000000 1.0
C      1  0.4841940000000  0.5869770000000  0.4770560000000 1.0
C      1  0.4121760000000  0.5546740000000  0.5216280000000 1.0
C      1  0.5766920000000  0.4427690000000  0.5221020000000 1.0
C      1  0.4201910000000  0.5533180000000  0.4895750000000 1.0
C      1  0.5820550000000  0.4458930000000  0.4925000000000 1.0
C      1  0.5481080000000  0.4398710000000  0.4539970000000 1.0
C      1  0.4468540000000  0.5610550000000  0.4494140000000 1.0
C      1  0.5384290000000  0.4331670000000  0.5497000000000 1.0
C      1  0.4519650000000  0.5705600000000  0.5487630000000 1.0
C      1  0.4040490000000  0.5244300000000  0.5118600000000 1.0
C      1  0.5934050000000  0.4925340000000  0.5164830000000 1.0
C      1  0.4180170000000  0.5205840000000  0.4836740000000 1.0
C      1  0.5837340000000  0.4766680000000  0.4880040000000 1.0
C      1  0.5150170000000  0.5927330000000  0.5132350000000 1.0
C      1  0.4774600000000  0.4067200000000  0.5122190000000 1.0
C      1  0.5115240000000  0.5922270000000  0.4833820000000 1.0
C      1  0.4742510000000  0.4073360000000  0.4836480000000 1.0
C      1  0.4571510000000  0.5305050000000  0.5171850000000 1.0
C      1  0.5606010000000  0.4896610000000  0.5175040000000 1.0
C      1  0.4489230000000  0.5149710000000  0.4880740000000 1.0
C      1  0.5512470000000  0.4869810000000  0.4865210000000 1.0
C      1  0.4192220000000  0.5339700000000  0.5476070000000 1.0
C      1  0.5818510000000  0.4626070000000  0.5402120000000 1.0
C      1  0.4095550000000  0.5497660000000  0.4581590000000 1.0
C      1  0.5866650000000  0.4497550000000  0.4590220000000 1.0
C      1  0.4220170000000  0.4808110000000  0.4842730000000 1.0
C      1  0.5794370000000  0.5250100000000  0.4850710000000 1.0
C      1  0.4188900000000  0.4803410000000  0.5120080000000 1.0
C      1  0.5781280000000  0.5305180000000  0.5127700000000 1.0
C      1  0.5660500000000  0.4677010000000  0.4462760000000 1.0
C      1  0.4318370000000  0.5358860000000  0.4429330000000 1.0
C      1  0.5574750000000  0.4826060000000  0.5497910000000 1.0
C      1  0.4445730000000  0.5204690000000  0.5460760000000 1.0
C      1  0.5164520000000  0.4644310000000  0.4184080000000 1.0
C      1  0.4798660000000  0.5325520000000  0.4140940000000 1.0
C      1  0.5188690000000  0.4645130000000  0.5856670000000 1.0
C      1  0.4897470000000  0.5260630000000  0.5848070000000 1.0
C      1  0.5172270000000  0.4903540000000  0.5975110000000 1.0
C      1  0.4890360000000  0.5005700000000  0.5966790000000 1.0
C      1  0.5153370000000  0.4907990000000  0.4082470000000 1.0
C      1  0.4844780000000  0.4993910000000  0.4081430000000 1.0
C      1  0.5147210000000  0.5254090000000  0.4557020000000 1.0
C      1  0.4902680000000  0.4832670000000  0.4548800000000 1.0
C      1  0.5184480000000  0.5329630000000  0.5491510000000 1.0
C      1  0.4949910000000  0.4746590000000  0.5554190000000 1.0
C      1  0.5575890000000  0.5449270000000  0.5566110000000 1.0
C      1  0.4377940000000  0.4582720000000  0.5580930000000 1.0
C      1  0.5508960000000  0.5346290000000  0.4410730000000 1.0
C      1  0.4509850000000  0.4695950000000  0.4403080000000 1.0
C      1  0.5299900000000  0.4131110000000  0.4583000000000 1.0
C      1  0.4787240000000  0.5680210000000  0.4540010000000 1.0
C      1  0.5173440000000  0.4153310000000  0.5491470000000 1.0
C      1  0.4802410000000  0.5593010000000  0.5514830000000 1.0
C      1  0.5085060000000  0.5604790000000  0.5222240000000 1.0
C      1  0.4926040000000  0.4433730000000  0.5170180000000 1.0
C      1  0.5044700000000  0.5527010000000  0.4803880000000 1.0
C      1  0.4987970000000  0.4496180000000  0.4747340000000 1.0
C      1  0.4591720000000  0.4229580000000  0.5254420000000 1.0
C      1  0.5429350000000  0.5806960000000  0.5234510000000 1.0
C      1  0.4567360000000  0.4266750000000  0.4733660000000 1.0
C      1  0.5335920000000  0.5793630000000  0.4703580000000 1.0
C      1  0.5087930000000  0.5579850000000  0.4479490000000 1.0
C      1  0.4868890000000  0.4532030000000  0.4449580000000 1.0
C      1  0.5114950000000  0.5649050000000  0.5571800000000 1.0
C      1  0.4825460000000  0.4478260000000  0.5461330000000 1.0
C      1  0.5089780000000  0.5266350000000  0.4237440000000 1.0
C      1  0.4907630000000  0.4508480000000  0.4131880000000 1.0
C      1  0.5171860000000  0.5314080000000  0.5782720000000 1.0
C      1  0.4890200000000  0.4572010000000  0.5839840000000 1.0
C      1  0.5335320000000  0.4622570000000  0.5588130000000 1.0
C      1  0.4749040000000  0.5288580000000  0.5578880000000 1.0
C      1  0.5266090000000  0.4624360000000  0.4475570000000 1.0
C      1  0.4765950000000  0.5346200000000  0.4479770000000 1.0
C      1  0.4522850000000  0.4864380000000  0.4698400000000 1.0
C      1  0.5504500000000  0.5174990000000  0.4715040000000 1.0
C      1  0.4423630000000  0.4728640000000  0.5281530000000 1.0
C      1  0.5487170000000  0.5202480000000  0.5264090000000 1.0
C      1  0.5343990000000  0.4172660000000  0.5007940000000 1.0
C      1  0.4623270000000  0.5836660000000  0.5018300000000 1.0
END
