TITL C-3289320-4661-522 0.000180041469645982 125000 -159.509657950342 0 0 28 (C1) n - 1
REM
REM in /nfs/bkarasulu/CARBON/AIRSS/Generating-Clusters/AIREBO/with-SteepDescent/Higher-Symm/SD-CG/HFTN-CG
REM
REM
REM
REM
REM
REM ./C.cell (b20cbc046b6831c77cfcea5457e17084)
REM
REM compiler GCC version 9.2.1 20190827 (Red Hat 9.2.1-1)
REM options -cpp -mtune=generic -march=x86-64 -g -O0 -fpre-include=/usr/include/finclude/math-vector-fortran.h
REM seed -295768798 -287224231 -817500014 2086082011 -2013350624 -2022222038 -797666966 1641108847 -1239020480 -1158688340 -1291725804 -1005368705 -1571434260 -362103943 -2061921471 -1037809497 -2008895699 -524010568 1633013507 -514657820 -1962130594 -393251328 949088828 35155895 -1715771346 1695794721 -1303340092 1488422616 -1520061303 74175529 1973767264 233429870 -999629817
REM
CELL 1.54180   50.00000   50.00000   50.00000   90.00000   90.00000   90.00000
LATT -1
SFAC C  
C      1  0.4935230000000  0.5578690000000  0.5137900000000 1.0
C      1  0.5395880000000  0.5754550000000  0.5279660000000 1.0
C      1  0.5208030000000  0.5367020000000  0.5502320000000 1.0
C      1  0.4919830000000  0.4410350000000  0.4856160000000 1.0
C      1  0.4653850000000  0.5567180000000  0.4533680000000 1.0
C      1  0.4648500000000  0.4440060000000  0.5480000000000 1.0
C      1  0.5393870000000  0.4251160000000  0.4736890000000 1.0
C      1  0.4743850000000  0.5100620000000  0.4468900000000 1.0
C      1  0.4748750000000  0.4903770000000  0.5556990000000 1.0
C      1  0.5209880000000  0.4642270000000  0.4519680000000 1.0
C      1  0.5101570000000  0.5450320000000  0.4420570000000 1.0
C      1  0.5102960000000  0.4546710000000  0.5573150000000 1.0
C      1  0.5405800000000  0.5557260000000  0.5474920000000 1.0
C      1  0.5190640000000  0.5769740000000  0.5091230000000 1.0
C      1  0.4939280000000  0.5409230000000  0.5347560000000 1.0
C      1  0.5410450000000  0.4455570000000  0.4549570000000 1.0
C      1  0.5045610000000  0.4815980000000  0.5613470000000 1.0
C      1  0.5037500000000  0.5180990000000  0.4388960000000 1.0
C      1  0.5179520000000  0.4227500000000  0.4914140000000 1.0
C      1  0.4562520000000  0.4702270000000  0.5518990000000 1.0
C      1  0.4561630000000  0.5305410000000  0.4507980000000 1.0
C      1  0.4930990000000  0.4585090000000  0.4650130000000 1.0
C      1  0.4922000000000  0.4392720000000  0.5413830000000 1.0
C      1  0.4931260000000  0.5610020000000  0.4586050000000 1.0
C      1  0.4993280000000  0.5115020000000  0.5485350000000 1.0
C      1  0.5012390000000  0.5674620000000  0.4840080000000 1.0
C      1  0.4993340000000  0.4324850000000  0.5158240000000 1.0
C      1  0.4988810000000  0.4888280000000  0.4533600000000 1.0
END
