TITL C-3289324-3781-215 0.0171067312668397 125000 -384.922877364645 0 0 70 (C1) n - 1
REM
REM in /nfs/bkarasulu/CARBON/AIRSS/Generating-Clusters/AIREBO/with-SteepDescent/Higher-Symm/SD-CG/HFTN-CG
REM
REM
REM
REM
REM
REM ./C.cell (b20cbc046b6831c77cfcea5457e17084)
REM
REM compiler GCC version 9.2.1 20190827 (Red Hat 9.2.1-1)
REM options -cpp -mtune=generic -march=x86-64 -g -O0 -fpre-include=/usr/include/finclude/math-vector-fortran.h
REM seed -1496773786 1926528002 -514939607 -1188073338 -213963603 -45790342 1931511213 984345150 1845710981 -717243964 1948222576 -1830809692 -38552497 1322819266 2028921160 367039415 -970951764 2086205689 -1627386390 -897670128 -780780903 -500503315 -1144647261 -621018272 359559109 -200850485 -1399626822 -959632632 -1880678293 808378532 -705439033 -276848798 -2022991399
REM
CELL 1.54180   50.00000   50.00000   50.00000   90.00000   90.00000   90.00000
LATT -1
SFAC C  
C      1  0.4983350000000  0.5263020000000  0.5409360000000 1.0
C      1  0.5240130000000  0.5403900000000  0.4977340000000 1.0
C      1  0.5405580000000  0.4994210000000  0.5257630000000 1.0
C      1  0.5039250000000  0.4756880000000  0.4634140000000 1.0
C      1  0.4971370000000  0.5275860000000  0.4533980000000 1.0
C      1  0.4971100000000  0.4698310000000  0.5413550000000 1.0
C      1  0.5289160000000  0.4531090000000  0.4985420000000 1.0
C      1  0.4710010000000  0.5415410000000  0.4964970000000 1.0
C      1  0.4753670000000  0.4645060000000  0.5039070000000 1.0
C      1  0.5411540000000  0.4991310000000  0.4723690000000 1.0
C      1  0.4653210000000  0.4969240000000  0.4735870000000 1.0
C      1  0.4575460000000  0.4981080000000  0.5288700000000 1.0
C      1  0.5645030000000  0.5182900000000  0.4641020000000 1.0
C      1  0.5177520000000  0.4629900000000  0.5633380000000 1.0
C      1  0.4712810000000  0.5619820000000  0.5240750000000 1.0
C      1  0.5624400000000  0.4728910000000  0.5262850000000 1.0
C      1  0.4350930000000  0.5179720000000  0.5344640000000 1.0
C      1  0.4440240000000  0.4742070000000  0.4654760000000 1.0
C      1  0.5169040000000  0.5359490000000  0.4311480000000 1.0
C      1  0.4818570000000  0.4692870000000  0.4404000000000 1.0
C      1  0.4813790000000  0.5346430000000  0.5650510000000 1.0
C      1  0.4825750000000  0.4387130000000  0.4827180000000 1.0
C      1  0.5334070000000  0.5643760000000  0.4794840000000 1.0
C      1  0.5342250000000  0.4298720000000  0.5163370000000 1.0
C      1  0.5137170000000  0.4268600000000  0.5348390000000 1.0
C      1  0.4327870000000  0.5341830000000  0.5120500000000 1.0
C      1  0.5363610000000  0.5163780000000  0.4277810000000 1.0
C      1  0.5138620000000  0.5706480000000  0.4604860000000 1.0
C      1  0.4935830000000  0.4283990000000  0.4535980000000 1.0
C      1  0.4760040000000  0.5787890000000  0.5496060000000 1.0
C      1  0.4398830000000  0.4567410000000  0.4871720000000 1.0
C      1  0.5694590000000  0.5371550000000  0.4842860000000 1.0
C      1  0.5781850000000  0.4462690000000  0.5205450000000 1.0
C      1  0.5357640000000  0.4839760000000  0.5656490000000 1.0
C      1  0.4626270000000  0.5146020000000  0.5707690000000 1.0
C      1  0.4480700000000  0.5014120000000  0.4273190000000 1.0
C      1  0.4834890000000  0.4433450000000  0.4330120000000 1.0
C      1  0.4535090000000  0.4325400000000  0.4912790000000 1.0
C      1  0.4327960000000  0.4817760000000  0.4404360000000 1.0
C      1  0.4811860000000  0.5621340000000  0.5711500000000 1.0
C      1  0.5203020000000  0.4346350000000  0.5617350000000 1.0
C      1  0.5195380000000  0.5640650000000  0.4333350000000 1.0
C      1  0.4408220000000  0.5599930000000  0.5151300000000 1.0
C      1  0.5616850000000  0.4240680000000  0.5184630000000 1.0
C      1  0.5616150000000  0.5639390000000  0.4788170000000 1.0
C      1  0.4356340000000  0.5204920000000  0.5628610000000 1.0
C      1  0.5612070000000  0.4795920000000  0.5571530000000 1.0
C      1  0.5630680000000  0.5218250000000  0.4360760000000 1.0
C      1  0.4860490000000  0.5541660000000  0.4701570000000 1.0
C      1  0.5503540000000  0.4764670000000  0.4946890000000 1.0
C      1  0.4731570000000  0.4872780000000  0.5540720000000 1.0
C      1  0.4867350000000  0.4419600000000  0.5267500000000 1.0
C      1  0.5024840000000  0.5491660000000  0.5196540000000 1.0
C      1  0.5131710000000  0.4466750000000  0.4745330000000 1.0
C      1  0.5513170000000  0.5261040000000  0.5100360000000 1.0
C      1  0.4449640000000  0.4747180000000  0.5125730000000 1.0
C      1  0.4482410000000  0.5204790000000  0.4865630000000 1.0
C      1  0.4774790000000  0.5029550000000  0.4424080000000 1.0
C      1  0.5262870000000  0.4894830000000  0.4441530000000 1.0
C      1  0.5235800000000  0.5102240000000  0.5508680000000 1.0
C      1  0.4276070000000  0.4974540000000  0.4972820000000 1.0
C      1  0.5027950000000  0.4965600000000  0.4206120000000 1.0
C      1  0.5705060000000  0.5005340000000  0.4993610000000 1.0
C      1  0.4992930000000  0.4992250000000  0.5703530000000 1.0
C      1  0.4981310000000  0.5708520000000  0.4968580000000 1.0
C      1  0.4604070000000  0.4256970000000  0.5179090000000 1.0
C      1  0.5125960000000  0.5160650000000  0.4797810000000 1.0
C      1  0.5159040000000  0.4795790000000  0.5147440000000 1.0
C      1  0.4815780000000  0.5140290000000  0.5139190000000 1.0
C      1  0.4933000000000  0.4908350000000  0.4919610000000 1.0
END
