TITL C-3289331-6719-257 -0.00151753967765021 125000 -933.710289259482 0 0 168 (C1) n - 1
REM
REM in /nfs/bkarasulu/CARBON/AIRSS/Generating-Clusters/AIREBO/with-SteepDescent/Higher-Symm/SD-CG/HFTN-CG
REM
REM
REM
REM
REM
REM ./C.cell (b20cbc046b6831c77cfcea5457e17084)
REM
REM compiler GCC version 9.2.1 20190827 (Red Hat 9.2.1-1)
REM options -cpp -mtune=generic -march=x86-64 -g -O0 -fpre-include=/usr/include/finclude/math-vector-fortran.h
REM seed 1653472397 1560945435 1223584144 1448207913 170097025 -429714735 -699434079 -777675120 1053029618 -483131128 -1415493772 166413921 -1715491725 -53734182 570522108 2101417738 1997356448 264969360 1928257471 595188408 -1948524117 -964528407 -2000753935 1937164305 -79565049 1535466794 1745670824 1578696614 -1490665077 1313314735 1180311700 -1640417894 1224722510
REM
CELL 1.54180   50.00000   50.00000   50.00000   90.00000   90.00000   90.00000
LATT -1
SFAC C  
C      1  0.5003660000000  0.5336910000000  0.4743500000000 1.0
C      1  0.4905710000000  0.5486680000000  0.4991040000000 1.0
C      1  0.4959890000000  0.5298060000000  0.5268690000000 1.0
C      1  0.4965180000000  0.4968200000000  0.5351000000000 1.0
C      1  0.5139150000000  0.4766910000000  0.5148480000000 1.0
C      1  0.4958100000000  0.4578670000000  0.4988980000000 1.0
C      1  0.4951650000000  0.4699990000000  0.4675540000000 1.0
C      1  0.4973760000000  0.5037190000000  0.4714330000000 1.0
C      1  0.5373980000000  0.4719020000000  0.5962650000000 1.0
C      1  0.5188280000000  0.4393020000000  0.5279150000000 1.0
C      1  0.5084740000000  0.4043060000000  0.4905560000000 1.0
C      1  0.5213970000000  0.4516650000000  0.4226110000000 1.0
C      1  0.5324340000000  0.5341990000000  0.4073810000000 1.0
C      1  0.5193780000000  0.5712010000000  0.4708380000000 1.0
C      1  0.5126140000000  0.5736650000000  0.5264110000000 1.0
C      1  0.5226550000000  0.5775230000000  0.5835100000000 1.0
C      1  0.4116370000000  0.5655390000000  0.4836420000000 1.0
C      1  0.4361460000000  0.5407950000000  0.5291110000000 1.0
C      1  0.4247430000000  0.5022470000000  0.5532820000000 1.0
C      1  0.4255900000000  0.4639620000000  0.5425820000000 1.0
C      1  0.4290700000000  0.4541680000000  0.5105630000000 1.0
C      1  0.4350080000000  0.4512700000000  0.4771940000000 1.0
C      1  0.4248550000000  0.4836150000000  0.4395730000000 1.0
C      1  0.4208500000000  0.5293360000000  0.4411120000000 1.0
C      1  0.4423610000000  0.4200140000000  0.5510930000000 1.0
C      1  0.4140500000000  0.4262320000000  0.4867210000000 1.0
C      1  0.4230310000000  0.4540360000000  0.4360270000000 1.0
C      1  0.4321300000000  0.5234250000000  0.4149950000000 1.0
C      1  0.4288610000000  0.5753360000000  0.4609450000000 1.0
C      1  0.4208840000000  0.6068660000000  0.5199370000000 1.0
C      1  0.4183620000000  0.5237350000000  0.5766230000000 1.0
C      1  0.4271110000000  0.4676760000000  0.5741050000000 1.0
C      1  0.4059320000000  0.5383250000000  0.4891100000000 1.0
C      1  0.4117560000000  0.5304960000000  0.5165390000000 1.0
C      1  0.4023220000000  0.5084180000000  0.5314410000000 1.0
C      1  0.4033170000000  0.4793170000000  0.5282430000000 1.0
C      1  0.3948120000000  0.4649280000000  0.5052050000000 1.0
C      1  0.4071670000000  0.4705860000000  0.4800360000000 1.0
C      1  0.4059340000000  0.4919720000000  0.4630690000000 1.0
C      1  0.4054860000000  0.5202660000000  0.4662650000000 1.0
C      1  0.5446320000000  0.4331810000000  0.5109100000000 1.0
C      1  0.5519470000000  0.4336850000000  0.4597170000000 1.0
C      1  0.5631420000000  0.4994260000000  0.4288940000000 1.0
C      1  0.5402200000000  0.5446660000000  0.4404800000000 1.0
C      1  0.5451900000000  0.5659440000000  0.4874830000000 1.0
C      1  0.5619360000000  0.5705360000000  0.5484490000000 1.0
C      1  0.5456100000000  0.5116130000000  0.5649520000000 1.0
C      1  0.5474130000000  0.4639400000000  0.5488250000000 1.0
C      1  0.5639460000000  0.5468950000000  0.4059720000000 1.0
C      1  0.5426070000000  0.6000880000000  0.4559190000000 1.0
C      1  0.5393090000000  0.5887430000000  0.5401070000000 1.0
C      1  0.5569470000000  0.5478330000000  0.6066680000000 1.0
C      1  0.5652690000000  0.4585090000000  0.5990560000000 1.0
C      1  0.5410400000000  0.4097620000000  0.5477770000000 1.0
C      1  0.5307700000000  0.4116230000000  0.4657410000000 1.0
C      1  0.5456610000000  0.4574580000000  0.4012540000000 1.0
C      1  0.5825700000000  0.4552950000000  0.5811340000000 1.0
C      1  0.5692500000000  0.4312900000000  0.5293450000000 1.0
C      1  0.5804180000000  0.4270590000000  0.4710350000000 1.0
C      1  0.5712110000000  0.4754240000000  0.4392540000000 1.0
C      1  0.5791060000000  0.5392890000000  0.4253400000000 1.0
C      1  0.5695860000000  0.5647380000000  0.4725130000000 1.0
C      1  0.5805150000000  0.5663690000000  0.5262900000000 1.0
C      1  0.5534200000000  0.5405400000000  0.5572290000000 1.0
C      1  0.4472550000000  0.5565430000000  0.4521390000000 1.0
C      1  0.4337380000000  0.5823540000000  0.4999870000000 1.0
C      1  0.4417380000000  0.5557540000000  0.5524700000000 1.0
C      1  0.4463950000000  0.4953210000000  0.5785830000000 1.0
C      1  0.4540040000000  0.4500530000000  0.5504160000000 1.0
C      1  0.4437000000000  0.4189490000000  0.4988880000000 1.0
C      1  0.4428450000000  0.4314150000000  0.4507190000000 1.0
C      1  0.4353100000000  0.4950660000000  0.4133430000000 1.0
C      1  0.4629200000000  0.5267390000000  0.5177380000000 1.0
C      1  0.4473680000000  0.5026040000000  0.5314140000000 1.0
C      1  0.4616590000000  0.4775540000000  0.5319360000000 1.0
C      1  0.4627020000000  0.4573860000000  0.5066440000000 1.0
C      1  0.4620800000000  0.4717790000000  0.4752450000000 1.0
C      1  0.4457790000000  0.4943870000000  0.4622480000000 1.0
C      1  0.4450850000000  0.5251550000000  0.4646010000000 1.0
C      1  0.4602230000000  0.5405490000000  0.4876210000000 1.0
C      1  0.5462680000000  0.4778250000000  0.5118680000000 1.0
C      1  0.5496050000000  0.4557480000000  0.4859650000000 1.0
C      1  0.5282310000000  0.4773740000000  0.4706930000000 1.0
C      1  0.5399680000000  0.5032670000000  0.4648850000000 1.0
C      1  0.5295020000000  0.5261210000000  0.4790290000000 1.0
C      1  0.5413110000000  0.5382610000000  0.5036960000000 1.0
C      1  0.5296520000000  0.5244680000000  0.5287430000000 1.0
C      1  0.5390400000000  0.4941760000000  0.5404130000000 1.0
C      1  0.5473190000000  0.3968080000000  0.5272860000000 1.0
C      1  0.5022790000000  0.4179730000000  0.4535580000000 1.0
C      1  0.5463130000000  0.4819480000000  0.3896690000000 1.0
C      1  0.5101260000000  0.5573790000000  0.4184270000000 1.0
C      1  0.5409700000000  0.6050450000000  0.4802920000000 1.0
C      1  0.5164150000000  0.5930680000000  0.5610780000000 1.0
C      1  0.5494570000000  0.5214590000000  0.6106910000000 1.0
C      1  0.5159480000000  0.4481960000000  0.5829930000000 1.0
C      1  0.5027660000000  0.5223800000000  0.3974550000000 1.0
C      1  0.4781690000000  0.6047720000000  0.4449270000000 1.0
C      1  0.4883760000000  0.6150380000000  0.5269350000000 1.0
C      1  0.5008080000000  0.5637720000000  0.5941100000000 1.0
C      1  0.5054860000000  0.4722570000000  0.6026790000000 1.0
C      1  0.4904040000000  0.3970370000000  0.5569630000000 1.0
C      1  0.4899730000000  0.3811630000000  0.4856110000000 1.0
C      1  0.5017560000000  0.4406250000000  0.3969880000000 1.0
C      1  0.4681040000000  0.4266120000000  0.5213020000000 1.0
C      1  0.4512450000000  0.4034030000000  0.4601960000000 1.0
C      1  0.4607280000000  0.4756390000000  0.4069000000000 1.0
C      1  0.4721110000000  0.5400430000000  0.4376400000000 1.0
C      1  0.4619410000000  0.5729720000000  0.4853040000000 1.0
C      1  0.4664390000000  0.5754990000000  0.5499210000000 1.0
C      1  0.4651160000000  0.5236020000000  0.5816370000000 1.0
C      1  0.4778340000000  0.4721320000000  0.5613500000000 1.0
C      1  0.5065080000000  0.4661410000000  0.5447740000000 1.0
C      1  0.4976670000000  0.4265540000000  0.5074190000000 1.0
C      1  0.4986630000000  0.4464900000000  0.4446910000000 1.0
C      1  0.4900020000000  0.4945110000000  0.4437440000000 1.0
C      1  0.4967720000000  0.5567480000000  0.4496960000000 1.0
C      1  0.5002020000000  0.5794080000000  0.4960570000000 1.0
C      1  0.4932300000000  0.5569270000000  0.5453650000000 1.0
C      1  0.4892700000000  0.5104030000000  0.5616680000000 1.0
C      1  0.4817500000000  0.4512930000000  0.4179320000000 1.0
C      1  0.4832200000000  0.5138740000000  0.4235020000000 1.0
C      1  0.4789300000000  0.5824840000000  0.4586410000000 1.0
C      1  0.4853650000000  0.6055620000000  0.5003770000000 1.0
C      1  0.4873340000000  0.5487900000000  0.5763470000000 1.0
C      1  0.4871340000000  0.4909210000000  0.5881470000000 1.0
C      1  0.4821710000000  0.4219040000000  0.5519470000000 1.0
C      1  0.4631270000000  0.3841310000000  0.4855450000000 1.0
C      1  0.4514230000000  0.3991500000000  0.5324510000000 1.0
C      1  0.4261080000000  0.3977150000000  0.4800960000000 1.0
C      1  0.4503190000000  0.4458120000000  0.4206490000000 1.0
C      1  0.4551740000000  0.5390710000000  0.4102620000000 1.0
C      1  0.4397550000000  0.6021310000000  0.4636980000000 1.0
C      1  0.4441590000000  0.5893120000000  0.5315970000000 1.0
C      1  0.4395340000000  0.5415390000000  0.5762310000000 1.0
C      1  0.4577040000000  0.4639380000000  0.5875140000000 1.0
C      1  0.5635070000000  0.5236620000000  0.4512090000000 1.0
C      1  0.5827630000000  0.5349020000000  0.4755080000000 1.0
C      1  0.5730980000000  0.5446410000000  0.5067010000000 1.0
C      1  0.5651450000000  0.5230500000000  0.5317330000000 1.0
C      1  0.5787020000000  0.4629620000000  0.5516830000000 1.0
C      1  0.5727660000000  0.4606010000000  0.5182700000000 1.0
C      1  0.5835800000000  0.4573250000000  0.4862010000000 1.0
C      1  0.5884420000000  0.4767260000000  0.4603920000000 1.0
C      1  0.5521750000000  0.4509870000000  0.4342680000000 1.0
C      1  0.5472720000000  0.5039520000000  0.4068870000000 1.0
C      1  0.5298090000000  0.5761290000000  0.4388530000000 1.0
C      1  0.5370380000000  0.5891730000000  0.5078500000000 1.0
C      1  0.5484020000000  0.5619750000000  0.5812990000000 1.0
C      1  0.5438200000000  0.5021670000000  0.5910010000000 1.0
C      1  0.5317750000000  0.4388730000000  0.5591040000000 1.0
C      1  0.5394830000000  0.4054990000000  0.4975690000000 1.0
C      1  0.4802560000000  0.4972390000000  0.3944510000000 1.0
C      1  0.4825580000000  0.5487960000000  0.4000910000000 1.0
C      1  0.4609260000000  0.6069500000000  0.4846100000000 1.0
C      1  0.4908580000000  0.5978280000000  0.5496950000000 1.0
C      1  0.4765810000000  0.5129690000000  0.6118280000000 1.0
C      1  0.4829140000000  0.4423570000000  0.5769660000000 1.0
C      1  0.4496440000000  0.3811770000000  0.5105850000000 1.0
C      1  0.4815730000000  0.4004460000000  0.4509850000000 1.0
C      1  0.5993970000000  0.4820310000000  0.5387010000000 1.0
C      1  0.6185240000000  0.4671950000000  0.5241390000000 1.0
C      1  0.6157610000000  0.4595280000000  0.4971830000000 1.0
C      1  0.6300950000000  0.4756410000000  0.4780980000000 1.0
C      1  0.6109050000000  0.4939310000000  0.4666030000000 1.0
C      1  0.6056830000000  0.5172220000000  0.4815450000000 1.0
C      1  0.6099490000000  0.5170300000000  0.5094810000000 1.0
C      1  0.5925950000000  0.5070640000000  0.5295670000000 1.0
END
