TITL C-3289331-6719-737 0.0032977345569659 125000 -423.859103979221 0 0 77 (C1) n - 1
REM
REM in /nfs/bkarasulu/CARBON/AIRSS/Generating-Clusters/AIREBO/with-SteepDescent/Higher-Symm/SD-CG/HFTN-CG
REM
REM
REM
REM
REM
REM ./C.cell (b20cbc046b6831c77cfcea5457e17084)
REM
REM compiler GCC version 9.2.1 20190827 (Red Hat 9.2.1-1)
REM options -cpp -mtune=generic -march=x86-64 -g -O0 -fpre-include=/usr/include/finclude/math-vector-fortran.h
REM seed -1888107071 1667170559 1085590 -2093880608 -1294483784 -704844337 1584158134 -1845139574 1292775107 327908846 404650465 -1242984340 -2023943099 1448791573 -27131511 1764979446 -1583166552 1891067319 336242923 -1575355340 1608494677 1058424781 1446220874 1850657214 -986944795 -1860791791 -1155737654 901867505 143408352 1346232530 240922171 1149916274 -1130703580
REM
CELL 1.54180   50.00000   50.00000   50.00000   90.00000   90.00000   90.00000
LATT -1
SFAC C  
C      1  0.5159870000000  0.4808430000000  0.4161010000000 1.0
C      1  0.4975090000000  0.4611800000000  0.4973450000000 1.0
C      1  0.4789550000000  0.5191980000000  0.5858810000000 1.0
C      1  0.5143860000000  0.5316760000000  0.5033760000000 1.0
C      1  0.4928190000000  0.4611950000000  0.5658700000000 1.0
C      1  0.5379970000000  0.4886950000000  0.5800510000000 1.0
C      1  0.5410430000000  0.4510040000000  0.4682710000000 1.0
C      1  0.4923600000000  0.4713360000000  0.4679220000000 1.0
C      1  0.5102090000000  0.5234820000000  0.4420700000000 1.0
C      1  0.4972470000000  0.4335890000000  0.5102890000000 1.0
C      1  0.4725930000000  0.4797190000000  0.5587220000000 1.0
C      1  0.4124430000000  0.4822780000000  0.4392210000000 1.0
C      1  0.4670430000000  0.4816020000000  0.5292660000000 1.0
C      1  0.4492580000000  0.4391880000000  0.5055550000000 1.0
C      1  0.5255350000000  0.4929320000000  0.5245400000000 1.0
C      1  0.5737290000000  0.4707400000000  0.5029540000000 1.0
C      1  0.5443730000000  0.4851220000000  0.5012230000000 1.0
C      1  0.4421080000000  0.5040570000000  0.5237190000000 1.0
C      1  0.4689020000000  0.5093260000000  0.4080770000000 1.0
C      1  0.5608200000000  0.5051550000000  0.5388460000000 1.0
C      1  0.5368900000000  0.4970250000000  0.4731480000000 1.0
C      1  0.5673090000000  0.5317370000000  0.5002670000000 1.0
C      1  0.4956730000000  0.4850730000000  0.5155990000000 1.0
C      1  0.5162820000000  0.4567840000000  0.5493080000000 1.0
C      1  0.4601470000000  0.4714500000000  0.4674430000000 1.0
C      1  0.5467200000000  0.4754840000000  0.4544570000000 1.0
C      1  0.4942770000000  0.4129960000000  0.4858110000000 1.0
C      1  0.4354730000000  0.4899330000000  0.4530810000000 1.0
C      1  0.5338640000000  0.5229090000000  0.5382620000000 1.0
C      1  0.4897410000000  0.5122610000000  0.4977480000000 1.0
C      1  0.5556310000000  0.5603200000000  0.4950520000000 1.0
C      1  0.4453990000000  0.5177690000000  0.5531630000000 1.0
C      1  0.4945390000000  0.4993630000000  0.4282040000000 1.0
C      1  0.5411410000000  0.5235690000000  0.4887990000000 1.0
C      1  0.4905580000000  0.4473360000000  0.5890380000000 1.0
C      1  0.5198280000000  0.4371490000000  0.5294170000000 1.0
C      1  0.4207900000000  0.5116660000000  0.5046400000000 1.0
C      1  0.4157270000000  0.5567960000000  0.5008010000000 1.0
C      1  0.5643820000000  0.4569110000000  0.5492140000000 1.0
C      1  0.4488180000000  0.5463460000000  0.5348430000000 1.0
C      1  0.4971830000000  0.5376880000000  0.4678140000000 1.0
C      1  0.4495190000000  0.5586060000000  0.5040850000000 1.0
C      1  0.5786350000000  0.5131190000000  0.5183260000000 1.0
C      1  0.4541510000000  0.5656280000000  0.4654270000000 1.0
C      1  0.5437960000000  0.4327030000000  0.5151760000000 1.0
C      1  0.4774710000000  0.5595450000000  0.4845140000000 1.0
C      1  0.4948580000000  0.5352180000000  0.5692960000000 1.0
C      1  0.4615650000000  0.4949960000000  0.4352770000000 1.0
C      1  0.5540290000000  0.4471750000000  0.4930900000000 1.0
C      1  0.5407470000000  0.4777540000000  0.4273140000000 1.0
C      1  0.6199710000000  0.4915690000000  0.4995230000000 1.0
C      1  0.4928630000000  0.5707540000000  0.5332340000000 1.0
C      1  0.4615110000000  0.5028420000000  0.5709620000000 1.0
C      1  0.5094300000000  0.5642300000000  0.5119060000000 1.0
C      1  0.4687520000000  0.4261340000000  0.5212870000000 1.0
C      1  0.5767180000000  0.4513350000000  0.5280580000000 1.0
C      1  0.4045860000000  0.5332240000000  0.5111950000000 1.0
C      1  0.4345190000000  0.4782900000000  0.4887310000000 1.0
C      1  0.4631310000000  0.5034840000000  0.4784800000000 1.0
C      1  0.5453380000000  0.5750070000000  0.4470260000000 1.0
C      1  0.4726950000000  0.4183490000000  0.4691170000000 1.0
C      1  0.5377080000000  0.5492890000000  0.5204750000000 1.0
C      1  0.4554650000000  0.4392080000000  0.4772540000000 1.0
C      1  0.5936700000000  0.4924260000000  0.5061380000000 1.0
C      1  0.5409820000000  0.4800220000000  0.5519480000000 1.0
C      1  0.5399730000000  0.5700530000000  0.4740650000000 1.0
C      1  0.5037300000000  0.5027240000000  0.4682290000000 1.0
C      1  0.5106030000000  0.5654380000000  0.4795470000000 1.0
C      1  0.4699780000000  0.5229810000000  0.5220980000000 1.0
C      1  0.5374520000000  0.5613360000000  0.4245070000000 1.0
C      1  0.4316320000000  0.5469620000000  0.4745940000000 1.0
C      1  0.4431090000000  0.4657320000000  0.5127450000000 1.0
C      1  0.4339670000000  0.5163880000000  0.4766670000000 1.0
C      1  0.5209010000000  0.5301660000000  0.5650130000000 1.0
C      1  0.5176060000000  0.5429570000000  0.4195640000000 1.0
C      1  0.4800970000000  0.5456930000000  0.5456910000000 1.0
C      1  0.5131490000000  0.4457830000000  0.4640330000000 1.0
END
