TITL C-3289330-4660-250 -0.000944288053225629 125000 -452.544754659319 0 0 83 (C1) n - 1
REM
REM in /nfs/bkarasulu/CARBON/AIRSS/Generating-Clusters/AIREBO/with-SteepDescent/Higher-Symm/SD-CG/HFTN-CG
REM
REM
REM
REM
REM
REM ./C.cell (b20cbc046b6831c77cfcea5457e17084)
REM
REM compiler GCC version 9.2.1 20190827 (Red Hat 9.2.1-1)
REM options -cpp -mtune=generic -march=x86-64 -g -O0 -fpre-include=/usr/include/finclude/math-vector-fortran.h
REM seed 1986787280 855631674 -1123988975 -796570054 156436445 -1322561261 -1164569351 621718206 201369299 434157481 1845531393 -675975732 -1858588404 -1756132473 1391548467 -937776138 1953197657 -1881257037 -1942079893 132240574 919361467 835404692 -129937945 -825358148 -1902303599 1186838539 -1694925479 -1620031698 729855060 -1814538344 -1807688626 1887328935 -727756639
REM
CELL 1.54180   50.00000   50.00000   50.00000   90.00000   90.00000   90.00000
LATT -1
SFAC C  
C      1  0.5513630000000  0.5203820000000  0.5263400000000 1.0
C      1  0.4450450000000  0.5125110000000  0.4674540000000 1.0
C      1  0.5486190000000  0.4864970000000  0.5250470000000 1.0
C      1  0.4518230000000  0.4797650000000  0.4690100000000 1.0
C      1  0.4707200000000  0.5193450000000  0.5375910000000 1.0
C      1  0.5271460000000  0.5183590000000  0.4643810000000 1.0
C      1  0.4699470000000  0.4874460000000  0.5258440000000 1.0
C      1  0.5246360000000  0.4856520000000  0.4717500000000 1.0
C      1  0.5105170000000  0.4926160000000  0.5787680000000 1.0
C      1  0.4912190000000  0.4888100000000  0.4184830000000 1.0
C      1  0.5103220000000  0.5218340000000  0.5745220000000 1.0
C      1  0.4909970000000  0.5196500000000  0.4229750000000 1.0
C      1  0.5676750000000  0.5667310000000  0.5325080000000 1.0
C      1  0.4417610000000  0.5626770000000  0.4656800000000 1.0
C      1  0.5515120000000  0.4369120000000  0.5332260000000 1.0
C      1  0.4494850000000  0.4321130000000  0.4651770000000 1.0
C      1  0.4494080000000  0.5490270000000  0.5627460000000 1.0
C      1  0.5520070000000  0.5396550000000  0.4414650000000 1.0
C      1  0.4564350000000  0.4601190000000  0.5516760000000 1.0
C      1  0.5404970000000  0.4610330000000  0.4447320000000 1.0
C      1  0.5325160000000  0.5751330000000  0.5029190000000 1.0
C      1  0.4742820000000  0.5739310000000  0.5059830000000 1.0
C      1  0.5269050000000  0.4210440000000  0.5061190000000 1.0
C      1  0.4707550000000  0.4195020000000  0.4965800000000 1.0
C      1  0.5398760000000  0.5489490000000  0.4921050000000 1.0
C      1  0.4614570000000  0.5463880000000  0.5188740000000 1.0
C      1  0.5343800000000  0.4460160000000  0.4944120000000 1.0
C      1  0.4636810000000  0.4461250000000  0.5057250000000 1.0
C      1  0.4762650000000  0.4399220000000  0.4570050000000 1.0
C      1  0.5247750000000  0.4424500000000  0.5427520000000 1.0
C      1  0.4671270000000  0.5577180000000  0.4507370000000 1.0
C      1  0.5576940000000  0.5608680000000  0.5587030000000 1.0
C      1  0.5194760000000  0.4710550000000  0.4990460000000 1.0
C      1  0.4800140000000  0.4708660000000  0.5015200000000 1.0
C      1  0.5203880000000  0.5230330000000  0.4973810000000 1.0
C      1  0.4775130000000  0.5202100000000  0.5042770000000 1.0
C      1  0.5711900000000  0.5489890000000  0.4572900000000 1.0
C      1  0.4315920000000  0.5484110000000  0.5453700000000 1.0
C      1  0.5645280000000  0.4549880000000  0.4592810000000 1.0
C      1  0.4323120000000  0.4554590000000  0.5370650000000 1.0
C      1  0.4658470000000  0.5369030000000  0.4311100000000 1.0
C      1  0.5358530000000  0.5384070000000  0.5584180000000 1.0
C      1  0.4762540000000  0.4690560000000  0.4394060000000 1.0
C      1  0.5258880000000  0.4691130000000  0.5601690000000 1.0
C      1  0.4597020000000  0.4831860000000  0.5738210000000 1.0
C      1  0.5369400000000  0.4812930000000  0.4255640000000 1.0
C      1  0.4575400000000  0.5102290000000  0.5677650000000 1.0
C      1  0.5411160000000  0.5088230000000  0.4348570000000 1.0
C      1  0.4306580000000  0.5373520000000  0.4811410000000 1.0
C      1  0.5711130000000  0.5428670000000  0.5161870000000 1.0
C      1  0.4362930000000  0.4547310000000  0.4780850000000 1.0
C      1  0.5627950000000  0.4605550000000  0.5182530000000 1.0
C      1  0.4293270000000  0.5480330000000  0.5132200000000 1.0
C      1  0.5690160000000  0.5475550000000  0.4854770000000 1.0
C      1  0.4350290000000  0.4519700000000  0.5089800000000 1.0
C      1  0.5626700000000  0.4516920000000  0.4873580000000 1.0
C      1  0.5505720000000  0.4863080000000  0.5699060000000 1.0
C      1  0.4487460000000  0.4882030000000  0.4362170000000 1.0
C      1  0.5532230000000  0.5103290000000  0.5581850000000 1.0
C      1  0.4450960000000  0.5182240000000  0.4356550000000 1.0
C      1  0.4733000000000  0.5263160000000  0.4744930000000 1.0
C      1  0.5228070000000  0.5395130000000  0.5270230000000 1.0
C      1  0.4856080000000  0.4752670000000  0.4710190000000 1.0
C      1  0.5164610000000  0.4790190000000  0.5299700000000 1.0
C      1  0.5504060000000  0.4084800000000  0.5210520000000 1.0
C      1  0.4502770000000  0.4053250000000  0.4796180000000 1.0
C      1  0.5527630000000  0.5866230000000  0.5183400000000 1.0
C      1  0.4435580000000  0.5722190000000  0.4945970000000 1.0
C      1  0.4976660000000  0.5285980000000  0.4538420000000 1.0
C      1  0.4977520000000  0.5347230000000  0.5475120000000 1.0
C      1  0.5127330000000  0.4566630000000  0.4623690000000 1.0
C      1  0.4883940000000  0.4624390000000  0.5396610000000 1.0
C      1  0.5005150000000  0.4383600000000  0.5187580000000 1.0
C      1  0.4965580000000  0.4374200000000  0.4849340000000 1.0
C      1  0.5049410000000  0.5608240000000  0.5074150000000 1.0
C      1  0.4860010000000  0.5572580000000  0.4790490000000 1.0
C      1  0.4881350000000  0.4736290000000  0.5717690000000 1.0
C      1  0.5146930000000  0.4791330000000  0.4084670000000 1.0
C      1  0.4767380000000  0.5365620000000  0.5730980000000 1.0
C      1  0.5206720000000  0.5351970000000  0.4287760000000 1.0
C      1  0.5555460000000  0.4997810000000  0.4707860000000 1.0
C      1  0.4411910000000  0.5055860000000  0.5254590000000 1.0
C      1  0.4995940000000  0.4986380000000  0.4999090000000 1.0
END
