TITL C-3289321-8710-288 0.000602689162280859 125000 -412.462071710069 0 0 76 (C1) n - 1
REM
REM in /nfs/bkarasulu/CARBON/AIRSS/Generating-Clusters/AIREBO/with-SteepDescent/Higher-Symm/SD-CG/HFTN-CG
REM
REM
REM
REM
REM
REM ./C.cell (b20cbc046b6831c77cfcea5457e17084)
REM
REM compiler GCC version 9.2.1 20190827 (Red Hat 9.2.1-1)
REM options -cpp -mtune=generic -march=x86-64 -g -O0 -fpre-include=/usr/include/finclude/math-vector-fortran.h
REM seed 1329116291 1769511965 -2078707757 46550397 250192442 857399495 1825811902 -1341406643 -1571141196 1714947444 -423016861 808699022 1825709087 1071444582 -119940212 1769084219 1274598357 303981470 2044967586 -2141541291 -537037407 1650593269 -1168802333 647351159 -178565469 223314683 1068008528 -1775425402 444143171 -1946633735 619888810 539226649 536842169
REM
CELL 1.54180   50.00000   50.00000   50.00000   90.00000   90.00000   90.00000
LATT -1
SFAC C  
C      1  0.5784510000000  0.5263450000000  0.5182410000000 1.0
C      1  0.4896610000000  0.4518290000000  0.4803240000000 1.0
C      1  0.4557880000000  0.5252130000000  0.5357470000000 1.0
C      1  0.4348110000000  0.4649840000000  0.4504130000000 1.0
C      1  0.5499780000000  0.5221960000000  0.5274390000000 1.0
C      1  0.5365380000000  0.5473680000000  0.5459670000000 1.0
C      1  0.4599360000000  0.4957870000000  0.4867200000000 1.0
C      1  0.5691960000000  0.5693230000000  0.4978180000000 1.0
C      1  0.5445240000000  0.5176070000000  0.5598110000000 1.0
C      1  0.5016690000000  0.4920020000000  0.5524210000000 1.0
C      1  0.4902360000000  0.4661530000000  0.5703170000000 1.0
C      1  0.5265550000000  0.5711020000000  0.5259790000000 1.0
C      1  0.4189920000000  0.4066750000000  0.4921550000000 1.0
C      1  0.4613970000000  0.4618170000000  0.4876620000000 1.0
C      1  0.5055260000000  0.4254210000000  0.5390120000000 1.0
C      1  0.4408350000000  0.5067200000000  0.5118420000000 1.0
C      1  0.5439300000000  0.4680960000000  0.5730680000000 1.0
C      1  0.5680930000000  0.4796590000000  0.4895950000000 1.0
C      1  0.4348510000000  0.5062980000000  0.5513540000000 1.0
C      1  0.4896400000000  0.4868520000000  0.5006460000000 1.0
C      1  0.5759630000000  0.5417080000000  0.4944720000000 1.0
C      1  0.5564690000000  0.4961130000000  0.4690830000000 1.0
C      1  0.4959940000000  0.4425480000000  0.5638580000000 1.0
C      1  0.4570780000000  0.4289100000000  0.5486860000000 1.0
C      1  0.4674920000000  0.5867810000000  0.5633000000000 1.0
C      1  0.5067460000000  0.5772450000000  0.4785440000000 1.0
C      1  0.5201830000000  0.4917160000000  0.4281160000000 1.0
C      1  0.4818100000000  0.5277440000000  0.5163040000000 1.0
C      1  0.5089180000000  0.5683270000000  0.4498250000000 1.0
C      1  0.4439660000000  0.4729910000000  0.5153280000000 1.0
C      1  0.4654140000000  0.4631850000000  0.4134040000000 1.0
C      1  0.4500400000000  0.4916700000000  0.4544470000000 1.0
C      1  0.5286620000000  0.5512810000000  0.4800130000000 1.0
C      1  0.5311940000000  0.5114800000000  0.5009020000000 1.0
C      1  0.4432390000000  0.5217160000000  0.4602810000000 1.0
C      1  0.5071750000000  0.5048650000000  0.4777310000000 1.0
C      1  0.5186310000000  0.5171150000000  0.4481540000000 1.0
C      1  0.4468120000000  0.4403940000000  0.5179160000000 1.0
C      1  0.4738430000000  0.5253800000000  0.4859240000000 1.0
C      1  0.4838320000000  0.4950510000000  0.4550240000000 1.0
C      1  0.5091430000000  0.5422350000000  0.5279650000000 1.0
C      1  0.5090650000000  0.4478870000000  0.4532140000000 1.0
C      1  0.5409310000000  0.4082010000000  0.5126010000000 1.0
C      1  0.4579400000000  0.5380540000000  0.4423690000000 1.0
C      1  0.5962200000000  0.5049430000000  0.5198720000000 1.0
C      1  0.4945240000000  0.5222570000000  0.5662670000000 1.0
C      1  0.5268740000000  0.4051010000000  0.5336580000000 1.0
C      1  0.5522750000000  0.5271380000000  0.4792940000000 1.0
C      1  0.5394950000000  0.4789040000000  0.4530020000000 1.0
C      1  0.4925460000000  0.5093250000000  0.4189950000000 1.0
C      1  0.5097290000000  0.5105730000000  0.5254970000000 1.0
C      1  0.4772250000000  0.5404350000000  0.5537250000000 1.0
C      1  0.5160850000000  0.4723070000000  0.4849880000000 1.0
C      1  0.4343300000000  0.4291720000000  0.4929840000000 1.0
C      1  0.5005510000000  0.4326980000000  0.5034810000000 1.0
C      1  0.5117570000000  0.5422870000000  0.4418690000000 1.0
C      1  0.4315650000000  0.5239070000000  0.4849230000000 1.0
C      1  0.4792500000000  0.4437320000000  0.5275820000000 1.0
C      1  0.5418850000000  0.5722950000000  0.5001980000000 1.0
C      1  0.4868980000000  0.4742920000000  0.5274360000000 1.0
C      1  0.4771090000000  0.4832280000000  0.4258520000000 1.0
C      1  0.4704610000000  0.6049840000000  0.4931270000000 1.0
C      1  0.5097130000000  0.4601730000000  0.4281650000000 1.0
C      1  0.4391660000000  0.4475400000000  0.4712240000000 1.0
C      1  0.4961050000000  0.5796440000000  0.5251580000000 1.0
C      1  0.5189220000000  0.5300480000000  0.5772780000000 1.0
C      1  0.5313390000000  0.4303700000000  0.4932770000000 1.0
C      1  0.4281940000000  0.4837690000000  0.5419010000000 1.0
C      1  0.5381470000000  0.4466560000000  0.4639580000000 1.0
C      1  0.5915080000000  0.4832950000000  0.5036690000000 1.0
C      1  0.5011220000000  0.5379400000000  0.4828020000000 1.0
C      1  0.4771050000000  0.5325370000000  0.4228540000000 1.0
C      1  0.4805240000000  0.5689690000000  0.5474440000000 1.0
C      1  0.5325370000000  0.4894040000000  0.5636640000000 1.0
C      1  0.5456000000000  0.4607760000000  0.4934490000000 1.0
C      1  0.4900930000000  0.5872580000000  0.4984130000000 1.0
END
