TITL C-3289331-6719-89 0.00267307951876676 125000 -595.135323258063 0 0 118 (C1) n - 1
REM
REM in /nfs/bkarasulu/CARBON/AIRSS/Generating-Clusters/AIREBO/with-SteepDescent/Higher-Symm/SD-CG/HFTN-CG
REM
REM
REM
REM
REM
REM ./C.cell (b20cbc046b6831c77cfcea5457e17084)
REM
REM compiler GCC version 9.2.1 20190827 (Red Hat 9.2.1-1)
REM options -cpp -mtune=generic -march=x86-64 -g -O0 -fpre-include=/usr/include/finclude/math-vector-fortran.h
REM seed 1187377364 -628962087 1548757685 1164383680 -641335616 1167148846 690408129 1931766402 -130312252 -2133834226 634230286 -967862894 -327579417 -931361230 -177594219 2016742727 -281903105 -2055874178 1128305761 -1423128429 1346652389 -1051810988 -540899157 1996153092 -330787992 -1955201110 -1827107880 30519105 838240186 667967636 -672067599 786039386 746310903
REM
CELL 1.54180   50.00000   50.00000   50.00000   90.00000   90.00000   90.00000
LATT -1
SFAC C  
C      1  0.4989430000000  0.4440260000000  0.5272580000000 1.0
C      1  0.5201380000000  0.5516740000000  0.5103200000000 1.0
C      1  0.4799790000000  0.4378430000000  0.4762020000000 1.0
C      1  0.5165930000000  0.5590370000000  0.4773080000000 1.0
C      1  0.5270020000000  0.4292710000000  0.5167340000000 1.0
C      1  0.4754660000000  0.5591060000000  0.5233490000000 1.0
C      1  0.5094770000000  0.4387120000000  0.4891650000000 1.0
C      1  0.4856430000000  0.5558810000000  0.4910450000000 1.0
C      1  0.5990730000000  0.5416870000000  0.4680660000000 1.0
C      1  0.4298870000000  0.4573830000000  0.4677640000000 1.0
C      1  0.5816930000000  0.5532380000000  0.5307160000000 1.0
C      1  0.4164670000000  0.4521120000000  0.5288140000000 1.0
C      1  0.4202650000000  0.5500090000000  0.4790850000000 1.0
C      1  0.5735080000000  0.4593760000000  0.4625570000000 1.0
C      1  0.4142160000000  0.5465040000000  0.5270750000000 1.0
C      1  0.5825640000000  0.4564580000000  0.5311560000000 1.0
C      1  0.5592250000000  0.4372950000000  0.5155190000000 1.0
C      1  0.4423280000000  0.5669240000000  0.5221940000000 1.0
C      1  0.5690550000000  0.4402010000000  0.4858820000000 1.0
C      1  0.4361670000000  0.5734090000000  0.4911470000000 1.0
C      1  0.4246700000000  0.4355040000000  0.5088690000000 1.0
C      1  0.5559520000000  0.5668270000000  0.5162660000000 1.0
C      1  0.4468980000000  0.4332470000000  0.4846230000000 1.0
C      1  0.5495940000000  0.5628120000000  0.4846190000000 1.0
C      1  0.5262340000000  0.5835310000000  0.5094620000000 1.0
C      1  0.4873130000000  0.3930980000000  0.4987310000000 1.0
C      1  0.5300850000000  0.5902720000000  0.4764860000000 1.0
C      1  0.4687470000000  0.4082510000000  0.4867880000000 1.0
C      1  0.4926690000000  0.5869580000000  0.5140610000000 1.0
C      1  0.5136330000000  0.4013260000000  0.5028680000000 1.0
C      1  0.4660020000000  0.5825330000000  0.4929410000000 1.0
C      1  0.5307090000000  0.4135160000000  0.4802670000000 1.0
C      1  0.4376290000000  0.4892290000000  0.4319080000000 1.0
C      1  0.5624010000000  0.5130650000000  0.4282690000000 1.0
C      1  0.4280190000000  0.4867600000000  0.5710300000000 1.0
C      1  0.5701360000000  0.5155840000000  0.5710050000000 1.0
C      1  0.5636400000000  0.4880730000000  0.4268610000000 1.0
C      1  0.4365530000000  0.5139700000000  0.4356380000000 1.0
C      1  0.5643760000000  0.4912130000000  0.5716450000000 1.0
C      1  0.4337490000000  0.5113220000000  0.5696590000000 1.0
C      1  0.4844220000000  0.4321740000000  0.4312590000000 1.0
C      1  0.5137150000000  0.5708370000000  0.4184460000000 1.0
C      1  0.4770720000000  0.4366650000000  0.5737490000000 1.0
C      1  0.5160750000000  0.5620920000000  0.5708010000000 1.0
C      1  0.5118800000000  0.4375760000000  0.4317800000000 1.0
C      1  0.4881670000000  0.5648070000000  0.4269880000000 1.0
C      1  0.5063630000000  0.4347600000000  0.5823020000000 1.0
C      1  0.4887340000000  0.5702230000000  0.5772750000000 1.0
C      1  0.4185170000000  0.5125640000000  0.5268980000000 1.0
C      1  0.5866830000000  0.4904700000000  0.5265070000000 1.0
C      1  0.4171090000000  0.5157110000000  0.4776420000000 1.0
C      1  0.5768030000000  0.4871470000000  0.4762310000000 1.0
C      1  0.5847710000000  0.5191510000000  0.5283440000000 1.0
C      1  0.4212120000000  0.4857570000000  0.5275880000000 1.0
C      1  0.5861500000000  0.5119200000000  0.4726320000000 1.0
C      1  0.4153020000000  0.4873460000000  0.4766990000000 1.0
C      1  0.4501720000000  0.4367260000000  0.5711560000000 1.0
C      1  0.5433550000000  0.5648970000000  0.5687950000000 1.0
C      1  0.4570150000000  0.4381320000000  0.4273810000000 1.0
C      1  0.5377340000000  0.5622110000000  0.4279850000000 1.0
C      1  0.5309500000000  0.4426370000000  0.5728640000000 1.0
C      1  0.4643840000000  0.5611260000000  0.5670580000000 1.0
C      1  0.5398470000000  0.4379130000000  0.4294110000000 1.0
C      1  0.4599510000000  0.5644590000000  0.4363950000000 1.0
C      1  0.5642340000000  0.5379350000000  0.4723900000000 1.0
C      1  0.4381300000000  0.4705600000000  0.4952400000000 1.0
C      1  0.5520190000000  0.5277860000000  0.5253420000000 1.0
C      1  0.4516730000000  0.4703370000000  0.5264690000000 1.0
C      1  0.4470660000000  0.5299610000000  0.4851350000000 1.0
C      1  0.5534460000000  0.4705640000000  0.4945660000000 1.0
C      1  0.4444030000000  0.5331430000000  0.5189070000000 1.0
C      1  0.5557350000000  0.4764450000000  0.5250860000000 1.0
C      1  0.5210710000000  0.4687580000000  0.4843340000000 1.0
C      1  0.4888810000000  0.5258320000000  0.4917360000000 1.0
C      1  0.5124500000000  0.4786240000000  0.5157350000000 1.0
C      1  0.4915870000000  0.5151510000000  0.5191050000000 1.0
C      1  0.4768280000000  0.4773280000000  0.4793380000000 1.0
C      1  0.5097490000000  0.5156620000000  0.4725170000000 1.0
C      1  0.4810720000000  0.4669970000000  0.5096800000000 1.0
C      1  0.5185450000000  0.5286880000000  0.5312920000000 1.0
C      1  0.5168900000000  0.4653760000000  0.4507140000000 1.0
C      1  0.4847650000000  0.5337110000000  0.4390470000000 1.0
C      1  0.5171870000000  0.4715830000000  0.5490300000000 1.0
C      1  0.4810080000000  0.5328950000000  0.5443700000000 1.0
C      1  0.4825900000000  0.4600910000000  0.4505950000000 1.0
C      1  0.5164060000000  0.5373960000000  0.4509640000000 1.0
C      1  0.4890960000000  0.4593220000000  0.5559940000000 1.0
C      1  0.5103860000000  0.5347660000000  0.5610590000000 1.0
C      1  0.5237260000000  0.4888430000000  0.5761110000000 1.0
C      1  0.4753150000000  0.5113660000000  0.5700790000000 1.0
C      1  0.5171880000000  0.4877410000000  0.4250880000000 1.0
C      1  0.4831330000000  0.5094180000000  0.4202520000000 1.0
C      1  0.4839090000000  0.4851510000000  0.5762240000000 1.0
C      1  0.5141080000000  0.5136440000000  0.5812350000000 1.0
C      1  0.4775860000000  0.4824960000000  0.4254960000000 1.0
C      1  0.5222210000000  0.5151740000000  0.4258910000000 1.0
C      1  0.4751690000000  0.5176470000000  0.3945180000000 1.0
C      1  0.5285130000000  0.4748680000000  0.4025500000000 1.0
C      1  0.4636150000000  0.5253100000000  0.5918330000000 1.0
C      1  0.5371720000000  0.4749920000000  0.5960140000000 1.0
C      1  0.5341150000000  0.5267240000000  0.4035080000000 1.0
C      1  0.4637070000000  0.4701050000000  0.4044110000000 1.0
C      1  0.5185730000000  0.5237990000000  0.6068250000000 1.0
C      1  0.4734340000000  0.4747650000000  0.6003760000000 1.0
C      1  0.5609430000000  0.5417010000000  0.5550660000000 1.0
C      1  0.4365020000000  0.4600550000000  0.5551150000000 1.0
C      1  0.5498410000000  0.5370050000000  0.4447100000000 1.0
C      1  0.4489540000000  0.4629980000000  0.4452790000000 1.0
C      1  0.4480990000000  0.5349290000000  0.5526830000000 1.0
C      1  0.5497830000000  0.4658790000000  0.5568580000000 1.0
C      1  0.4534440000000  0.5351690000000  0.4521290000000 1.0
C      1  0.5505770000000  0.4639790000000  0.4429780000000 1.0
C      1  0.4661570000000  0.5006700000000  0.5259150000000 1.0
C      1  0.5343050000000  0.4987780000000  0.5262670000000 1.0
C      1  0.4707830000000  0.5070740000000  0.4748090000000 1.0
C      1  0.5302930000000  0.5009400000000  0.4827610000000 1.0
C      1  0.5510720000000  0.5163860000000  0.4933230000000 1.0
C      1  0.4494700000000  0.4989520000000  0.4988810000000 1.0
END
