TITL C-3289331-6719-632 -0.000177007655598325 125000 -349.276219893611 0 0 62 (C1) n - 1
REM
REM in /nfs/bkarasulu/CARBON/AIRSS/Generating-Clusters/AIREBO/with-SteepDescent/Higher-Symm/SD-CG/HFTN-CG
REM
REM
REM
REM
REM
REM ./C.cell (b20cbc046b6831c77cfcea5457e17084)
REM
REM compiler GCC version 9.2.1 20190827 (Red Hat 9.2.1-1)
REM options -cpp -mtune=generic -march=x86-64 -g -O0 -fpre-include=/usr/include/finclude/math-vector-fortran.h
REM seed 663872623 39032367 -1706387059 -916454344 990764510 1769632264 -1789587513 -90530688 -561490961 -1199895350 -827652043 1943298095 -475013697 1790135624 2015375679 -1864996293 1478588925 330531875 -1226154323 -1263905680 -418659876 1265509901 -667883387 1959636462 252924959 -1771136280 478022663 1474017095 -1275736482 942016776 427508522 -1234651428 -1249395923
REM
CELL 1.54180   50.00000   50.00000   50.00000   90.00000   90.00000   90.00000
LATT -1
SFAC C  
C      1  0.4735040000000  0.4545190000000  0.5368410000000 1.0
C      1  0.5287740000000  0.5086770000000  0.5603850000000 1.0
C      1  0.4733700000000  0.5506350000000  0.5178580000000 1.0
C      1  0.5235400000000  0.5450970000000  0.4613860000000 1.0
C      1  0.4700280000000  0.4901020000000  0.4438360000000 1.0
C      1  0.5295150000000  0.4488560000000  0.4804740000000 1.0
C      1  0.4907960000000  0.5016540000000  0.4235780000000 1.0
C      1  0.5101170000000  0.4331190000000  0.4634890000000 1.0
C      1  0.4897690000000  0.4331460000000  0.5425190000000 1.0
C      1  0.5064080000000  0.5006390000000  0.5789770000000 1.0
C      1  0.4939000000000  0.5669300000000  0.5345080000000 1.0
C      1  0.5046360000000  0.5644770000000  0.4569600000000 1.0
C      1  0.5420930000000  0.5412610000000  0.5259330000000 1.0
C      1  0.4601330000000  0.5468960000000  0.4765370000000 1.0
C      1  0.5410250000000  0.5015310000000  0.4433060000000 1.0
C      1  0.4609670000000  0.4575720000000  0.4690010000000 1.0
C      1  0.5394860000000  0.4552450000000  0.5256200000000 1.0
C      1  0.4598400000000  0.5006880000000  0.5561640000000 1.0
C      1  0.4785300000000  0.4867460000000  0.5713550000000 1.0
C      1  0.5223150000000  0.5558730000000  0.5471860000000 1.0
C      1  0.4819540000000  0.5648570000000  0.4778170000000 1.0
C      1  0.5198040000000  0.5147870000000  0.4316670000000 1.0
C      1  0.4821800000000  0.4439120000000  0.4503160000000 1.0
C      1  0.5150000000000  0.4326120000000  0.5244150000000 1.0
C      1  0.4930300000000  0.5217200000000  0.4507570000000 1.0
C      1  0.5096370000000  0.4639810000000  0.4492680000000 1.0
C      1  0.4923330000000  0.4424220000000  0.5037990000000 1.0
C      1  0.5060270000000  0.4762730000000  0.5553460000000 1.0
C      1  0.4943200000000  0.5362380000000  0.5484620000000 1.0
C      1  0.5058840000000  0.5551220000000  0.4957310000000 1.0
C      1  0.4385970000000  0.5366770000000  0.4978510000000 1.0
C      1  0.5608080000000  0.5112330000000  0.4660940000000 1.0
C      1  0.4360480000000  0.4744890000000  0.4705560000000 1.0
C      1  0.5610350000000  0.4773710000000  0.5113830000000 1.0
C      1  0.4422890000000  0.4915570000000  0.5361080000000 1.0
C      1  0.5670630000000  0.5240280000000  0.5204740000000 1.0
C      1  0.5667880000000  0.4977240000000  0.5308610000000 1.0
C      1  0.4324020000000  0.5132770000000  0.5214100000000 1.0
C      1  0.5746960000000  0.5261960000000  0.4933750000000 1.0
C      1  0.4261230000000  0.5272340000000  0.4692520000000 1.0
C      1  0.5635440000000  0.4822310000000  0.4838000000000 1.0
C      1  0.4250870000000  0.4675350000000  0.4955860000000 1.0
C      1  0.4641020000000  0.5273540000000  0.4569930000000 1.0
C      1  0.5374140000000  0.4742820000000  0.4448230000000 1.0
C      1  0.4656560000000  0.4483780000000  0.4982390000000 1.0
C      1  0.5352690000000  0.4683620000000  0.5528920000000 1.0
C      1  0.4661410000000  0.5277280000000  0.5517270000000 1.0
C      1  0.5334590000000  0.5535500000000  0.4991090000000 1.0
C      1  0.4870840000000  0.5272870000000  0.5010290000000 1.0
C      1  0.5110580000000  0.5196210000000  0.4781680000000 1.0
C      1  0.4863140000000  0.4788280000000  0.4691350000000 1.0
C      1  0.5157500000000  0.4671810000000  0.5044140000000 1.0
C      1  0.4917360000000  0.4780190000000  0.5259150000000 1.0
C      1  0.5189090000000  0.5190820000000  0.5326060000000 1.0
C      1  0.4451180000000  0.5429960000000  0.5306290000000 1.0
C      1  0.5527990000000  0.5430480000000  0.4747710000000 1.0
C      1  0.4418090000000  0.5016940000000  0.4554850000000 1.0
C      1  0.5505790000000  0.4626870000000  0.4675490000000 1.0
C      1  0.4464050000000  0.4647270000000  0.5210570000000 1.0
C      1  0.5528120000000  0.4921580000000  0.5557100000000 1.0
C      1  0.5172990000000  0.5019070000000  0.5065380000000 1.0
C      1  0.4868940000000  0.4934430000000  0.4959970000000 1.0
END
