TITL C-3289329-2751-561 0.000537941228113996 125000 -783.429767757898 0 0 146 (C1) n - 1
REM
REM in /nfs/bkarasulu/CARBON/AIRSS/Generating-Clusters/AIREBO/with-SteepDescent/Higher-Symm/SD-CG/HFTN-CG
REM
REM
REM
REM
REM
REM ./C.cell (b20cbc046b6831c77cfcea5457e17084)
REM
REM compiler GCC version 9.2.1 20190827 (Red Hat 9.2.1-1)
REM options -cpp -mtune=generic -march=x86-64 -g -O0 -fpre-include=/usr/include/finclude/math-vector-fortran.h
REM seed 1455244369 -935704728 -1439257108 816126371 1138518207 -895702175 -1840379831 -693578022 -277682686 701846879 -1025614608 -1043643413 -1241256050 38622700 -1782580268 1129313621 -1037813358 -277087306 -1183452101 1633547339 1507452470 1516741942 1128062182 964565977 246446833 -1502921419 -1541316556 -740186618 -1612928997 2137340513 310487000 -1088303857 -1265598384
REM
CELL 1.54180   50.00000   50.00000   50.00000   90.00000   90.00000   90.00000
LATT -1
SFAC C  
C      1  0.4691480000000  0.4961320000000  0.4403590000000 1.0
C      1  0.5290130000000  0.5034590000000  0.5523340000000 1.0
C      1  0.5589730000000  0.5787690000000  0.5327190000000 1.0
C      1  0.4355250000000  0.4252860000000  0.4694710000000 1.0
C      1  0.5665070000000  0.4789260000000  0.5160480000000 1.0
C      1  0.4332600000000  0.5298110000000  0.4835320000000 1.0
C      1  0.4618120000000  0.4629280000000  0.4395100000000 1.0
C      1  0.5388070000000  0.5301770000000  0.5656160000000 1.0
C      1  0.5762600000000  0.5719800000000  0.5042390000000 1.0
C      1  0.4208910000000  0.4286200000000  0.4977280000000 1.0
C      1  0.5699130000000  0.5522050000000  0.4773080000000 1.0
C      1  0.4261530000000  0.4484360000000  0.5248570000000 1.0
C      1  0.4771940000000  0.6026190000000  0.5203430000000 1.0
C      1  0.5279180000000  0.4038200000000  0.4839450000000 1.0
C      1  0.5492720000000  0.5565310000000  0.5486000000000 1.0
C      1  0.4591570000000  0.4401990000000  0.4631640000000 1.0
C      1  0.5027020000000  0.4857660000000  0.5526220000000 1.0
C      1  0.4970810000000  0.5126140000000  0.4445150000000 1.0
C      1  0.5495460000000  0.4868980000000  0.4295350000000 1.0
C      1  0.4515220000000  0.5118710000000  0.5674390000000 1.0
C      1  0.5403850000000  0.4959760000000  0.6130730000000 1.0
C      1  0.4591030000000  0.4931340000000  0.4080120000000 1.0
C      1  0.5059800000000  0.4607670000000  0.4076080000000 1.0
C      1  0.4950040000000  0.5321180000000  0.5920240000000 1.0
C      1  0.4978680000000  0.5101200000000  0.4857020000000 1.0
C      1  0.4916460000000  0.4920410000000  0.5144190000000 1.0
C      1  0.4943190000000  0.5707280000000  0.5597740000000 1.0
C      1  0.5138670000000  0.4241900000000  0.4391600000000 1.0
C      1  0.4387330000000  0.4999670000000  0.4816840000000 1.0
C      1  0.5564000000000  0.5115220000000  0.5167090000000 1.0
C      1  0.3939300000000  0.5011810000000  0.4617210000000 1.0
C      1  0.6082200000000  0.5011460000000  0.5388890000000 1.0
C      1  0.4082850000000  0.5296540000000  0.4522930000000 1.0
C      1  0.5915880000000  0.4751120000000  0.5495040000000 1.0
C      1  0.5247270000000  0.5373270000000  0.5922240000000 1.0
C      1  0.4785720000000  0.4478210000000  0.4140600000000 1.0
C      1  0.4804360000000  0.4267440000000  0.4401050000000 1.0
C      1  0.5236650000000  0.5655300000000  0.5690880000000 1.0
C      1  0.5356460000000  0.4090930000000  0.4549870000000 1.0
C      1  0.4707010000000  0.5898650000000  0.5470690000000 1.0
C      1  0.4616390000000  0.4600220000000  0.5729850000000 1.0
C      1  0.5380520000000  0.5416730000000  0.4245740000000 1.0
C      1  0.4717120000000  0.5228870000000  0.4104830000000 1.0
C      1  0.5283570000000  0.4759370000000  0.5928190000000 1.0
C      1  0.4685180000000  0.4673000000000  0.5174190000000 1.0
C      1  0.5259210000000  0.5279050000000  0.4791760000000 1.0
C      1  0.4527430000000  0.5261050000000  0.4385180000000 1.0
C      1  0.5429610000000  0.4774710000000  0.5638550000000 1.0
C      1  0.5114800000000  0.5680720000000  0.4549100000000 1.0
C      1  0.4849790000000  0.4294880000000  0.5469840000000 1.0
C      1  0.4754340000000  0.5551910000000  0.5786310000000 1.0
C      1  0.5275860000000  0.4439470000000  0.4212920000000 1.0
C      1  0.4581540000000  0.5823610000000  0.4542990000000 1.0
C      1  0.5392540000000  0.4241800000000  0.5391440000000 1.0
C      1  0.5012390000000  0.4058490000000  0.5014860000000 1.0
C      1  0.4927510000000  0.5948530000000  0.4940060000000 1.0
C      1  0.5238250000000  0.5020110000000  0.5190170000000 1.0
C      1  0.4708050000000  0.4930350000000  0.4741800000000 1.0
C      1  0.5152570000000  0.5448260000000  0.4082400000000 1.0
C      1  0.4830680000000  0.4565910000000  0.5904960000000 1.0
C      1  0.5866570000000  0.4622610000000  0.4297880000000 1.0
C      1  0.4164380000000  0.5396740000000  0.5693290000000 1.0
C      1  0.5597770000000  0.4233580000000  0.4508270000000 1.0
C      1  0.4463850000000  0.5758100000000  0.5478670000000 1.0
C      1  0.6016500000000  0.4744470000000  0.4784450000000 1.0
C      1  0.4003620000000  0.5298360000000  0.5213510000000 1.0
C      1  0.4464040000000  0.4164280000000  0.5131130000000 1.0
C      1  0.5521850000000  0.5860240000000  0.4847490000000 1.0
C      1  0.4764340000000  0.5436090000000  0.4837960000000 1.0
C      1  0.5203270000000  0.4552310000000  0.5188070000000 1.0
C      1  0.5277440000000  0.5263150000000  0.4459840000000 1.0
C      1  0.4723300000000  0.4737870000000  0.5505760000000 1.0
C      1  0.5748790000000  0.5365690000000  0.4507600000000 1.0
C      1  0.4225180000000  0.4651500000000  0.5505910000000 1.0
C      1  0.5091910000000  0.4235580000000  0.5255170000000 1.0
C      1  0.4842740000000  0.5754500000000  0.4727340000000 1.0
C      1  0.4525720000000  0.5435700000000  0.4619170000000 1.0
C      1  0.5465200000000  0.4632570000000  0.5361310000000 1.0
C      1  0.4268430000000  0.5410340000000  0.5119570000000 1.0
C      1  0.5753340000000  0.4616180000000  0.4881110000000 1.0
C      1  0.4912610000000  0.4178260000000  0.4711740000000 1.0
C      1  0.5096740000000  0.5804470000000  0.5130940000000 1.0
C      1  0.4031690000000  0.5030870000000  0.5261940000000 1.0
C      1  0.5967560000000  0.5003510000000  0.4712300000000 1.0
C      1  0.5348000000000  0.4765930000000  0.4006730000000 1.0
C      1  0.4613220000000  0.5286020000000  0.5950560000000 1.0
C      1  0.5697500000000  0.4929020000000  0.5625390000000 1.0
C      1  0.4281300000000  0.5060760000000  0.4415750000000 1.0
C      1  0.4499120000000  0.4953740000000  0.5195280000000 1.0
C      1  0.5474620000000  0.5027620000000  0.4788390000000 1.0
C      1  0.4075380000000  0.4780990000000  0.4697350000000 1.0
C      1  0.5918810000000  0.5232370000000  0.5311360000000 1.0
C      1  0.5765250000000  0.5149430000000  0.4895170000000 1.0
C      1  0.4216690000000  0.4870830000000  0.5059320000000 1.0
C      1  0.4852680000000  0.5065400000000  0.5720170000000 1.0
C      1  0.5167890000000  0.4945870000000  0.4245830000000 1.0
C      1  0.5133470000000  0.4409470000000  0.4687390000000 1.0
C      1  0.4921810000000  0.5611440000000  0.5297010000000 1.0
C      1  0.5360340000000  0.5388020000000  0.5094590000000 1.0
C      1  0.4733750000000  0.4526290000000  0.4900270000000 1.0
C      1  0.5012990000000  0.4357570000000  0.5761520000000 1.0
C      1  0.4952530000000  0.5602160000000  0.4259300000000 1.0
C      1  0.5076710000000  0.4553810000000  0.5491270000000 1.0
C      1  0.4915920000000  0.5412480000000  0.4538840000000 1.0
C      1  0.4715210000000  0.5180330000000  0.5057060000000 1.0
C      1  0.5318890000000  0.4780110000000  0.4963120000000 1.0
C      1  0.4710310000000  0.4203960000000  0.4958250000000 1.0
C      1  0.5368950000000  0.5699920000000  0.5096460000000 1.0
C      1  0.5837170000000  0.4518090000000  0.5272130000000 1.0
C      1  0.4162660000000  0.5566370000000  0.4713850000000 1.0
C      1  0.4466320000000  0.5689710000000  0.4316850000000 1.0
C      1  0.5504190000000  0.4346920000000  0.5637800000000 1.0
C      1  0.5922610000000  0.4868740000000  0.4339000000000 1.0
C      1  0.4083660000000  0.5158200000000  0.5649410000000 1.0
C      1  0.4344100000000  0.4550520000000  0.5726210000000 1.0
C      1  0.5649500000000  0.5476860000000  0.4279790000000 1.0
C      1  0.5370070000000  0.5589620000000  0.4708390000000 1.0
C      1  0.4578520000000  0.4396730000000  0.5341320000000 1.0
C      1  0.5025920000000  0.5188340000000  0.4054040000000 1.0
C      1  0.4969860000000  0.4815970000000  0.5919730000000 1.0
C      1  0.4461780000000  0.5693030000000  0.4832150000000 1.0
C      1  0.5558380000000  0.4378390000000  0.5155150000000 1.0
C      1  0.5555150000000  0.4544060000000  0.4376370000000 1.0
C      1  0.4480100000000  0.5451270000000  0.5612210000000 1.0
C      1  0.5077170000000  0.5313110000000  0.5252000000000 1.0
C      1  0.4928330000000  0.4677900000000  0.4682720000000 1.0
C      1  0.5855950000000  0.5409190000000  0.5060760000000 1.0
C      1  0.4099430000000  0.4592740000000  0.4966560000000 1.0
C      1  0.5192990000000  0.4773350000000  0.4537880000000 1.0
C      1  0.4824140000000  0.5249530000000  0.5435520000000 1.0
C      1  0.4292150000000  0.4959470000000  0.5468560000000 1.0
C      1  0.5689840000000  0.5039110000000  0.4519220000000 1.0
C      1  0.4343770000000  0.5694840000000  0.5210890000000 1.0
C      1  0.5749790000000  0.4297580000000  0.4762380000000 1.0
C      1  0.4650340000000  0.5721490000000  0.5114100000000 1.0
C      1  0.5424860000000  0.4345250000000  0.4850650000000 1.0
C      1  0.5379680000000  0.5210490000000  0.6136640000000 1.0
C      1  0.4574740000000  0.4673350000000  0.3992860000000 1.0
C      1  0.4368730000000  0.4782690000000  0.4555640000000 1.0
C      1  0.5651550000000  0.5198790000000  0.5478970000000 1.0
C      1  0.4654790000000  0.5559690000000  0.4153770000000 1.0
C      1  0.5314910000000  0.4440700000000  0.5822370000000 1.0
C      1  0.4212850000000  0.5577560000000  0.4380570000000 1.0
C      1  0.5768210000000  0.4460810000000  0.5600100000000 1.0
C      1  0.4545640000000  0.5359100000000  0.5291490000000 1.0
C      1  0.5467340000000  0.4642050000000  0.4690080000000 1.0
END
