TITL C-3289330-4660-722 0.000778838090744696 125000 -410.778429589928 0 0 80 (C1) n - 1
REM
REM in /nfs/bkarasulu/CARBON/AIRSS/Generating-Clusters/AIREBO/with-SteepDescent/Higher-Symm/SD-CG/HFTN-CG
REM
REM
REM
REM
REM
REM ./C.cell (b20cbc046b6831c77cfcea5457e17084)
REM
REM compiler GCC version 9.2.1 20190827 (Red Hat 9.2.1-1)
REM options -cpp -mtune=generic -march=x86-64 -g -O0 -fpre-include=/usr/include/finclude/math-vector-fortran.h
REM seed 1972520347 -913262089 1210860356 1448119380 729774282 -456159280 -1703826751 -193914200 -289618490 -983700445 -1499297040 -859211211 -1660813236 1980906581 -1427164326 1639088974 -1947275624 -624624911 297085311 288752817 199225903 299017332 810689363 210145030 1618758492 607132114 -1362888301 1226671508 1013082368 -423405230 -1035246146 842460370 -399002231
REM
CELL 1.54180   50.00000   50.00000   50.00000   90.00000   90.00000   90.00000
LATT -1
SFAC C  
C      1  0.5457310000000  0.5126810000000  0.5467590000000 1.0
C      1  0.4829000000000  0.5499530000000  0.5455920000000 1.0
C      1  0.4512110000000  0.4947360000000  0.5423800000000 1.0
C      1  0.5158320000000  0.4564050000000  0.5422150000000 1.0
C      1  0.4823040000000  0.4666220000000  0.4630640000000 1.0
C      1  0.5331200000000  0.4869360000000  0.4608360000000 1.0
C      1  0.5266700000000  0.5311950000000  0.4728210000000 1.0
C      1  0.4712420000000  0.5169960000000  0.4741800000000 1.0
C      1  0.5688720000000  0.4687410000000  0.4492500000000 1.0
C      1  0.5122280000000  0.5619720000000  0.4496080000000 1.0
C      1  0.4387620000000  0.5116910000000  0.4515580000000 1.0
C      1  0.4715220000000  0.4321510000000  0.4402060000000 1.0
C      1  0.5273460000000  0.4943050000000  0.5248390000000 1.0
C      1  0.5068630000000  0.5327410000000  0.5289040000000 1.0
C      1  0.4699700000000  0.5090810000000  0.5206950000000 1.0
C      1  0.4898000000000  0.4657350000000  0.5235460000000 1.0
C      1  0.5669390000000  0.4668060000000  0.5226160000000 1.0
C      1  0.5326840000000  0.5647100000000  0.5109640000000 1.0
C      1  0.4375060000000  0.5431070000000  0.5206090000000 1.0
C      1  0.4667360000000  0.4400940000000  0.5120360000000 1.0
C      1  0.5780500000000  0.5130590000000  0.5416150000000 1.0
C      1  0.4777210000000  0.5800140000000  0.5366470000000 1.0
C      1  0.4212040000000  0.5012860000000  0.5393350000000 1.0
C      1  0.5119630000000  0.4234060000000  0.5376370000000 1.0
C      1  0.5076560000000  0.5757570000000  0.4965580000000 1.0
C      1  0.4209100000000  0.5275990000000  0.4979880000000 1.0
C      1  0.4957100000000  0.4193630000000  0.4839490000000 1.0
C      1  0.5744690000000  0.4878050000000  0.4965330000000 1.0
C      1  0.5309380000000  0.5403950000000  0.5597730000000 1.0
C      1  0.4598180000000  0.5313700000000  0.5596880000000 1.0
C      1  0.4795850000000  0.4502880000000  0.5612670000000 1.0
C      1  0.5436240000000  0.4620870000000  0.5615850000000 1.0
C      1  0.4517790000000  0.4810810000000  0.4589930000000 1.0
C      1  0.5146690000000  0.4587520000000  0.4560640000000 1.0
C      1  0.5503130000000  0.5155250000000  0.4540670000000 1.0
C      1  0.4839490000000  0.5436500000000  0.4572990000000 1.0
C      1  0.5492640000000  0.4684770000000  0.4843960000000 1.0
C      1  0.5501440000000  0.5503050000000  0.4867020000000 1.0
C      1  0.4482580000000  0.5406210000000  0.4825420000000 1.0
C      1  0.4702130000000  0.4405620000000  0.4812840000000 1.0
C      1  0.5383300000000  0.5324200000000  0.5200780000000 1.0
C      1  0.4689620000000  0.5390650000000  0.5178380000000 1.0
C      1  0.4579170000000  0.4710490000000  0.5230040000000 1.0
C      1  0.5340650000000  0.4638230000000  0.5144570000000 1.0
C      1  0.5137720000000  0.5837700000000  0.4665820000000 1.0
C      1  0.4176040000000  0.5211270000000  0.4661430000000 1.0
C      1  0.4959230000000  0.4306190000000  0.4526250000000 1.0
C      1  0.5726350000000  0.4925330000000  0.4629020000000 1.0
C      1  0.4974830000000  0.4747200000000  0.4923980000000 1.0
C      1  0.5214690000000  0.4962910000000  0.4914000000000 1.0
C      1  0.5065090000000  0.5259940000000  0.4967940000000 1.0
C      1  0.4713900000000  0.4956980000000  0.4947370000000 1.0
C      1  0.5180060000000  0.4898380000000  0.4305060000000 1.0
C      1  0.5115030000000  0.5168750000000  0.4459640000000 1.0
C      1  0.4866230000000  0.5044210000000  0.4502500000000 1.0
C      1  0.4878740000000  0.4799110000000  0.4322550000000 1.0
C      1  0.5355440000000  0.5635920000000  0.5448350000000 1.0
C      1  0.4354880000000  0.5375300000000  0.5482980000000 1.0
C      1  0.4646510000000  0.4385330000000  0.5449950000000 1.0
C      1  0.5678460000000  0.4600800000000  0.5490730000000 1.0
C      1  0.4566580000000  0.5318310000000  0.4407450000000 1.0
C      1  0.4522800000000  0.4521530000000  0.4411220000000 1.0
C      1  0.5470040000000  0.4517470000000  0.4482070000000 1.0
C      1  0.5394880000000  0.5443290000000  0.4394360000000 1.0
C      1  0.4789430000000  0.5844450000000  0.5096040000000 1.0
C      1  0.4123470000000  0.5028460000000  0.5133350000000 1.0
C      1  0.5112860000000  0.4111500000000  0.5133020000000 1.0
C      1  0.5867890000000  0.5134900000000  0.5153240000000 1.0
C      1  0.5289800000000  0.4905010000000  0.5663580000000 1.0
C      1  0.5074010000000  0.5151920000000  0.5572810000000 1.0
C      1  0.4781320000000  0.5040480000000  0.5598120000000 1.0
C      1  0.4980760000000  0.4767480000000  0.5629010000000 1.0
C      1  0.5507770000000  0.5121380000000  0.4982120000000 1.0
C      1  0.4860600000000  0.5501710000000  0.4906160000000 1.0
C      1  0.4455480000000  0.4745740000000  0.4914820000000 1.0
C      1  0.5149730000000  0.4455910000000  0.4938120000000 1.0
C      1  0.5340880000000  0.4174920000000  0.4925040000000 1.0
C      1  0.5753840000000  0.5354600000000  0.4956120000000 1.0
C      1  0.4581010000000  0.5699440000000  0.4903230000000 1.0
C      1  0.4156210000000  0.4801990000000  0.4982760000000 1.0
END
