TITL C-3289329-2751-171 0.000365123552904472 125000 -145.811058586393 0 0 27 (C1) n - 1
REM
REM in /nfs/bkarasulu/CARBON/AIRSS/Generating-Clusters/AIREBO/with-SteepDescent/Higher-Symm/SD-CG/HFTN-CG
REM
REM
REM
REM
REM
REM ./C.cell (b20cbc046b6831c77cfcea5457e17084)
REM
REM compiler GCC version 9.2.1 20190827 (Red Hat 9.2.1-1)
REM options -cpp -mtune=generic -march=x86-64 -g -O0 -fpre-include=/usr/include/finclude/math-vector-fortran.h
REM seed 1790164267 1938845592 -1856193522 -1423358161 1131926787 -1238993649 1719657914 -1661448003 -484849792 54696448 516754663 -804917027 -215466138 -742622240 -662281104 -1743084814 1175557442 -1368514718 -268642834 -1346964185 1862213559 1527069098 -389609856 427640812 44257649 -1037267159 1291218181 -1073319306 -1192738394 1053403202 -1949997984 505192497 -1875467133
REM
CELL 1.54180   50.00000   50.00000   50.00000   90.00000   90.00000   90.00000
LATT -1
SFAC C  
C      1  0.4994980000000  0.4455280000000  0.5098670000000 1.0
C      1  0.4489440000000  0.4914950000000  0.4906110000000 1.0
C      1  0.5018270000000  0.5894540000000  0.4911640000000 1.0
C      1  0.5063610000000  0.4876620000000  0.5630170000000 1.0
C      1  0.5260880000000  0.5089810000000  0.4328140000000 1.0
C      1  0.5720040000000  0.4777760000000  0.5323370000000 1.0
C      1  0.5075600000000  0.4782640000000  0.4883800000000 1.0
C      1  0.4576850000000  0.4823130000000  0.5422340000000 1.0
C      1  0.5304340000000  0.4667300000000  0.5107420000000 1.0
C      1  0.4910990000000  0.5156780000000  0.4509660000000 1.0
C      1  0.5306750000000  0.4765040000000  0.5570690000000 1.0
C      1  0.5193720000000  0.5513250000000  0.4679470000000 1.0
C      1  0.5454020000000  0.4736330000000  0.5333440000000 1.0
C      1  0.4951060000000  0.4954950000000  0.5149360000000 1.0
C      1  0.4509340000000  0.4740330000000  0.5136500000000 1.0
C      1  0.4572330000000  0.5185170000000  0.4960910000000 1.0
C      1  0.4852850000000  0.4895500000000  0.5449890000000 1.0
C      1  0.4800810000000  0.4649980000000  0.5140370000000 1.0
C      1  0.4835160000000  0.5221700000000  0.5063870000000 1.0
C      1  0.4607690000000  0.4803560000000  0.4669310000000 1.0
C      1  0.5125120000000  0.4850620000000  0.4369900000000 1.0
C      1  0.5157850000000  0.5322330000000  0.4484770000000 1.0
C      1  0.4980570000000  0.5457600000000  0.5110860000000 1.0
C      1  0.4920560000000  0.4847170000000  0.4630440000000 1.0
C      1  0.5046520000000  0.5524410000000  0.5365010000000 1.0
C      1  0.5064200000000  0.5628770000000  0.4898760000000 1.0
C      1  0.5206460000000  0.4464500000000  0.4865130000000 1.0
END
