TITL C-3289324-3781-735 -0.0203682189921112 125000 -897.643484691063 0 0 163 (C1) n - 1
REM
REM in /nfs/bkarasulu/CARBON/AIRSS/Generating-Clusters/AIREBO/with-SteepDescent/Higher-Symm/SD-CG/HFTN-CG
REM
REM
REM
REM
REM
REM ./C.cell (b20cbc046b6831c77cfcea5457e17084)
REM
REM compiler GCC version 9.2.1 20190827 (Red Hat 9.2.1-1)
REM options -cpp -mtune=generic -march=x86-64 -g -O0 -fpre-include=/usr/include/finclude/math-vector-fortran.h
REM seed -1593653649 1552422442 -682250529 635263053 1395910191 -785711178 -1721495889 1527617434 1074987676 -107183216 1613759770 -1376771413 399595252 1943885004 -1578986248 1818407382 1706075705 -882709190 1269712202 -1726881754 735228930 494727567 913282208 -1151177530 -1959959073 -1475687630 -1772520888 693403491 1679471867 1068994663 1542059550 1955637181 340448570
REM
CELL 1.54180   50.00000   50.00000   50.00000   90.00000   90.00000   90.00000
LATT -1
SFAC C  
C      1  0.4792570000000  0.5639860000000  0.5282870000000 1.0
C      1  0.4699570000000  0.5651170000000  0.4780450000000 1.0
C      1  0.5335040000000  0.5825790000000  0.5781830000000 1.0
C      1  0.5176140000000  0.5561880000000  0.4342650000000 1.0
C      1  0.5649890000000  0.5557590000000  0.4759940000000 1.0
C      1  0.5647040000000  0.5539760000000  0.5251800000000 1.0
C      1  0.5706640000000  0.4676720000000  0.5717050000000 1.0
C      1  0.5758110000000  0.4501980000000  0.4252790000000 1.0
C      1  0.6096450000000  0.4850650000000  0.4723240000000 1.0
C      1  0.6100020000000  0.4971580000000  0.5253890000000 1.0
C      1  0.4632840000000  0.4199410000000  0.5232280000000 1.0
C      1  0.4600150000000  0.4208310000000  0.4694810000000 1.0
C      1  0.5356890000000  0.5703390000000  0.4669520000000 1.0
C      1  0.5341360000000  0.5666870000000  0.5329460000000 1.0
C      1  0.4616170000000  0.5444140000000  0.5680480000000 1.0
C      1  0.4687080000000  0.5387410000000  0.4334650000000 1.0
C      1  0.4012960000000  0.5405810000000  0.5498970000000 1.0
C      1  0.4013190000000  0.5257820000000  0.4626260000000 1.0
C      1  0.4688740000000  0.5328000000000  0.5369160000000 1.0
C      1  0.4517950000000  0.5399060000000  0.4720620000000 1.0
C      1  0.5473980000000  0.4486320000000  0.5458130000000 1.0
C      1  0.5588760000000  0.4606060000000  0.4593670000000 1.0
C      1  0.5038210000000  0.4985850000000  0.6029130000000 1.0
C      1  0.4919050000000  0.4902250000000  0.3985070000000 1.0
C      1  0.5287460000000  0.4852980000000  0.4679490000000 1.0
C      1  0.5239990000000  0.4641670000000  0.5285690000000 1.0
C      1  0.4839770000000  0.5844730000000  0.5520940000000 1.0
C      1  0.4876060000000  0.5771630000000  0.4515640000000 1.0
C      1  0.4837830000000  0.4445920000000  0.5211480000000 1.0
C      1  0.4836600000000  0.4380160000000  0.4592760000000 1.0
C      1  0.5144860000000  0.4108760000000  0.5451080000000 1.0
C      1  0.5258950000000  0.4029370000000  0.4589970000000 1.0
C      1  0.4764690000000  0.4798540000000  0.5939460000000 1.0
C      1  0.4706490000000  0.4739020000000  0.4055930000000 1.0
C      1  0.5013440000000  0.3898090000000  0.4720350000000 1.0
C      1  0.5031310000000  0.3938120000000  0.5213450000000 1.0
C      1  0.4960610000000  0.6092430000000  0.5332110000000 1.0
C      1  0.5052400000000  0.6112880000000  0.4782500000000 1.0
C      1  0.5728170000000  0.4141020000000  0.4686770000000 1.0
C      1  0.5677940000000  0.4162580000000  0.5348360000000 1.0
C      1  0.5080780000000  0.5453920000000  0.5280140000000 1.0
C      1  0.5127770000000  0.5452090000000  0.4670510000000 1.0
C      1  0.5249770000000  0.5199110000000  0.4486100000000 1.0
C      1  0.5227340000000  0.5281360000000  0.5533960000000 1.0
C      1  0.4389880000000  0.6001580000000  0.5290750000000 1.0
C      1  0.4444240000000  0.5967160000000  0.4709300000000 1.0
C      1  0.4471350000000  0.4277510000000  0.4083860000000 1.0
C      1  0.4575920000000  0.4214010000000  0.5537480000000 1.0
C      1  0.5801620000000  0.4451420000000  0.5480160000000 1.0
C      1  0.5851910000000  0.4415550000000  0.4572230000000 1.0
C      1  0.4591010000000  0.5729650000000  0.5650000000000 1.0
C      1  0.4624340000000  0.5653240000000  0.4390150000000 1.0
C      1  0.4288190000000  0.4311660000000  0.4280820000000 1.0
C      1  0.4318040000000  0.4282170000000  0.5591480000000 1.0
C      1  0.4498580000000  0.4668760000000  0.4688690000000 1.0
C      1  0.4440160000000  0.4672380000000  0.5356830000000 1.0
C      1  0.5147650000000  0.4340500000000  0.5219890000000 1.0
C      1  0.5107120000000  0.4285320000000  0.4732800000000 1.0
C      1  0.5612300000000  0.4773190000000  0.5341670000000 1.0
C      1  0.5681950000000  0.4886610000000  0.4522050000000 1.0
C      1  0.5291340000000  0.5592920000000  0.5926970000000 1.0
C      1  0.5095760000000  0.5359370000000  0.4154350000000 1.0
C      1  0.4567720000000  0.4954130000000  0.5296140000000 1.0
C      1  0.4671300000000  0.4962060000000  0.4696100000000 1.0
C      1  0.4569840000000  0.4768830000000  0.4366100000000 1.0
C      1  0.4550690000000  0.4798530000000  0.5658300000000 1.0
C      1  0.4886340000000  0.4514290000000  0.4330850000000 1.0
C      1  0.4854500000000  0.4520220000000  0.5515210000000 1.0
C      1  0.4208790000000  0.5504100000000  0.4653220000000 1.0
C      1  0.4223060000000  0.5571650000000  0.5405240000000 1.0
C      1  0.4936220000000  0.5123590000000  0.4790390000000 1.0
C      1  0.4878180000000  0.4995830000000  0.5257350000000 1.0
C      1  0.5949300000000  0.4727580000000  0.5347690000000 1.0
C      1  0.6048950000000  0.4574640000000  0.4765880000000 1.0
C      1  0.5489980000000  0.4711940000000  0.4221180000000 1.0
C      1  0.5439530000000  0.4887210000000  0.5710360000000 1.0
C      1  0.4194200000000  0.5024950000000  0.4548390000000 1.0
C      1  0.4143240000000  0.5122310000000  0.5524400000000 1.0
C      1  0.5453880000000  0.4044010000000  0.5499110000000 1.0
C      1  0.5523210000000  0.4041370000000  0.4533680000000 1.0
C      1  0.3931900000000  0.4939530000000  0.4733480000000 1.0
C      1  0.3899820000000  0.5151910000000  0.5330240000000 1.0
C      1  0.5468490000000  0.5068330000000  0.5423900000000 1.0
C      1  0.5489560000000  0.5087440000000  0.4632230000000 1.0
C      1  0.5157480000000  0.5904900000000  0.5521000000000 1.0
C      1  0.5099380000000  0.5914830000000  0.4601800000000 1.0
C      1  0.4396550000000  0.5745590000000  0.4538970000000 1.0
C      1  0.4363020000000  0.5803450000000  0.5501070000000 1.0
C      1  0.6021670000000  0.5198460000000  0.5401340000000 1.0
C      1  0.5953810000000  0.4955640000000  0.4500140000000 1.0
C      1  0.5082820000000  0.4455450000000  0.5758690000000 1.0
C      1  0.5171580000000  0.4486590000000  0.4182310000000 1.0
C      1  0.5365290000000  0.4388530000000  0.5702760000000 1.0
C      1  0.5450300000000  0.4403330000000  0.4358410000000 1.0
C      1  0.5730600000000  0.5259270000000  0.5321700000000 1.0
C      1  0.5596920000000  0.5249080000000  0.4845230000000 1.0
C      1  0.4588960000000  0.5115610000000  0.5775800000000 1.0
C      1  0.4595970000000  0.5080190000000  0.4231530000000 1.0
C      1  0.4342100000000  0.4390300000000  0.4572120000000 1.0
C      1  0.4208430000000  0.4486710000000  0.5424870000000 1.0
C      1  0.5221150000000  0.4790340000000  0.4028160000000 1.0
C      1  0.5278040000000  0.5063860000000  0.5922440000000 1.0
C      1  0.4899510000000  0.4849280000000  0.4387700000000 1.0
C      1  0.4886410000000  0.4841470000000  0.5624890000000 1.0
C      1  0.4472790000000  0.5120150000000  0.4530740000000 1.0
C      1  0.4431660000000  0.5143800000000  0.5494380000000 1.0
C      1  0.5423600000000  0.5719140000000  0.4336390000000 1.0
C      1  0.5540530000000  0.5808530000000  0.5565960000000 1.0
C      1  0.4077180000000  0.4413290000000  0.4726660000000 1.0
C      1  0.4036740000000  0.4469960000000  0.5206910000000 1.0
C      1  0.6150440000000  0.5322600000000  0.5606490000000 1.0
C      1  0.6059220000000  0.5117080000000  0.4313540000000 1.0
C      1  0.5213370000000  0.4726310000000  0.4419930000000 1.0
C      1  0.5191560000000  0.4731620000000  0.5592780000000 1.0
C      1  0.4869120000000  0.5179580000000  0.4055120000000 1.0
C      1  0.4737690000000  0.5113840000000  0.6063790000000 1.0
C      1  0.5285200000000  0.5334340000000  0.5830360000000 1.0
C      1  0.5234140000000  0.5077470000000  0.4179470000000 1.0
C      1  0.4753680000000  0.3930980000000  0.5187120000000 1.0
C      1  0.4728350000000  0.3920490000000  0.4727820000000 1.0
C      1  0.4915850000000  0.5165600000000  0.4454800000000 1.0
C      1  0.4946090000000  0.5156100000000  0.5510150000000 1.0
C      1  0.4887380000000  0.4207090000000  0.5650440000000 1.0
C      1  0.4693350000000  0.4438260000000  0.4078990000000 1.0
C      1  0.3949940000000  0.5071330000000  0.5038770000000 1.0
C      1  0.5170650000000  0.3975460000000  0.4976130000000 1.0
C      1  0.4561580000000  0.6087460000000  0.5005320000000 1.0
C      1  0.5363550000000  0.5420050000000  0.4999430000000 1.0
C      1  0.4957890000000  0.4554750000000  0.4846420000000 1.0
C      1  0.5699680000000  0.4734080000000  0.5038400000000 1.0
C      1  0.4102110000000  0.6061230000000  0.4900740000000 1.0
C      1  0.5611850000000  0.6211860000000  0.5086250000000 1.0
C      1  0.4877820000000  0.6053430000000  0.5047440000000 1.0
C      1  0.6035840000000  0.5749380000000  0.5011500000000 1.0
C      1  0.6068420000000  0.5000920000000  0.4959360000000 1.0
C      1  0.5958600000000  0.4251530000000  0.5137930000000 1.0
C      1  0.4151870000000  0.4305060000000  0.4993390000000 1.0
C      1  0.4023850000000  0.4678050000000  0.4933340000000 1.0
C      1  0.4977370000000  0.5754400000000  0.4947150000000 1.0
C      1  0.4746840000000  0.4702910000000  0.5023630000000 1.0
C      1  0.4261830000000  0.5829620000000  0.5035250000000 1.0
C      1  0.5312820000000  0.5756230000000  0.5002570000000 1.0
C      1  0.4636360000000  0.5334180000000  0.5032920000000 1.0
C      1  0.4131480000000  0.5556390000000  0.4946650000000 1.0
C      1  0.3880310000000  0.5387190000000  0.5008260000000 1.0
C      1  0.4593850000000  0.5757490000000  0.5055390000000 1.0
C      1  0.5578160000000  0.5965900000000  0.5021360000000 1.0
C      1  0.4466790000000  0.4302700000000  0.4988860000000 1.0
C      1  0.4959810000000  0.5415060000000  0.4964200000000 1.0
C      1  0.4250320000000  0.4928960000000  0.4970420000000 1.0
C      1  0.5669460000000  0.4152240000000  0.5008390000000 1.0
C      1  0.5480340000000  0.4567180000000  0.4883180000000 1.0
C      1  0.5756350000000  0.5071050000000  0.5040860000000 1.0
C      1  0.4639210000000  0.3795860000000  0.4967370000000 1.0
C      1  0.5355910000000  0.4260510000000  0.4963250000000 1.0
C      1  0.5197820000000  0.4720570000000  0.4965150000000 1.0
C      1  0.5320690000000  0.5131880000000  0.5128810000000 1.0
C      1  0.4347300000000  0.5461440000000  0.5159400000000 1.0
C      1  0.5978600000000  0.4540670000000  0.5065140000000 1.0
C      1  0.5759760000000  0.5701720000000  0.5011250000000 1.0
C      1  0.4419920000000  0.4638200000000  0.5018630000000 1.0
C      1  0.5068380000000  0.5000610000000  0.5038540000000 1.0
C      1  0.4581970000000  0.5001140000000  0.4990950000000 1.0
END
