TITL C-3289333-7213-219 -0.00111650689957703 125000 -657.620332099821 0 0 118 (C1) n - 1
REM
REM in /nfs/bkarasulu/CARBON/AIRSS/Generating-Clusters/AIREBO/with-SteepDescent/Higher-Symm/SD-CG/HFTN-CG
REM
REM
REM
REM
REM
REM ./C.cell (b20cbc046b6831c77cfcea5457e17084)
REM
REM compiler GCC version 9.2.1 20190827 (Red Hat 9.2.1-1)
REM options -cpp -mtune=generic -march=x86-64 -g -O0 -fpre-include=/usr/include/finclude/math-vector-fortran.h
REM seed -352070939 772091826 1726720400 -1813821262 1842042498 -147842622 218578545 2054438674 1677552309 -1746135357 -143878993 1894769565 1699393803 -1249959154 1790671561 626512577 1318709736 -1328696632 1491761316 1171904742 -130326607 1257732021 1954174939 602245508 -1822860696 -742070075 130157442 -1833551803 -336272386 1848343392 -1349866464 1146858657 223970246
REM
CELL 1.54180   50.00000   50.00000   50.00000   90.00000   90.00000   90.00000
LATT -1
SFAC C  
C      1  0.4527440000000  0.4561110000000  0.4457700000000 1.0
C      1  0.5360600000000  0.4479950000000  0.4282580000000 1.0
C      1  0.5808350000000  0.4734690000000  0.5254210000000 1.0
C      1  0.5062350000000  0.4644980000000  0.5814310000000 1.0
C      1  0.4031410000000  0.4730250000000  0.5179750000000 1.0
C      1  0.4938260000000  0.5289080000000  0.4146510000000 1.0
C      1  0.5757680000000  0.5408930000000  0.4672270000000 1.0
C      1  0.5668700000000  0.5235710000000  0.5643970000000 1.0
C      1  0.4482650000000  0.5126110000000  0.5794470000000 1.0
C      1  0.4199330000000  0.5447840000000  0.4789120000000 1.0
C      1  0.4804450000000  0.5590870000000  0.4166010000000 1.0
C      1  0.5581780000000  0.5639430000000  0.4841720000000 1.0
C      1  0.5464150000000  0.5691140000000  0.5737320000000 1.0
C      1  0.4778230000000  0.5945250000000  0.5385780000000 1.0
C      1  0.4318680000000  0.5736850000000  0.4702010000000 1.0
C      1  0.4146720000000  0.4877980000000  0.4831480000000 1.0
C      1  0.4752450000000  0.4816410000000  0.4085940000000 1.0
C      1  0.5718310000000  0.4813040000000  0.4498190000000 1.0
C      1  0.5803400000000  0.4777310000000  0.5734960000000 1.0
C      1  0.4672700000000  0.4709290000000  0.5852780000000 1.0
C      1  0.4591120000000  0.5726800000000  0.5251110000000 1.0
C      1  0.4700490000000  0.5656860000000  0.4405900000000 1.0
C      1  0.5351480000000  0.5747530000000  0.4315570000000 1.0
C      1  0.5640070000000  0.5676360000000  0.5231490000000 1.0
C      1  0.4842840000000  0.5474190000000  0.5905640000000 1.0
C      1  0.5916160000000  0.4857800000000  0.4745950000000 1.0
C      1  0.5398890000000  0.4959310000000  0.5900500000000 1.0
C      1  0.4239210000000  0.4728680000000  0.5600810000000 1.0
C      1  0.4144270000000  0.4784340000000  0.4319470000000 1.0
C      1  0.5230110000000  0.4861100000000  0.4034950000000 1.0
C      1  0.4736880000000  0.5215270000000  0.5950850000000 1.0
C      1  0.4062610000000  0.5319030000000  0.5056740000000 1.0
C      1  0.4616180000000  0.5239390000000  0.4179180000000 1.0
C      1  0.5599730000000  0.5305560000000  0.4457380000000 1.0
C      1  0.5812300000000  0.5191480000000  0.5410820000000 1.0
C      1  0.4692610000000  0.5974450000000  0.5075920000000 1.0
C      1  0.4576870000000  0.5842360000000  0.4604360000000 1.0
C      1  0.5329950000000  0.5927340000000  0.4493710000000 1.0
C      1  0.5450980000000  0.5879660000000  0.5036770000000 1.0
C      1  0.5329920000000  0.5895070000000  0.5603610000000 1.0
C      1  0.4961540000000  0.5076680000000  0.5563760000000 1.0
C      1  0.4427840000000  0.5016250000000  0.5244820000000 1.0
C      1  0.4610290000000  0.4876640000000  0.4554250000000 1.0
C      1  0.5259990000000  0.4977100000000  0.4565300000000 1.0
C      1  0.5411370000000  0.4998440000000  0.5107960000000 1.0
C      1  0.4690250000000  0.5214290000000  0.5226400000000 1.0
C      1  0.4740230000000  0.5128490000000  0.4727360000000 1.0
C      1  0.5075080000000  0.5166510000000  0.4749440000000 1.0
C      1  0.5247400000000  0.5266950000000  0.5025110000000 1.0
C      1  0.5116480000000  0.5370360000000  0.5531370000000 1.0
C      1  0.5229810000000  0.4745950000000  0.5206510000000 1.0
C      1  0.4936510000000  0.4863150000000  0.5299180000000 1.0
C      1  0.4756240000000  0.4663600000000  0.4941300000000 1.0
C      1  0.4896860000000  0.4716430000000  0.4643750000000 1.0
C      1  0.5229670000000  0.4694020000000  0.4721640000000 1.0
C      1  0.5544370000000  0.5034550000000  0.4477420000000 1.0
C      1  0.5704640000000  0.4998760000000  0.5247060000000 1.0
C      1  0.4902140000000  0.4940820000000  0.5869760000000 1.0
C      1  0.4161730000000  0.5030770000000  0.5112900000000 1.0
C      1  0.4587310000000  0.4977100000000  0.4242470000000 1.0
C      1  0.5137140000000  0.4845280000000  0.4325810000000 1.0
C      1  0.5609520000000  0.4946350000000  0.4865570000000 1.0
C      1  0.5250790000000  0.4960420000000  0.5659780000000 1.0
C      1  0.4467650000000  0.4805390000000  0.5420990000000 1.0
C      1  0.4277060000000  0.4944160000000  0.4546480000000 1.0
C      1  0.4958120000000  0.5578970000000  0.5683700000000 1.0
C      1  0.4579320000000  0.5485500000000  0.5123960000000 1.0
C      1  0.4812810000000  0.5452430000000  0.4653320000000 1.0
C      1  0.5336430000000  0.5462540000000  0.4422840000000 1.0
C      1  0.5384350000000  0.5477280000000  0.5255190000000 1.0
C      1  0.5387280000000  0.4613970000000  0.4038540000000 1.0
C      1  0.5839630000000  0.4646280000000  0.4992140000000 1.0
C      1  0.5273340000000  0.4743690000000  0.6058540000000 1.0
C      1  0.4013770000000  0.4667890000000  0.5443930000000 1.0
C      1  0.4260090000000  0.4557390000000  0.4296660000000 1.0
C      1  0.4344050000000  0.4303920000000  0.4892280000000 1.0
C      1  0.4820860000000  0.4291060000000  0.4452090000000 1.0
C      1  0.5589790000000  0.4249820000000  0.4713640000000 1.0
C      1  0.5480450000000  0.4480740000000  0.5509600000000 1.0
C      1  0.4878700000000  0.4250830000000  0.5500870000000 1.0
C      1  0.5273090000000  0.5820210000000  0.4770340000000 1.0
C      1  0.5266500000000  0.5795170000000  0.5295910000000 1.0
C      1  0.5014230000000  0.5838280000000  0.5519890000000 1.0
C      1  0.4766440000000  0.5908700000000  0.4813110000000 1.0
C      1  0.4983130000000  0.5716830000000  0.4787650000000 1.0
C      1  0.5664790000000  0.5015770000000  0.5822680000000 1.0
C      1  0.4422080000000  0.4841220000000  0.5816110000000 1.0
C      1  0.4097210000000  0.5179330000000  0.4684600000000 1.0
C      1  0.4964850000000  0.4988310000000  0.3996530000000 1.0
C      1  0.5846110000000  0.5183240000000  0.4815200000000 1.0
C      1  0.5736480000000  0.4612710000000  0.5506040000000 1.0
C      1  0.4821940000000  0.4494520000000  0.5647770000000 1.0
C      1  0.4153030000000  0.4567900000000  0.4916870000000 1.0
C      1  0.4766200000000  0.4538850000000  0.4218600000000 1.0
C      1  0.5574040000000  0.4509360000000  0.4494560000000 1.0
C      1  0.5079820000000  0.4170920000000  0.4616280000000 1.0
C      1  0.5510290000000  0.4240260000000  0.5010690000000 1.0
C      1  0.5382260000000  0.4248500000000  0.5402760000000 1.0
C      1  0.4694510000000  0.4202200000000  0.5271090000000 1.0
C      1  0.4491650000000  0.4084020000000  0.4832430000000 1.0
C      1  0.4473760000000  0.4582450000000  0.4786580000000 1.0
C      1  0.5052580000000  0.4534880000000  0.4401890000000 1.0
C      1  0.5552000000000  0.4632240000000  0.4810820000000 1.0
C      1  0.5251590000000  0.4678570000000  0.5530790000000 1.0
C      1  0.4718600000000  0.4709540000000  0.5448160000000 1.0
C      1  0.4527190000000  0.5494390000000  0.4833250000000 1.0
C      1  0.5060600000000  0.5325870000000  0.4449380000000 1.0
C      1  0.5369610000000  0.5433690000000  0.4756640000000 1.0
C      1  0.5432000000000  0.5413070000000  0.5588220000000 1.0
C      1  0.4651950000000  0.5199760000000  0.5560750000000 1.0
C      1  0.5269030000000  0.4365010000000  0.4727590000000 1.0
C      1  0.5263010000000  0.4470230000000  0.5050950000000 1.0
C      1  0.5089310000000  0.4239340000000  0.5230240000000 1.0
C      1  0.4848850000000  0.4347440000000  0.5015230000000 1.0
C      1  0.4784030000000  0.4164910000000  0.4762580000000 1.0
C      1  0.5107160000000  0.3953060000000  0.5135400000000 1.0
C      1  0.5006220000000  0.5306220000000  0.5240430000000 1.0
C      1  0.4829540000000  0.4990100000000  0.5011900000000 1.0
END
