TITL C-3289321-8710-85 0.00190735607379261 125000 -934.459096049198 0 0 175 (C1) n - 1
REM
REM in /nfs/bkarasulu/CARBON/AIRSS/Generating-Clusters/AIREBO/with-SteepDescent/Higher-Symm/SD-CG/HFTN-CG
REM
REM
REM
REM
REM
REM ./C.cell (b20cbc046b6831c77cfcea5457e17084)
REM
REM compiler GCC version 9.2.1 20190827 (Red Hat 9.2.1-1)
REM options -cpp -mtune=generic -march=x86-64 -g -O0 -fpre-include=/usr/include/finclude/math-vector-fortran.h
REM seed 72891565 -742786905 1282647414 -98347494 812466635 -301861434 1776114444 -1397205895 -1230710204 -257722763 507709130 1895451379 -196702320 1676712231 1340186738 27976918 45521256 69515799 876840396 -1344412066 -412717968 297651981 1451486787 1617014864 -1436663983 311152653 -127904546 161424345 1909481172 632356662 -1013892316 1792360980 377753466
REM
CELL 1.54180   50.00000   50.00000   50.00000   90.00000   90.00000   90.00000
LATT -1
SFAC C  
C      1  0.5375140000000  0.5246960000000  0.5069570000000 1.0
C      1  0.5300110000000  0.5201580000000  0.4774540000000 1.0
C      1  0.5333590000000  0.4907750000000  0.4694570000000 1.0
C      1  0.5376850000000  0.4707880000000  0.4954770000000 1.0
C      1  0.5358570000000  0.4761470000000  0.5245610000000 1.0
C      1  0.5297940000000  0.5060770000000  0.5308680000000 1.0
C      1  0.4689380000000  0.5276850000000  0.5107170000000 1.0
C      1  0.4697800000000  0.5210260000000  0.4803910000000 1.0
C      1  0.4688200000000  0.4915050000000  0.4755510000000 1.0
C      1  0.4762420000000  0.4668060000000  0.4920700000000 1.0
C      1  0.4686620000000  0.4779150000000  0.5186670000000 1.0
C      1  0.4794770000000  0.5055980000000  0.5260500000000 1.0
C      1  0.3936380000000  0.4802680000000  0.5069010000000 1.0
C      1  0.3876850000000  0.5020740000000  0.5234520000000 1.0
C      1  0.3977170000000  0.5245740000000  0.5103750000000 1.0
C      1  0.3893460000000  0.5274450000000  0.4840720000000 1.0
C      1  0.3976240000000  0.5051050000000  0.4698260000000 1.0
C      1  0.3863990000000  0.4817420000000  0.4800500000000 1.0
C      1  0.6005840000000  0.4802220000000  0.5148850000000 1.0
C      1  0.6061650000000  0.5027320000000  0.5299740000000 1.0
C      1  0.6015450000000  0.5255280000000  0.5150160000000 1.0
C      1  0.5952940000000  0.5245690000000  0.4854670000000 1.0
C      1  0.5976380000000  0.4977600000000  0.4726620000000 1.0
C      1  0.6065530000000  0.4762520000000  0.4879440000000 1.0
C      1  0.4667290000000  0.4281460000000  0.4932520000000 1.0
C      1  0.4731010000000  0.4625200000000  0.5668970000000 1.0
C      1  0.4746670000000  0.5313850000000  0.5689740000000 1.0
C      1  0.4725610000000  0.5833770000000  0.5035020000000 1.0
C      1  0.4751880000000  0.5460270000000  0.4320500000000 1.0
C      1  0.4667810000000  0.4665390000000  0.4368250000000 1.0
C      1  0.5218400000000  0.4141540000000  0.4821680000000 1.0
C      1  0.5330600000000  0.4406340000000  0.5581050000000 1.0
C      1  0.5246960000000  0.5283190000000  0.5884960000000 1.0
C      1  0.5212710000000  0.5826680000000  0.5156060000000 1.0
C      1  0.5182020000000  0.5589390000000  0.4390950000000 1.0
C      1  0.5248570000000  0.4717990000000  0.4305950000000 1.0
C      1  0.4533420000000  0.4544430000000  0.5927220000000 1.0
C      1  0.4486670000000  0.5448230000000  0.5868020000000 1.0
C      1  0.4444310000000  0.5876070000000  0.5118240000000 1.0
C      1  0.4500690000000  0.5332180000000  0.4130480000000 1.0
C      1  0.4512000000000  0.4386180000000  0.4219350000000 1.0
C      1  0.4459180000000  0.4103080000000  0.5137520000000 1.0
C      1  0.5510730000000  0.4757700000000  0.5949200000000 1.0
C      1  0.5465970000000  0.5528830000000  0.5871420000000 1.0
C      1  0.5393700000000  0.5958600000000  0.4900720000000 1.0
C      1  0.5422420000000  0.5479580000000  0.4175220000000 1.0
C      1  0.5470550000000  0.4387700000000  0.4294620000000 1.0
C      1  0.5460530000000  0.4008870000000  0.5013760000000 1.0
C      1  0.4415260000000  0.4508980000000  0.4659290000000 1.0
C      1  0.4338660000000  0.4500360000000  0.5272230000000 1.0
C      1  0.4473410000000  0.4948080000000  0.5479880000000 1.0
C      1  0.4435690000000  0.5498520000000  0.5328630000000 1.0
C      1  0.4443570000000  0.5570870000000  0.4692400000000 1.0
C      1  0.4443890000000  0.5015250000000  0.4365870000000 1.0
C      1  0.5606600000000  0.4463620000000  0.4737200000000 1.0
C      1  0.5698160000000  0.4434170000000  0.5391010000000 1.0
C      1  0.5567420000000  0.5051100000000  0.5603150000000 1.0
C      1  0.5606070000000  0.5549810000000  0.5389790000000 1.0
C      1  0.5418660000000  0.5586430000000  0.4761500000000 1.0
C      1  0.5652820000000  0.5018920000000  0.4325400000000 1.0
C      1  0.5082390000000  0.5563560000000  0.4715060000000 1.0
C      1  0.5194440000000  0.5034790000000  0.4362060000000 1.0
C      1  0.5299640000000  0.4412310000000  0.4697340000000 1.0
C      1  0.5159150000000  0.4429080000000  0.5308820000000 1.0
C      1  0.5279930000000  0.4991940000000  0.5722640000000 1.0
C      1  0.5273990000000  0.5543130000000  0.5316640000000 1.0
C      1  0.4761500000000  0.5576880000000  0.4588010000000 1.0
C      1  0.4780160000000  0.4950310000000  0.4373420000000 1.0
C      1  0.4857960000000  0.4403730000000  0.4737750000000 1.0
C      1  0.4851980000000  0.4504530000000  0.5433650000000 1.0
C      1  0.4955560000000  0.5092420000000  0.5697370000000 1.0
C      1  0.4748090000000  0.5623150000000  0.5277180000000 1.0
C      1  0.3999590000000  0.4477430000000  0.5283040000000 1.0
C      1  0.3987250000000  0.4996170000000  0.5497750000000 1.0
C      1  0.4098590000000  0.5543410000000  0.5329420000000 1.0
C      1  0.3929080000000  0.5531190000000  0.4698980000000 1.0
C      1  0.4110680000000  0.5071800000000  0.4326430000000 1.0
C      1  0.3917540000000  0.4565460000000  0.4650200000000 1.0
C      1  0.6023740000000  0.4469430000000  0.5360860000000 1.0
C      1  0.5906750000000  0.5042700000000  0.5580770000000 1.0
C      1  0.5928600000000  0.5608550000000  0.5299260000000 1.0
C      1  0.6051940000000  0.5500300000000  0.4690640000000 1.0
C      1  0.5987530000000  0.4960080000000  0.4337400000000 1.0
C      1  0.5945150000000  0.4493060000000  0.4759970000000 1.0
C      1  0.5911240000000  0.4707820000000  0.5575800000000 1.0
C      1  0.5991930000000  0.5368690000000  0.5531800000000 1.0
C      1  0.5928530000000  0.5621730000000  0.4983420000000 1.0
C      1  0.5959350000000  0.5271370000000  0.4456770000000 1.0
C      1  0.5872950000000  0.4678340000000  0.4484490000000 1.0
C      1  0.5970830000000  0.4362420000000  0.5072920000000 1.0
C      1  0.4074260000000  0.4708520000000  0.5521050000000 1.0
C      1  0.4136570000000  0.5267720000000  0.5525120000000 1.0
C      1  0.4055240000000  0.5622890000000  0.5001290000000 1.0
C      1  0.4075700000000  0.5352200000000  0.4449800000000 1.0
C      1  0.4070650000000  0.4771110000000  0.4430170000000 1.0
C      1  0.4006270000000  0.4428950000000  0.4946550000000 1.0
C      1  0.5636750000000  0.5039940000000  0.5288230000000 1.0
C      1  0.5685390000000  0.5336020000000  0.5137390000000 1.0
C      1  0.5656790000000  0.5357980000000  0.4798860000000 1.0
C      1  0.5647600000000  0.5039330000000  0.4664940000000 1.0
C      1  0.5667120000000  0.4760560000000  0.4858670000000 1.0
C      1  0.5692210000000  0.4715090000000  0.5199010000000 1.0
C      1  0.4412020000000  0.4979850000000  0.5183200000000 1.0
C      1  0.4293300000000  0.5267220000000  0.5123560000000 1.0
C      1  0.4401120000000  0.5294240000000  0.4831350000000 1.0
C      1  0.4300020000000  0.5041980000000  0.4672800000000 1.0
C      1  0.4392170000000  0.4776920000000  0.4823810000000 1.0
C      1  0.4230120000000  0.4736710000000  0.5084200000000 1.0
C      1  0.5408060000000  0.4033900000000  0.5328860000000 1.0
C      1  0.5475880000000  0.5013570000000  0.6069800000000 1.0
C      1  0.5479410000000  0.5860050000000  0.5448070000000 1.0
C      1  0.5391330000000  0.5871620000000  0.4578290000000 1.0
C      1  0.5505940000000  0.4879860000000  0.4051430000000 1.0
C      1  0.5399240000000  0.4102690000000  0.4467420000000 1.0
C      1  0.4558640000000  0.4141610000000  0.5463280000000 1.0
C      1  0.4621180000000  0.4860950000000  0.6018500000000 1.0
C      1  0.4532540000000  0.5665280000000  0.5609150000000 1.0
C      1  0.4638470000000  0.5877110000000  0.4222040000000 1.0
C      1  0.4561810000000  0.5007600000000  0.4046900000000 1.0
C      1  0.4522380000000  0.4216140000000  0.4523020000000 1.0
C      1  0.5574870000000  0.5673210000000  0.4405300000000 1.0
C      1  0.5558860000000  0.4587040000000  0.4031900000000 1.0
C      1  0.5576460000000  0.4033630000000  0.4684830000000 1.0
C      1  0.5648600000000  0.4133330000000  0.5422370000000 1.0
C      1  0.5630980000000  0.5242140000000  0.5984450000000 1.0
C      1  0.5580690000000  0.5973970000000  0.5187760000000 1.0
C      1  0.4470250000000  0.5673860000000  0.4146790000000 1.0
C      1  0.4440610000000  0.4688670000000  0.4050270000000 1.0
C      1  0.4371360000000  0.4068710000000  0.4795910000000 1.0
C      1  0.4460480000000  0.4331910000000  0.5667840000000 1.0
C      1  0.4472310000000  0.5109650000000  0.5958780000000 1.0
C      1  0.4407070000000  0.5891500000000  0.5388170000000 1.0
C      1  0.4329300000000  0.4632220000000  0.4366630000000 1.0
C      1  0.4338840000000  0.4365860000000  0.4958150000000 1.0
C      1  0.4407910000000  0.4652240000000  0.5566280000000 1.0
C      1  0.4428380000000  0.5206670000000  0.5635840000000 1.0
C      1  0.4298220000000  0.5751260000000  0.4915060000000 1.0
C      1  0.4343620000000  0.5490980000000  0.4386940000000 1.0
C      1  0.5564960000000  0.4701530000000  0.4411560000000 1.0
C      1  0.5716310000000  0.4217760000000  0.4932840000000 1.0
C      1  0.5605810000000  0.4589160000000  0.5669640000000 1.0
C      1  0.5684950000000  0.5362860000000  0.5671080000000 1.0
C      1  0.5656310000000  0.5748770000000  0.4944480000000 1.0
C      1  0.5683320000000  0.5359410000000  0.4331090000000 1.0
C      1  0.4897300000000  0.4109440000000  0.5472020000000 1.0
C      1  0.4916430000000  0.4965390000000  0.6074080000000 1.0
C      1  0.4818100000000  0.5855070000000  0.5590980000000 1.0
C      1  0.4843090000000  0.5948980000000  0.4410970000000 1.0
C      1  0.4895680000000  0.4972950000000  0.3986930000000 1.0
C      1  0.4840460000000  0.4107030000000  0.4470980000000 1.0
C      1  0.5182240000000  0.4103310000000  0.5531710000000 1.0
C      1  0.5170630000000  0.5072970000000  0.6125900000000 1.0
C      1  0.5140460000000  0.5878360000000  0.5484280000000 1.0
C      1  0.5121850000000  0.5903880000000  0.4379420000000 1.0
C      1  0.5168910000000  0.4862480000000  0.4008570000000 1.0
C      1  0.5100700000000  0.4021710000000  0.4542260000000 1.0
C      1  0.4870900000000  0.5203980000000  0.4204210000000 1.0
C      1  0.4848490000000  0.4428500000000  0.4430620000000 1.0
C      1  0.4816100000000  0.4270270000000  0.5191870000000 1.0
C      1  0.4944700000000  0.4788030000000  0.5796680000000 1.0
C      1  0.4909360000000  0.5543050000000  0.5565830000000 1.0
C      1  0.4784170000000  0.5878280000000  0.4707710000000 1.0
C      1  0.5160180000000  0.5308000000000  0.4236200000000 1.0
C      1  0.5156480000000  0.4446560000000  0.4410850000000 1.0
C      1  0.5114900000000  0.4183600000000  0.5106520000000 1.0
C      1  0.5233870000000  0.4660390000000  0.5782710000000 1.0
C      1  0.5207720000000  0.5520420000000  0.5649380000000 1.0
C      1  0.5021870000000  0.5816630000000  0.4932980000000 1.0
C      1  0.5020430000000  0.4729120000000  0.5228810000000 1.0
C      1  0.5016240000000  0.5273870000000  0.4880490000000 1.0
C      1  0.5037830000000  0.5132640000000  0.5411260000000 1.0
C      1  0.4992240000000  0.5398040000000  0.5203670000000 1.0
C      1  0.5002410000000  0.4954500000000  0.4630990000000 1.0
C      1  0.5089180000000  0.4631180000000  0.4848030000000 1.0
C      1  0.5044980000000  0.4946530000000  0.4968400000000 1.0
END
