TITL C-3289329-2751-49 -0.000884788202079945 125000 -592.617492963261 0 0 114 (C1) n - 1
REM
REM in /nfs/bkarasulu/CARBON/AIRSS/Generating-Clusters/AIREBO/with-SteepDescent/Higher-Symm/SD-CG/HFTN-CG
REM
REM
REM
REM
REM
REM ./C.cell (b20cbc046b6831c77cfcea5457e17084)
REM
REM compiler GCC version 9.2.1 20190827 (Red Hat 9.2.1-1)
REM options -cpp -mtune=generic -march=x86-64 -g -O0 -fpre-include=/usr/include/finclude/math-vector-fortran.h
REM seed 1589602106 -1042342047 -167281456 -1469709041 -1839422141 1441927508 961568166 204888858 -568076037 -131996293 1363356433 1670994358 -1449486501 -1952804327 -1891652467 1804341734 -373679578 -1614890711 -1051251617 898792682 -563756980 -155131557 504542107 -1975055561 1668644666 4434628 801149420 877032252 -1375638706 1345494888 2137635641 2032292720 1728749159
REM
CELL 1.54180   50.00000   50.00000   50.00000   90.00000   90.00000   90.00000
LATT -1
SFAC C  
C      1  0.4838770000000  0.4837220000000  0.5548090000000 1.0
C      1  0.4812490000000  0.5132630000000  0.4041510000000 1.0
C      1  0.5622120000000  0.4381120000000  0.4466250000000 1.0
C      1  0.4908290000000  0.4960110000000  0.5930390000000 1.0
C      1  0.5472220000000  0.4520950000000  0.5053660000000 1.0
C      1  0.4130640000000  0.4735790000000  0.5055650000000 1.0
C      1  0.5706340000000  0.4948610000000  0.4900310000000 1.0
C      1  0.4797070000000  0.5802090000000  0.5227100000000 1.0
C      1  0.4882530000000  0.4210500000000  0.5029720000000 1.0
C      1  0.5667360000000  0.5281040000000  0.5733250000000 1.0
C      1  0.4473620000000  0.5610020000000  0.4636770000000 1.0
C      1  0.4733140000000  0.6011380000000  0.5061370000000 1.0
C      1  0.5922030000000  0.4731110000000  0.5491140000000 1.0
C      1  0.4890460000000  0.4756960000000  0.4891450000000 1.0
C      1  0.5224740000000  0.5721010000000  0.5638230000000 1.0
C      1  0.5407450000000  0.5598680000000  0.4895710000000 1.0
C      1  0.5157830000000  0.5506190000000  0.4679790000000 1.0
C      1  0.5392530000000  0.4131360000000  0.5469500000000 1.0
C      1  0.4876800000000  0.6048290000000  0.4818550000000 1.0
C      1  0.4584090000000  0.5085290000000  0.4694320000000 1.0
C      1  0.5411360000000  0.4416100000000  0.5600680000000 1.0
C      1  0.4352690000000  0.5334150000000  0.4681460000000 1.0
C      1  0.5586810000000  0.4209680000000  0.5012780000000 1.0
C      1  0.5203010000000  0.4318400000000  0.4993820000000 1.0
C      1  0.5156590000000  0.5987380000000  0.4836380000000 1.0
C      1  0.4895420000000  0.5350220000000  0.4422880000000 1.0
C      1  0.4775690000000  0.4456110000000  0.4883950000000 1.0
C      1  0.4613510000000  0.4779950000000  0.5087680000000 1.0
C      1  0.5196900000000  0.5405590000000  0.4357370000000 1.0
C      1  0.4076910000000  0.4823700000000  0.4763570000000 1.0
C      1  0.5193860000000  0.5024710000000  0.5792750000000 1.0
C      1  0.5034090000000  0.4703130000000  0.4229500000000 1.0
C      1  0.5465260000000  0.4634910000000  0.5345440000000 1.0
C      1  0.4703340000000  0.5020750000000  0.5310320000000 1.0
C      1  0.6177830000000  0.4716010000000  0.5568600000000 1.0
C      1  0.4847180000000  0.4085630000000  0.4620450000000 1.0
C      1  0.5168830000000  0.4176320000000  0.4686740000000 1.0
C      1  0.4483570000000  0.4631660000000  0.4580330000000 1.0
C      1  0.4766810000000  0.5312970000000  0.5395320000000 1.0
C      1  0.4691740000000  0.4457540000000  0.5575090000000 1.0
C      1  0.5274510000000  0.5832710000000  0.5104090000000 1.0
C      1  0.5455150000000  0.5312520000000  0.5396550000000 1.0
C      1  0.4791310000000  0.4705640000000  0.4457500000000 1.0
C      1  0.5811480000000  0.4938670000000  0.5322170000000 1.0
C      1  0.4501990000000  0.5492980000000  0.5483000000000 1.0
C      1  0.5371270000000  0.4109160000000  0.5202470000000 1.0
C      1  0.4747970000000  0.5911750000000  0.4560030000000 1.0
C      1  0.5118730000000  0.5172470000000  0.4732490000000 1.0
C      1  0.4357820000000  0.4930930000000  0.5573730000000 1.0
C      1  0.4277080000000  0.5510780000000  0.5226210000000 1.0
C      1  0.5274870000000  0.5716980000000  0.4359170000000 1.0
C      1  0.5201360000000  0.4448090000000  0.4216560000000 1.0
C      1  0.4594590000000  0.5023490000000  0.5694100000000 1.0
C      1  0.5316700000000  0.4867960000000  0.4278580000000 1.0
C      1  0.4769080000000  0.5665880000000  0.4791100000000 1.0
C      1  0.4721750000000  0.5237160000000  0.5856680000000 1.0
C      1  0.5293380000000  0.5088640000000  0.4020140000000 1.0
C      1  0.4423620000000  0.4853810000000  0.4815410000000 1.0
C      1  0.4544140000000  0.4745170000000  0.4204000000000 1.0
C      1  0.4946560000000  0.4317230000000  0.5725540000000 1.0
C      1  0.4694950000000  0.5613150000000  0.4402320000000 1.0
C      1  0.4180110000000  0.5593680000000  0.5514580000000 1.0
C      1  0.5228320000000  0.5839990000000  0.4614110000000 1.0
C      1  0.5348380000000  0.5266050000000  0.4934250000000 1.0
C      1  0.4259370000000  0.5050300000000  0.5039060000000 1.0
C      1  0.5061630000000  0.5196010000000  0.3924470000000 1.0
C      1  0.5436000000000  0.4738910000000  0.4795150000000 1.0
C      1  0.5402570000000  0.5487180000000  0.5678440000000 1.0
C      1  0.5176980000000  0.4458350000000  0.5782260000000 1.0
C      1  0.5084250000000  0.4571300000000  0.5187760000000 1.0
C      1  0.5301450000000  0.5265750000000  0.5889070000000 1.0
C      1  0.4294820000000  0.4497860000000  0.5076710000000 1.0
C      1  0.4872460000000  0.4961060000000  0.4631030000000 1.0
C      1  0.5509860000000  0.4700940000000  0.4493260000000 1.0
C      1  0.5076720000000  0.4907020000000  0.5133250000000 1.0
C      1  0.4762760000000  0.5343790000000  0.4733830000000 1.0
C      1  0.4888330000000  0.5146380000000  0.4981240000000 1.0
C      1  0.5064900000000  0.5832740000000  0.5373170000000 1.0
C      1  0.5056860000000  0.3855650000000  0.4671410000000 1.0
C      1  0.5058860000000  0.5262190000000  0.5401590000000 1.0
C      1  0.4370080000000  0.5184240000000  0.4376640000000 1.0
C      1  0.4464230000000  0.4378480000000  0.4806740000000 1.0
C      1  0.5645900000000  0.5249520000000  0.4467360000000 1.0
C      1  0.4623060000000  0.5329800000000  0.4222700000000 1.0
C      1  0.5504040000000  0.4524820000000  0.4195000000000 1.0
C      1  0.4709270000000  0.5499170000000  0.5141980000000 1.0
C      1  0.5149610000000  0.4589400000000  0.4795410000000 1.0
C      1  0.5715970000000  0.4555350000000  0.5545760000000 1.0
C      1  0.5403590000000  0.5195190000000  0.4309870000000 1.0
C      1  0.4590090000000  0.4161600000000  0.4577040000000 1.0
C      1  0.5779860000000  0.5166560000000  0.4749000000000 1.0
C      1  0.4802280000000  0.4598640000000  0.5308590000000 1.0
C      1  0.5141840000000  0.4965480000000  0.5461970000000 1.0
C      1  0.5010070000000  0.5525220000000  0.4985480000000 1.0
C      1  0.5654560000000  0.5544990000000  0.5296850000000 1.0
C      1  0.4368890000000  0.4896290000000  0.4399590000000 1.0
C      1  0.5633370000000  0.5037870000000  0.5664580000000 1.0
C      1  0.5572800000000  0.5768880000000  0.5216920000000 1.0
C      1  0.4396880000000  0.4768140000000  0.5349730000000 1.0
C      1  0.4217890000000  0.5369250000000  0.4991230000000 1.0
C      1  0.4565180000000  0.5196180000000  0.5075280000000 1.0
C      1  0.5316000000000  0.4297720000000  0.4460690000000 1.0
C      1  0.5396740000000  0.4972880000000  0.5039010000000 1.0
C      1  0.4776730000000  0.4661880000000  0.5833240000000 1.0
C      1  0.4421690000000  0.4073360000000  0.4379990000000 1.0
C      1  0.5222420000000  0.5403900000000  0.5189400000000 1.0
C      1  0.5476470000000  0.4974030000000  0.5369610000000 1.0
C      1  0.4789950000000  0.4861930000000  0.4093150000000 1.0
C      1  0.4431100000000  0.4458350000000  0.5356720000000 1.0
C      1  0.4919960000000  0.5698890000000  0.5684320000000 1.0
C      1  0.4596900000000  0.4112750000000  0.4975280000000 1.0
C      1  0.5632020000000  0.5448960000000  0.4720000000000 1.0
C      1  0.4717110000000  0.5503530000000  0.5738720000000 1.0
C      1  0.5128640000000  0.4701150000000  0.5937780000000 1.0
END
