TITL C-3289332-8317-784 -0.00196731792399402 125000 -706.144846010263 0 0 135 (C1) n - 1
REM
REM in /nfs/bkarasulu/CARBON/AIRSS/Generating-Clusters/AIREBO/with-SteepDescent/Higher-Symm/SD-CG/HFTN-CG
REM
REM
REM
REM
REM
REM ./C.cell (b20cbc046b6831c77cfcea5457e17084)
REM
REM compiler GCC version 9.2.1 20190827 (Red Hat 9.2.1-1)
REM options -cpp -mtune=generic -march=x86-64 -g -O0 -fpre-include=/usr/include/finclude/math-vector-fortran.h
REM seed 425054863 2092779868 -1211015218 -223303596 -503970412 719372143 -765062224 -1740451352 1360429536 1175091170 2016015479 1717248384 -821504599 683594459 -677779242 970584635 536203823 367158497 -670520368 -766109618 -1860702674 -1104829075 -814347974 1340485167 -1253025093 -2015761962 2016213914 -1845195956 -25837066 339633156 424941163 -1483583714 -191478284
REM
CELL 1.54180   50.00000   50.00000   50.00000   90.00000   90.00000   90.00000
LATT -1
SFAC C  
C      1  0.5374450000000  0.4898680000000  0.5979250000000 1.0
C      1  0.3968960000000  0.4901530000000  0.4855310000000 1.0
C      1  0.5530550000000  0.4911380000000  0.4177050000000 1.0
C      1  0.5663730000000  0.4315960000000  0.4637020000000 1.0
C      1  0.5083960000000  0.4372410000000  0.5672570000000 1.0
C      1  0.4363940000000  0.4446760000000  0.4812140000000 1.0
C      1  0.5423680000000  0.5528810000000  0.5239380000000 1.0
C      1  0.4535770000000  0.5515090000000  0.5360120000000 1.0
C      1  0.4972740000000  0.5511140000000  0.4489090000000 1.0
C      1  0.5321930000000  0.4811780000000  0.4719590000000 1.0
C      1  0.4999550000000  0.4857940000000  0.5487040000000 1.0
C      1  0.4599620000000  0.4865230000000  0.4734920000000 1.0
C      1  0.4476990000000  0.5722960000000  0.4654090000000 1.0
C      1  0.5625330000000  0.5736170000000  0.4830390000000 1.0
C      1  0.4895970000000  0.5738830000000  0.5603820000000 1.0
C      1  0.4628080000000  0.6019720000000  0.5299410000000 1.0
C      1  0.4964610000000  0.6031350000000  0.4570560000000 1.0
C      1  0.5306780000000  0.5982380000000  0.5226750000000 1.0
C      1  0.5791640000000  0.5462120000000  0.4819200000000 1.0
C      1  0.4771620000000  0.5480790000000  0.5745580000000 1.0
C      1  0.4373550000000  0.5479500000000  0.4510030000000 1.0
C      1  0.5920580000000  0.4680510000000  0.5221590000000 1.0
C      1  0.4360550000000  0.4709100000000  0.5653140000000 1.0
C      1  0.4747850000000  0.4630130000000  0.4027210000000 1.0
C      1  0.5301470000000  0.5453070000000  0.5547500000000 1.0
C      1  0.4320560000000  0.5445880000000  0.5026220000000 1.0
C      1  0.5419810000000  0.5438710000000  0.4436090000000 1.0
C      1  0.4494520000000  0.5444290000000  0.5800410000000 1.0
C      1  0.4521990000000  0.5424250000000  0.4278440000000 1.0
C      1  0.5968120000000  0.5415620000000  0.5037800000000 1.0
C      1  0.4769580000000  0.5247850000000  0.4417950000000 1.0
C      1  0.5548300000000  0.5280490000000  0.5078350000000 1.0
C      1  0.4617110000000  0.5207490000000  0.5461940000000 1.0
C      1  0.5126500000000  0.5539220000000  0.4792140000000 1.0
C      1  0.5101910000000  0.5509250000000  0.5130180000000 1.0
C      1  0.4764160000000  0.5542880000000  0.5108150000000 1.0
C      1  0.5309680000000  0.5784440000000  0.4763870000000 1.0
C      1  0.5064260000000  0.5793430000000  0.5313270000000 1.0
C      1  0.4703600000000  0.5760540000000  0.4905050000000 1.0
C      1  0.4849320000000  0.5145340000000  0.4103550000000 1.0
C      1  0.5812610000000  0.5225520000000  0.5272920000000 1.0
C      1  0.4322540000000  0.5254050000000  0.5577070000000 1.0
C      1  0.4081070000000  0.5177520000000  0.4863160000000 1.0
C      1  0.5665540000000  0.5130680000000  0.4378830000000 1.0
C      1  0.5248980000000  0.5176340000000  0.5828370000000 1.0
C      1  0.4649870000000  0.4706830000000  0.4475910000000 1.0
C      1  0.5587450000000  0.4791930000000  0.4928690000000 1.0
C      1  0.4747650000000  0.4678840000000  0.5543620000000 1.0
C      1  0.5367350000000  0.5146860000000  0.5406910000000 1.0
C      1  0.4448330000000  0.5166540000000  0.5082620000000 1.0
C      1  0.5200750000000  0.5184360000000  0.4490920000000 1.0
C      1  0.4924050000000  0.5152320000000  0.5359500000000 1.0
C      1  0.4697290000000  0.5177610000000  0.4742940000000 1.0
C      1  0.5344390000000  0.5122260000000  0.4856830000000 1.0
C      1  0.4993260000000  0.4808730000000  0.4693870000000 1.0
C      1  0.5213880000000  0.4750490000000  0.5265880000000 1.0
C      1  0.4644790000000  0.4711010000000  0.5025190000000 1.0
C      1  0.5831310000000  0.4366470000000  0.4853840000000 1.0
C      1  0.4779200000000  0.4378810000000  0.5795150000000 1.0
C      1  0.4417920000000  0.4381970000000  0.4482730000000 1.0
C      1  0.5537350000000  0.4957450000000  0.5165990000000 1.0
C      1  0.4611580000000  0.4907440000000  0.5405750000000 1.0
C      1  0.4879400000000  0.4929310000000  0.4438670000000 1.0
C      1  0.5584880000000  0.5629440000000  0.4521220000000 1.0
C      1  0.5190810000000  0.5671230000000  0.5682040000000 1.0
C      1  0.4311060000000  0.5686480000000  0.4915770000000 1.0
C      1  0.5670550000000  0.5054460000000  0.5530150000000 1.0
C      1  0.4161070000000  0.5038060000000  0.5369900000000 1.0
C      1  0.5138670000000  0.5015570000000  0.3990770000000 1.0
C      1  0.5158050000000  0.4365940000000  0.5204940000000 1.0
C      1  0.4795560000000  0.4342050000000  0.5051610000000 1.0
C      1  0.5114590000000  0.4347320000000  0.4810770000000 1.0
C      1  0.4751070000000  0.5224310000000  0.5075540000000 1.0
C      1  0.5035350000000  0.5215670000000  0.4749370000000 1.0
C      1  0.5171110000000  0.5176640000000  0.5144440000000 1.0
C      1  0.5060680000000  0.6061900000000  0.5051070000000 1.0
C      1  0.4771950000000  0.6008300000000  0.5064090000000 1.0
C      1  0.5161820000000  0.6022940000000  0.4775040000000 1.0
C      1  0.5421560000000  0.5235360000000  0.4166270000000 1.0
C      1  0.5545340000000  0.5305310000000  0.5722530000000 1.0
C      1  0.4077060000000  0.5281550000000  0.5174760000000 1.0
C      1  0.5107960000000  0.4616910000000  0.5907630000000 1.0
C      1  0.4173330000000  0.4656260000000  0.4623890000000 1.0
C      1  0.5664710000000  0.4537940000000  0.4435090000000 1.0
C      1  0.4761530000000  0.4132710000000  0.5299810000000 1.0
C      1  0.4878830000000  0.4199040000000  0.4640630000000 1.0
C      1  0.5409020000000  0.4190770000000  0.5066300000000 1.0
C      1  0.5904400000000  0.4986280000000  0.4788130000000 1.0
C      1  0.4744660000000  0.4985850000000  0.5843700000000 1.0
C      1  0.4393530000000  0.4905840000000  0.4242240000000 1.0
C      1  0.4636190000000  0.5797930000000  0.5453700000000 1.0
C      1  0.4799760000000  0.5767390000000  0.4580380000000 1.0
C      1  0.5499800000000  0.5803500000000  0.5114990000000 1.0
C      1  0.4468480000000  0.4584370000000  0.4215390000000 1.0
C      1  0.5869690000000  0.4662910000000  0.4887460000000 1.0
C      1  0.4628080000000  0.4666820000000  0.5859340000000 1.0
C      1  0.4417670000000  0.4992050000000  0.5771810000000 1.0
C      1  0.4647560000000  0.4914060000000  0.4081550000000 1.0
C      1  0.5955080000000  0.4973180000000  0.5119900000000 1.0
C      1  0.5558550000000  0.4445930000000  0.5524050000000 1.0
C      1  0.4263430000000  0.4539720000000  0.5124890000000 1.0
C      1  0.5211210000000  0.4431910000000  0.4271800000000 1.0
C      1  0.5399620000000  0.4187050000000  0.4724760000000 1.0
C      1  0.5072900000000  0.4148690000000  0.5443850000000 1.0
C      1  0.4593420000000  0.4201620000000  0.4816880000000 1.0
C      1  0.5640620000000  0.5188630000000  0.4703040000000 1.0
C      1  0.4941930000000  0.5218170000000  0.5692810000000 1.0
C      1  0.4365110000000  0.5216790000000  0.4680110000000 1.0
C      1  0.5149420000000  0.4937690000000  0.4286410000000 1.0
C      1  0.5498980000000  0.4772380000000  0.5448750000000 1.0
C      1  0.4382600000000  0.4851180000000  0.5191960000000 1.0
C      1  0.4590080000000  0.4004110000000  0.5069250000000 1.0
C      1  0.5175560000000  0.4186810000000  0.4468930000000 1.0
C      1  0.5411300000000  0.4160980000000  0.5409730000000 1.0
C      1  0.4743340000000  0.4389390000000  0.4430460000000 1.0
C      1  0.5723760000000  0.4271900000000  0.5097520000000 1.0
C      1  0.4646340000000  0.4360030000000  0.5482380000000 1.0
C      1  0.4919230000000  0.4607580000000  0.5189490000000 1.0
C      1  0.4852610000000  0.4563870000000  0.4799840000000 1.0
C      1  0.5245740000000  0.4593550000000  0.4967230000000 1.0
C      1  0.5259840000000  0.4809200000000  0.5671870000000 1.0
C      1  0.4304640000000  0.4848410000000  0.4866880000000 1.0
C      1  0.5372140000000  0.4707280000000  0.4398200000000 1.0
C      1  0.5381570000000  0.4447660000000  0.5789000000000 1.0
C      1  0.4010140000000  0.4586480000000  0.4914670000000 1.0
C      1  0.5524020000000  0.4437510000000  0.4146590000000 1.0
C      1  0.5721210000000  0.4838080000000  0.4542880000000 1.0
C      1  0.5031530000000  0.4942730000000  0.5968310000000 1.0
C      1  0.4267400000000  0.4953260000000  0.4487370000000 1.0
C      1  0.4197470000000  0.5510890000000  0.5395290000000 1.0
C      1  0.5101800000000  0.5341970000000  0.4218640000000 1.0
C      1  0.5684930000000  0.5482420000000  0.5455450000000 1.0
C      1  0.4921850000000  0.4457080000000  0.4184590000000 1.0
C      1  0.5784310000000  0.4445170000000  0.5310750000000 1.0
C      1  0.4380050000000  0.4531190000000  0.5431680000000 1.0
END
