TITL C-3289327-5623-380 -630.870216958673 125000 -396.878095002314 0 0 72 (C1) n - 1
REM
REM in /nfs/bkarasulu/CARBON/AIRSS/Generating-Clusters/AIREBO/with-SteepDescent/Higher-Symm/SD-CG/HFTN-CG
REM
REM
REM
REM
REM
REM ./C.cell (b20cbc046b6831c77cfcea5457e17084)
REM
REM compiler GCC version 9.2.1 20190827 (Red Hat 9.2.1-1)
REM options -cpp -mtune=generic -march=x86-64 -g -O0 -fpre-include=/usr/include/finclude/math-vector-fortran.h
REM seed 1599981739 -2028202682 -1867610862 1898531291 350086583 -1934914050 321211236 -370303363 -1635354850 709273517 -1818990481 534398223 -234595433 -1182144592 2023840799 524411519 1843896031 -1199990023 1430456457 -2131698656 -1700319022 -1015113369 -667423950 -1124758409 -1234308974 759861740 443427059 -1448287093 1689800160 1572481158 2125789980 -1473407913 1078160915
REM
CELL 1.54180   50.00000   50.00000   50.00000   90.00000   90.00000   90.00000
LATT -1
SFAC C  
C      1  0.5185180000000  0.5195920000000  0.4712710000000 1.0
C      1  0.5313940000000  0.5317210000000  0.4969740000000 1.0
C      1  0.5154440000000  0.5289890000000  0.5219870000000 1.0
C      1  0.5272770000000  0.5080350000000  0.5406370000000 1.0
C      1  0.5195420000000  0.4809630000000  0.5298100000000 1.0
C      1  0.5291720000000  0.4657650000000  0.5046210000000 1.0
C      1  0.5135860000000  0.4696760000000  0.4803840000000 1.0
C      1  0.5269890000000  0.4922720000000  0.4640480000000 1.0
C      1  0.4899980000000  0.4824430000000  0.5321130000000 1.0
C      1  0.4758880000000  0.4618220000000  0.5151930000000 1.0
C      1  0.4839370000000  0.4678090000000  0.4849140000000 1.0
C      1  0.4736530000000  0.4895420000000  0.4662980000000 1.0
C      1  0.4889070000000  0.5178070000000  0.4709910000000 1.0
C      1  0.4738150000000  0.5391340000000  0.4874850000000 1.0
C      1  0.4875710000000  0.5292850000000  0.5157320000000 1.0
C      1  0.4724670000000  0.5098180000000  0.5339380000000 1.0
C      1  0.5175740000000  0.5688600000000  0.5000030000000 1.0
C      1  0.5164980000000  0.5508350000000  0.5553050000000 1.0
C      1  0.5201080000000  0.4985830000000  0.5713760000000 1.0
C      1  0.5159430000000  0.4477730000000  0.5515950000000 1.0
C      1  0.5157770000000  0.4287860000000  0.4987130000000 1.0
C      1  0.5190880000000  0.4552060000000  0.4517200000000 1.0
C      1  0.5186630000000  0.5016170000000  0.4264970000000 1.0
C      1  0.5155820000000  0.5538300000000  0.4477910000000 1.0
C      1  0.4681930000000  0.4884460000000  0.5572600000000 1.0
C      1  0.4552130000000  0.4643700000000  0.5398570000000 1.0
C      1  0.4577890000000  0.4467500000000  0.4928370000000 1.0
C      1  0.4545700000000  0.4659440000000  0.4579510000000 1.0
C      1  0.4696090000000  0.5125780000000  0.4440710000000 1.0
C      1  0.4542010000000  0.5355570000000  0.4622030000000 1.0
C      1  0.4668630000000  0.5562260000000  0.5136140000000 1.0
C      1  0.4541500000000  0.5359790000000  0.5362360000000 1.0
C      1  0.5673570000000  0.5383340000000  0.5125540000000 1.0
C      1  0.5652140000000  0.5206880000000  0.5401270000000 1.0
C      1  0.5607720000000  0.4875080000000  0.5341520000000 1.0
C      1  0.5669560000000  0.4602970000000  0.5164880000000 1.0
C      1  0.5618330000000  0.4560090000000  0.4838000000000 1.0
C      1  0.5656930000000  0.4830680000000  0.4642260000000 1.0
C      1  0.5591310000000  0.5154370000000  0.4606750000000 1.0
C      1  0.5693860000000  0.5417940000000  0.4789450000000 1.0
C      1  0.5452230000000  0.4362900000000  0.5061120000000 1.0
C      1  0.5495290000000  0.4555270000000  0.4522960000000 1.0
C      1  0.5478200000000  0.4933580000000  0.4371900000000 1.0
C      1  0.5407250000000  0.5429180000000  0.4603580000000 1.0
C      1  0.5477930000000  0.5614990000000  0.4963210000000 1.0
C      1  0.5419470000000  0.5446460000000  0.5344920000000 1.0
C      1  0.5522110000000  0.5012830000000  0.5642090000000 1.0
C      1  0.5431390000000  0.4593110000000  0.5412370000000 1.0
C      1  0.5013730000000  0.5310960000000  0.4290170000000 1.0
C      1  0.4986390000000  0.5709000000000  0.4718360000000 1.0
C      1  0.5013410000000  0.5672800000000  0.5299980000000 1.0
C      1  0.4997690000000  0.5258750000000  0.5710540000000 1.0
C      1  0.5007360000000  0.4706320000000  0.5717070000000 1.0
C      1  0.4980790000000  0.4310290000000  0.5278040000000 1.0
C      1  0.4990390000000  0.4341780000000  0.4694320000000 1.0
C      1  0.5002040000000  0.4732590000000  0.4299540000000 1.0
C      1  0.4857580000000  0.5024700000000  0.4193530000000 1.0
C      1  0.4819280000000  0.5508520000000  0.4498020000000 1.0
C      1  0.4856780000000  0.5796370000000  0.5024530000000 1.0
C      1  0.4826220000000  0.5473510000000  0.5510030000000 1.0
C      1  0.4834930000000  0.4979940000000  0.5822930000000 1.0
C      1  0.4820090000000  0.4489680000000  0.5524520000000 1.0
C      1  0.4823150000000  0.4263720000000  0.4980080000000 1.0
C      1  0.4800260000000  0.4527440000000  0.4480680000000 1.0
C      1  0.4201970000000  0.4985770000000  0.5314050000000 1.0
C      1  0.4295900000000  0.4724000000000  0.5252200000000 1.0
C      1  0.4296160000000  0.4612260000000  0.4988520000000 1.0
C      1  0.4298700000000  0.4714740000000  0.4708140000000 1.0
C      1  0.4200540000000  0.4979450000000  0.4660050000000 1.0
C      1  0.4278140000000  0.5244280000000  0.4727970000000 1.0
C      1  0.4203000000000  0.5335290000000  0.4987130000000 1.0
C      1  0.4268410000000  0.5257990000000  0.5253500000000 1.0
END
