TITL C-3289324-3781-524 -0.0013558862749649 125000 -413.729834013633 0 0 81 (C1) n - 1
REM
REM in /nfs/bkarasulu/CARBON/AIRSS/Generating-Clusters/AIREBO/with-SteepDescent/Higher-Symm/SD-CG/HFTN-CG
REM
REM
REM
REM
REM
REM ./C.cell (b20cbc046b6831c77cfcea5457e17084)
REM
REM compiler GCC version 9.2.1 20190827 (Red Hat 9.2.1-1)
REM options -cpp -mtune=generic -march=x86-64 -g -O0 -fpre-include=/usr/include/finclude/math-vector-fortran.h
REM seed 1852436686 -305769553 -366230143 1439846730 1722506776 -1218043797 2124102206 -830119623 720238363 931761153 -429359831 1449116626 -2023830309 80287692 -700209103 763690007 -578384236 -577538324 -632658087 -19069251 1295793126 765949966 -837130706 -874682138 411276889 -1853108753 -13034881 -161775596 1419534039 -688446602 -1046166741 1610232010 1194863915
REM
CELL 1.54180   50.00000   50.00000   50.00000   90.00000   90.00000   90.00000
LATT -1
SFAC C  
C      1  0.4632420000000  0.4949790000000  0.4333570000000 1.0
C      1  0.4590940000000  0.4993080000000  0.5647620000000 1.0
C      1  0.5418140000000  0.4953630000000  0.5722070000000 1.0
C      1  0.5445610000000  0.5019740000000  0.4259620000000 1.0
C      1  0.4556760000000  0.4269490000000  0.5026340000000 1.0
C      1  0.4642900000000  0.5758230000000  0.5053750000000 1.0
C      1  0.5409550000000  0.5636070000000  0.4990780000000 1.0
C      1  0.5388340000000  0.4332170000000  0.4994790000000 1.0
C      1  0.5336520000000  0.5103530000000  0.5310850000000 1.0
C      1  0.5347690000000  0.4923880000000  0.4632470000000 1.0
C      1  0.4557190000000  0.5065950000000  0.4707610000000 1.0
C      1  0.4555510000000  0.4938370000000  0.5226560000000 1.0
C      1  0.5416260000000  0.5241550000000  0.5028280000000 1.0
C      1  0.5392400000000  0.4763310000000  0.4901330000000 1.0
C      1  0.4645810000000  0.4643820000000  0.5125420000000 1.0
C      1  0.4627850000000  0.5283030000000  0.4959730000000 1.0
C      1  0.5346920000000  0.5644020000000  0.5475030000000 1.0
C      1  0.5282930000000  0.4362110000000  0.4581020000000 1.0
C      1  0.4711650000000  0.5551280000000  0.4578890000000 1.0
C      1  0.4710800000000  0.4337950000000  0.5387220000000 1.0
C      1  0.5268130000000  0.5414900000000  0.5717730000000 1.0
C      1  0.5249460000000  0.4534770000000  0.4295130000000 1.0
C      1  0.4740870000000  0.4652250000000  0.5513470000000 1.0
C      1  0.4692740000000  0.5346410000000  0.4325260000000 1.0
C      1  0.5065660000000  0.5329430000000  0.4461640000000 1.0
C      1  0.5133370000000  0.4673250000000  0.5555490000000 1.0
C      1  0.4977730000000  0.5362870000000  0.5587110000000 1.0
C      1  0.4922640000000  0.4696830000000  0.4438360000000 1.0
C      1  0.5033430000000  0.4408390000000  0.5387070000000 1.0
C      1  0.5096670000000  0.5627740000000  0.4643170000000 1.0
C      1  0.4881350000000  0.5549540000000  0.5364650000000 1.0
C      1  0.4923330000000  0.4489110000000  0.4700050000000 1.0
C      1  0.5106950000000  0.4628320000000  0.4934270000000 1.0
C      1  0.5097230000000  0.5299210000000  0.5060580000000 1.0
C      1  0.4964050000000  0.4645080000000  0.5183230000000 1.0
C      1  0.4905600000000  0.5407760000000  0.4818570000000 1.0
C      1  0.5042230000000  0.4870230000000  0.4706150000000 1.0
C      1  0.5024980000000  0.5151500000000  0.5356160000000 1.0
C      1  0.4867340000000  0.5129050000000  0.4637590000000 1.0
C      1  0.4857770000000  0.4912600000000  0.5328380000000 1.0
C      1  0.4888870000000  0.4260550000000  0.5108040000000 1.0
C      1  0.4937390000000  0.5724320000000  0.4938720000000 1.0
C      1  0.5106270000000  0.4242780000000  0.4846610000000 1.0
C      1  0.5144630000000  0.5668720000000  0.5202530000000 1.0
C      1  0.4921610000000  0.5107190000000  0.4247450000000 1.0
C      1  0.4900280000000  0.4869700000000  0.5720660000000 1.0
C      1  0.5159900000000  0.4861430000000  0.4258700000000 1.0
C      1  0.5139650000000  0.5100520000000  0.5735540000000 1.0
C      1  0.4634530000000  0.4749950000000  0.4608700000000 1.0
C      1  0.4510740000000  0.5221750000000  0.5409080000000 1.0
C      1  0.5413910000000  0.4790670000000  0.5423600000000 1.0
C      1  0.5374640000000  0.5213920000000  0.4521860000000 1.0
C      1  0.4626890000000  0.4529360000000  0.4826770000000 1.0
C      1  0.4582780000000  0.5471910000000  0.5227220000000 1.0
C      1  0.5323290000000  0.5418330000000  0.4753070000000 1.0
C      1  0.5470240000000  0.4603750000000  0.5187290000000 1.0
C      1  0.5706350000000  0.4946360000000  0.4461060000000 1.0
C      1  0.5678440000000  0.4994990000000  0.5486250000000 1.0
C      1  0.4272590000000  0.4995370000000  0.5496590000000 1.0
C      1  0.4318840000000  0.4912560000000  0.4427920000000 1.0
C      1  0.5682480000000  0.4495210000000  0.4944640000000 1.0
C      1  0.5663620000000  0.5541190000000  0.5110180000000 1.0
C      1  0.4355260000000  0.5571660000000  0.4994240000000 1.0
C      1  0.4291410000000  0.4481740000000  0.5040380000000 1.0
C      1  0.5634550000000  0.5552350000000  0.5389220000000 1.0
C      1  0.5577590000000  0.4428230000000  0.4656050000000 1.0
C      1  0.4409230000000  0.5549850000000  0.4674400000000 1.0
C      1  0.4427180000000  0.4489760000000  0.5335360000000 1.0
C      1  0.5510940000000  0.5286840000000  0.5524600000000 1.0
C      1  0.5491430000000  0.4684270000000  0.4471380000000 1.0
C      1  0.4409740000000  0.4704630000000  0.5585250000000 1.0
C      1  0.4430810000000  0.5288550000000  0.4493560000000 1.0
C      1  0.4179630000000  0.4724800000000  0.4966040000000 1.0
C      1  0.4291720000000  0.5240700000000  0.4948700000000 1.0
C      1  0.5718120000000  0.4830820000000  0.4971740000000 1.0
C      1  0.5731060000000  0.5229370000000  0.4988010000000 1.0
C      1  0.4237750000000  0.4959760000000  0.4755540000000 1.0
C      1  0.4244300000000  0.4992070000000  0.5154320000000 1.0
C      1  0.5792890000000  0.5033090000000  0.4716200000000 1.0
C      1  0.5825160000000  0.5009340000000  0.5221810000000 1.0
C      1  0.5033300000000  0.5016710000000  0.4982920000000 1.0
END
