TITL C-3289324-3781-327 -6.15166709194657e-05 125000 -116.875716553074 0 0 22 (C1) n - 1
REM
REM in /nfs/bkarasulu/CARBON/AIRSS/Generating-Clusters/AIREBO/with-SteepDescent/Higher-Symm/SD-CG/HFTN-CG
REM
REM
REM
REM
REM
REM ./C.cell (b20cbc046b6831c77cfcea5457e17084)
REM
REM compiler GCC version 9.2.1 20190827 (Red Hat 9.2.1-1)
REM options -cpp -mtune=generic -march=x86-64 -g -O0 -fpre-include=/usr/include/finclude/math-vector-fortran.h
REM seed -1625830306 325320153 -1764810299 -1921628668 1125485622 -1086884148 1215295950 -1807363782 -579159145 -884248533 -940722099 304487316 1328035034 1139889399 -285259954 -1792004187 1791323908 -85584998 614500009 1662300120 -2036482546 -1760335554 -1375589793 1372619564 859903050 1424398250 1464463472 1759781689 192544244 -130078676 1935137871 -844718986 306381845
REM
CELL 1.54180   50.00000   50.00000   50.00000   90.00000   90.00000   90.00000
LATT -1
SFAC C  
C      1  0.5522080000000  0.4700380000000  0.4872850000000 1.0
C      1  0.5604160000000  0.5111520000000  0.4664580000000 1.0
C      1  0.4750200000000  0.5264570000000  0.4507320000000 1.0
C      1  0.4640520000000  0.4986070000000  0.5479170000000 1.0
C      1  0.4933310000000  0.5053570000000  0.4666100000000 1.0
C      1  0.5694290000000  0.4859690000000  0.4729470000000 1.0
C      1  0.5066400000000  0.4535370000000  0.4915450000000 1.0
C      1  0.5216380000000  0.5576180000000  0.5081770000000 1.0
C      1  0.4914780000000  0.4950300000000  0.5322650000000 1.0
C      1  0.5036110000000  0.5400150000000  0.5192540000000 1.0
C      1  0.4722610000000  0.4699740000000  0.5564060000000 1.0
C      1  0.4894880000000  0.4337180000000  0.4915020000000 1.0
C      1  0.4653500000000  0.4957840000000  0.4544460000000 1.0
C      1  0.5143510000000  0.5034100000000  0.4871880000000 1.0
C      1  0.4261940000000  0.5350470000000  0.5561330000000 1.0
C      1  0.4455020000000  0.5175800000000  0.5531150000000 1.0
C      1  0.5245650000000  0.4742260000000  0.4888810000000 1.0
C      1  0.5382090000000  0.5224240000000  0.4791670000000 1.0
C      1  0.4988970000000  0.4654520000000  0.5421490000000 1.0
C      1  0.4487570000000  0.4768030000000  0.4476010000000 1.0
C      1  0.5036500000000  0.5122570000000  0.5147840000000 1.0
C      1  0.5349520000000  0.5495420000000  0.4854380000000 1.0
END
