TITL C-3289327-5623-29 0.000884172046996545 125000 -423.616199162789 0 0 74 (C1) n - 1
REM
REM in /nfs/bkarasulu/CARBON/AIRSS/Generating-Clusters/AIREBO/with-SteepDescent/Higher-Symm/SD-CG/HFTN-CG
REM
REM
REM
REM
REM
REM ./C.cell (b20cbc046b6831c77cfcea5457e17084)
REM
REM compiler GCC version 9.2.1 20190827 (Red Hat 9.2.1-1)
REM options -cpp -mtune=generic -march=x86-64 -g -O0 -fpre-include=/usr/include/finclude/math-vector-fortran.h
REM seed 1091286953 -499214830 -820185247 1705483773 796892716 496509109 1402203637 -291599811 -1804862772 -797663725 811465358 934903021 504577931 -61181537 340102361 1929241002 -2068134469 -1309856846 -589191954 -181542296 -330445750 -1977767237 1317959487 -1612338057 2088780991 -1069648850 44300346 -34663987 -1070598582 1139642295 -1675406002 208106444 -145035894
REM
CELL 1.54180   50.00000   50.00000   50.00000   90.00000   90.00000   90.00000
LATT -1
SFAC C  
C      1  0.5644060000000  0.4367550000000  0.4454590000000 1.0
C      1  0.4498160000000  0.5240930000000  0.5320090000000 1.0
C      1  0.4832020000000  0.5724640000000  0.4693710000000 1.0
C      1  0.5385240000000  0.4829240000000  0.5153640000000 1.0
C      1  0.5342460000000  0.5203700000000  0.4157710000000 1.0
C      1  0.5437820000000  0.4540590000000  0.4532920000000 1.0
C      1  0.4230580000000  0.4789260000000  0.5254680000000 1.0
C      1  0.4992420000000  0.5447990000000  0.4639710000000 1.0
C      1  0.4707810000000  0.4896410000000  0.5927830000000 1.0
C      1  0.5462210000000  0.5542060000000  0.4471380000000 1.0
C      1  0.4334470000000  0.4839060000000  0.5516110000000 1.0
C      1  0.4409790000000  0.5400500000000  0.5078720000000 1.0
C      1  0.5510410000000  0.4870300000000  0.4528070000000 1.0
C      1  0.4487920000000  0.5070790000000  0.5553200000000 1.0
C      1  0.5135360000000  0.5285280000000  0.5311890000000 1.0
C      1  0.5448600000000  0.4387150000000  0.5013930000000 1.0
C      1  0.4904740000000  0.5875360000000  0.4921840000000 1.0
C      1  0.4709530000000  0.4732950000000  0.4988570000000 1.0
C      1  0.4839580000000  0.4524250000000  0.4554190000000 1.0
C      1  0.5668240000000  0.4887500000000  0.5250410000000 1.0
C      1  0.4675800000000  0.4969420000000  0.5215170000000 1.0
C      1  0.4332030000000  0.4900400000000  0.5024950000000 1.0
C      1  0.5872490000000  0.4785100000000  0.5065110000000 1.0
C      1  0.4945190000000  0.5261960000000  0.5593030000000 1.0
C      1  0.5112550000000  0.4710000000000  0.5147450000000 1.0
C      1  0.4875160000000  0.4220880000000  0.4601110000000 1.0
C      1  0.4938040000000  0.5724340000000  0.5186630000000 1.0
C      1  0.4035700000000  0.4325730000000  0.5941060000000 1.0
C      1  0.4717660000000  0.5073740000000  0.5711140000000 1.0
C      1  0.5075850000000  0.5290430000000  0.4137500000000 1.0
C      1  0.5060820000000  0.4964570000000  0.5537790000000 1.0
C      1  0.5003580000000  0.4617460000000  0.4279160000000 1.0
C      1  0.4856340000000  0.5266860000000  0.4848210000000 1.0
C      1  0.4479960000000  0.5665810000000  0.4674750000000 1.0
C      1  0.4717020000000  0.4727390000000  0.4317580000000 1.0
C      1  0.5227930000000  0.5600990000000  0.5226110000000 1.0
C      1  0.5933890000000  0.4521930000000  0.5089760000000 1.0
C      1  0.5397540000000  0.5280600000000  0.5525950000000 1.0
C      1  0.5238400000000  0.5096290000000  0.5044830000000 1.0
C      1  0.4996300000000  0.4979350000000  0.4867580000000 1.0
C      1  0.5303800000000  0.4910790000000  0.5645420000000 1.0
C      1  0.4880820000000  0.5564800000000  0.5638080000000 1.0
C      1  0.4643450000000  0.4993520000000  0.4393290000000 1.0
C      1  0.4556080000000  0.5239560000000  0.4353000000000 1.0
C      1  0.5709890000000  0.5212660000000  0.5288080000000 1.0
C      1  0.5268460000000  0.4437280000000  0.4771760000000 1.0
C      1  0.4924200000000  0.5392500000000  0.4326110000000 1.0
C      1  0.5625100000000  0.5030890000000  0.4716230000000 1.0
C      1  0.5520100000000  0.5411470000000  0.4234180000000 1.0
C      1  0.5264550000000  0.4673450000000  0.4288330000000 1.0
C      1  0.4829530000000  0.5752170000000  0.5477850000000 1.0
C      1  0.4997190000000  0.4633670000000  0.4836730000000 1.0
C      1  0.4867020000000  0.5398260000000  0.5134280000000 1.0
C      1  0.5867460000000  0.4944030000000  0.4832920000000 1.0
C      1  0.4652610000000  0.5526070000000  0.4444240000000 1.0
C      1  0.4402940000000  0.4825960000000  0.4754220000000 1.0
C      1  0.4337960000000  0.5593020000000  0.4893470000000 1.0
C      1  0.4534320000000  0.4679620000000  0.5918140000000 1.0
C      1  0.5450600000000  0.5241460000000  0.4863570000000 1.0
C      1  0.5995590000000  0.4218680000000  0.5187420000000 1.0
C      1  0.5592560000000  0.5017410000000  0.5542620000000 1.0
C      1  0.4324580000000  0.4651620000000  0.5729720000000 1.0
C      1  0.4941530000000  0.4840050000000  0.5323970000000 1.0
C      1  0.4560460000000  0.5139300000000  0.4944110000000 1.0
C      1  0.4120430000000  0.4457560000000  0.5722140000000 1.0
C      1  0.4020750000000  0.4598950000000  0.5258150000000 1.0
C      1  0.5488910000000  0.5622380000000  0.5169920000000 1.0
C      1  0.4006960000000  0.4417450000000  0.5465940000000 1.0
C      1  0.5308640000000  0.5439430000000  0.4671260000000 1.0
C      1  0.5104280000000  0.4172270000000  0.4702440000000 1.0
C      1  0.5385050000000  0.4950370000000  0.4261580000000 1.0
C      1  0.5701210000000  0.4306680000000  0.5079410000000 1.0
C      1  0.4725660000000  0.4884740000000  0.4684700000000 1.0
C      1  0.5613610000000  0.5383160000000  0.5088630000000 1.0
END
