TITL C-3289325-7307-207 0.000110817732080802 125000 -125.06279425369 0 0 22 (C1) n - 1
REM
REM in /nfs/bkarasulu/CARBON/AIRSS/Generating-Clusters/AIREBO/with-SteepDescent/Higher-Symm/SD-CG/HFTN-CG
REM
REM
REM
REM
REM
REM ./C.cell (b20cbc046b6831c77cfcea5457e17084)
REM
REM compiler GCC version 9.2.1 20190827 (Red Hat 9.2.1-1)
REM options -cpp -mtune=generic -march=x86-64 -g -O0 -fpre-include=/usr/include/finclude/math-vector-fortran.h
REM seed -432719655 974169852 1410597395 452998937 -781410033 -9276510 -504189893 313633207 1191415522 245905350 2114420284 -2059256620 -1549909111 1998726466 1614973183 773903573 -1235967201 -1607298298 210617660 -1495022665 -539382863 705543754 1682391355 1972587001 -1545201988 -282453457 -843270009 -220091565 -1377758951 309230023 -1034593635 1842752548 826582
REM
CELL 1.54180   50.00000   50.00000   50.00000   90.00000   90.00000   90.00000
LATT -1
SFAC C  
C      1  0.4715570000000  0.4859420000000  0.4756940000000 1.0
C      1  0.5303890000000  0.4761150000000  0.4821880000000 1.0
C      1  0.4655140000000  0.4681430000000  0.4975690000000 1.0
C      1  0.5270900000000  0.4747240000000  0.5106520000000 1.0
C      1  0.4642100000000  0.4838730000000  0.5222690000000 1.0
C      1  0.5354190000000  0.5015570000000  0.5249800000000 1.0
C      1  0.4640100000000  0.5147850000000  0.5152480000000 1.0
C      1  0.5319100000000  0.5335080000000  0.5138870000000 1.0
C      1  0.4757490000000  0.5122870000000  0.4858880000000 1.0
C      1  0.5390400000000  0.5024860000000  0.4744510000000 1.0
C      1  0.4861080000000  0.4740260000000  0.5388230000000 1.0
C      1  0.5103670000000  0.5139530000000  0.5412240000000 1.0
C      1  0.4877670000000  0.5217150000000  0.5348640000000 1.0
C      1  0.5092870000000  0.5441030000000  0.5009560000000 1.0
C      1  0.4979460000000  0.5284030000000  0.4798030000000 1.0
C      1  0.5183550000000  0.5183250000000  0.4622030000000 1.0
C      1  0.4883150000000  0.4740260000000  0.4561010000000 1.0
C      1  0.5126120000000  0.4631590000000  0.4642970000000 1.0
C      1  0.4867900000000  0.4483870000000  0.5019700000000 1.0
C      1  0.5059200000000  0.4597880000000  0.5216710000000 1.0
C      1  0.5513150000000  0.5151050000000  0.4972900000000 1.0
C      1  0.4403300000000  0.5291310000000  0.5182580000000 1.0
END
