TITL C-3289325-7307-559 0.000237980203340282 125000 -497.495271807665 0 0 92 (C1) n - 1
REM
REM in /nfs/bkarasulu/CARBON/AIRSS/Generating-Clusters/AIREBO/with-SteepDescent/Higher-Symm/SD-CG/HFTN-CG
REM
REM
REM
REM
REM
REM ./C.cell (b20cbc046b6831c77cfcea5457e17084)
REM
REM compiler GCC version 9.2.1 20190827 (Red Hat 9.2.1-1)
REM options -cpp -mtune=generic -march=x86-64 -g -O0 -fpre-include=/usr/include/finclude/math-vector-fortran.h
REM seed -956836103 -1016866211 -1157174242 -876961274 -1292572668 -1692089252 2101340361 786589100 -1398109298 -1231445670 1117396174 -2142503771 -1947317224 275477125 2103052759 1560002200 -176294545 -497306636 -1788681058 -106886985 -353007113 -635951633 -1586066164 -2054610944 1705369798 1468300898 -586239061 -1248258591 -421713709 -1429698600 1114263326 452582441 -1165015192
REM
CELL 1.54180   50.00000   50.00000   50.00000   90.00000   90.00000   90.00000
LATT -1
SFAC C  
C      1  0.4760940000000  0.5768460000000  0.5125930000000 1.0
C      1  0.4806490000000  0.4219860000000  0.4812120000000 1.0
C      1  0.4864050000000  0.5785460000000  0.4836330000000 1.0
C      1  0.4837660000000  0.4178870000000  0.5112620000000 1.0
C      1  0.5075510000000  0.5445170000000  0.4796030000000 1.0
C      1  0.5001900000000  0.4528450000000  0.5212530000000 1.0
C      1  0.5110170000000  0.5492850000000  0.5088960000000 1.0
C      1  0.5119110000000  0.4469990000000  0.4898550000000 1.0
C      1  0.5389830000000  0.5724320000000  0.5274960000000 1.0
C      1  0.5432560000000  0.4231020000000  0.4762290000000 1.0
C      1  0.5423300000000  0.5772760000000  0.4733700000000 1.0
C      1  0.5319930000000  0.4306770000000  0.5309350000000 1.0
C      1  0.4880920000000  0.4329580000000  0.4266770000000 1.0
C      1  0.4852410000000  0.5584700000000  0.5764300000000 1.0
C      1  0.4848520000000  0.4454210000000  0.5722160000000 1.0
C      1  0.4982010000000  0.5627440000000  0.4185550000000 1.0
C      1  0.4432670000000  0.5121410000000  0.4732260000000 1.0
C      1  0.4405360000000  0.4849520000000  0.5230500000000 1.0
C      1  0.4282730000000  0.5164100000000  0.5241230000000 1.0
C      1  0.4357040000000  0.4870420000000  0.4894570000000 1.0
C      1  0.4708100000000  0.4909050000000  0.5483840000000 1.0
C      1  0.4835760000000  0.5128630000000  0.4244040000000 1.0
C      1  0.4777690000000  0.4826890000000  0.4314510000000 1.0
C      1  0.4801010000000  0.5181050000000  0.5585800000000 1.0
C      1  0.4396400000000  0.4510590000000  0.5204360000000 1.0
C      1  0.4446650000000  0.5458020000000  0.4733330000000 1.0
C      1  0.4402070000000  0.4641020000000  0.4747920000000 1.0
C      1  0.4346440000000  0.5402820000000  0.5213180000000 1.0
C      1  0.4736800000000  0.4822460000000  0.5159170000000 1.0
C      1  0.4751730000000  0.5211260000000  0.4808050000000 1.0
C      1  0.4773390000000  0.4730520000000  0.4865050000000 1.0
C      1  0.4765460000000  0.5280130000000  0.5108340000000 1.0
C      1  0.5094610000000  0.5825270000000  0.5158940000000 1.0
C      1  0.5133210000000  0.4133340000000  0.4852580000000 1.0
C      1  0.5159170000000  0.5894500000000  0.4836540000000 1.0
C      1  0.5136380000000  0.4129670000000  0.5184540000000 1.0
C      1  0.5570500000000  0.4412580000000  0.5198770000000 1.0
C      1  0.5607830000000  0.5595890000000  0.4862370000000 1.0
C      1  0.5605070000000  0.4393210000000  0.4907860000000 1.0
C      1  0.5602280000000  0.5603170000000  0.5142810000000 1.0
C      1  0.5247470000000  0.5592680000000  0.4590710000000 1.0
C      1  0.5178620000000  0.4489220000000  0.5500970000000 1.0
C      1  0.5180330000000  0.5534180000000  0.5418270000000 1.0
C      1  0.5246390000000  0.4400840000000  0.4583880000000 1.0
C      1  0.4515900000000  0.5154040000000  0.5960850000000 1.0
C      1  0.4317550000000  0.4656040000000  0.4172240000000 1.0
C      1  0.4360750000000  0.5247930000000  0.4238800000000 1.0
C      1  0.4570630000000  0.4713970000000  0.5842840000000 1.0
C      1  0.5363170000000  0.4892260000000  0.4396410000000 1.0
C      1  0.5471920000000  0.5234940000000  0.5503930000000 1.0
C      1  0.5437340000000  0.4975150000000  0.5634420000000 1.0
C      1  0.5433180000000  0.5168110000000  0.4484800000000 1.0
C      1  0.5630970000000  0.4655310000000  0.4787890000000 1.0
C      1  0.5670620000000  0.5335640000000  0.5268630000000 1.0
C      1  0.5619460000000  0.4703530000000  0.5270680000000 1.0
C      1  0.5613320000000  0.5292560000000  0.4739000000000 1.0
C      1  0.5854350000000  0.5119440000000  0.4862010000000 1.0
C      1  0.5849650000000  0.4854130000000  0.5160060000000 1.0
C      1  0.5888840000000  0.5165150000000  0.5165730000000 1.0
C      1  0.5859760000000  0.4808450000000  0.4851150000000 1.0
C      1  0.4689880000000  0.4402160000000  0.5262500000000 1.0
C      1  0.4774470000000  0.5513190000000  0.4653300000000 1.0
C      1  0.4669650000000  0.4466340000000  0.4701950000000 1.0
C      1  0.4633960000000  0.5526580000000  0.5253640000000 1.0
C      1  0.4341170000000  0.5040170000000  0.5818550000000 1.0
C      1  0.4455200000000  0.4804990000000  0.4359160000000 1.0
C      1  0.4358710000000  0.5054350000000  0.4442610000000 1.0
C      1  0.4398690000000  0.4829590000000  0.5573060000000 1.0
C      1  0.5201450000000  0.5490470000000  0.4339220000000 1.0
C      1  0.5101270000000  0.4634610000000  0.5798600000000 1.0
C      1  0.5019220000000  0.5376510000000  0.5857570000000 1.0
C      1  0.5139440000000  0.4430250000000  0.4323240000000 1.0
C      1  0.5380860000000  0.5205100000000  0.5170820000000 1.0
C      1  0.5380040000000  0.4814870000000  0.4848860000000 1.0
C      1  0.5378270000000  0.5131640000000  0.4878620000000 1.0
C      1  0.5362620000000  0.4805390000000  0.5162660000000 1.0
C      1  0.5051040000000  0.4857200000000  0.5284710000000 1.0
C      1  0.5073860000000  0.5111990000000  0.4728310000000 1.0
C      1  0.5070520000000  0.4768980000000  0.4743740000000 1.0
C      1  0.5054220000000  0.5195080000000  0.5245750000000 1.0
C      1  0.4829710000000  0.4803740000000  0.5913720000000 1.0
C      1  0.4591990000000  0.5248990000000  0.4076320000000 1.0
C      1  0.4617840000000  0.5321140000000  0.3814810000000 1.0
C      1  0.4834000000000  0.5111330000000  0.5916940000000 1.0
C      1  0.4804370000000  0.5452490000000  0.4343790000000 1.0
C      1  0.4733630000000  0.4577250000000  0.5504970000000 1.0
C      1  0.4700240000000  0.5485390000000  0.5545220000000 1.0
C      1  0.4712060000000  0.4503420000000  0.4396970000000 1.0
C      1  0.5167920000000  0.4871390000000  0.5603990000000 1.0
C      1  0.5104880000000  0.5194790000000  0.4399960000000 1.0
C      1  0.5086130000000  0.4727350000000  0.4417600000000 1.0
C      1  0.5138850000000  0.5234190000000  0.5572840000000 1.0
END
