TITL C-3289329-2751-249 -0.000354810454631706 125000 -165.868070235717 0 0 30 (C1) n - 1
REM
REM in /nfs/bkarasulu/CARBON/AIRSS/Generating-Clusters/AIREBO/with-SteepDescent/Higher-Symm/SD-CG/HFTN-CG
REM
REM
REM
REM
REM
REM ./C.cell (b20cbc046b6831c77cfcea5457e17084)
REM
REM compiler GCC version 9.2.1 20190827 (Red Hat 9.2.1-1)
REM options -cpp -mtune=generic -march=x86-64 -g -O0 -fpre-include=/usr/include/finclude/math-vector-fortran.h
REM seed 1489079087 2141806581 -1284761553 1748535239 2042672726 -1820108982 -1011095659 797415853 421276712 1353706472 805143902 979054458 -593338282 -1724640615 1147831393 1300631690 1914390881 609646445 -1146783639 -5520681 974211089 -1846251342 -1639393963 -741791168 -1460273215 1723816897 -755752122 -62036803 -1855063343 1624415760 -1396677640 -1511079430 -720220406
REM
CELL 1.54180   50.00000   50.00000   50.00000   90.00000   90.00000   90.00000
LATT -1
SFAC C  
C      1  0.5387110000000  0.5250360000000  0.5265340000000 1.0
C      1  0.5393050000000  0.4698810000000  0.4766280000000 1.0
C      1  0.5345170000000  0.4703870000000  0.5265000000000 1.0
C      1  0.5485880000000  0.5350010000000  0.4753720000000 1.0
C      1  0.5110880000000  0.4702820000000  0.4601750000000 1.0
C      1  0.5076650000000  0.5289390000000  0.5398360000000 1.0
C      1  0.5271560000000  0.5206620000000  0.4581610000000 1.0
C      1  0.5043960000000  0.4720020000000  0.5369090000000 1.0
C      1  0.4598360000000  0.5258000000000  0.5162110000000 1.0
C      1  0.4581790000000  0.4624200000000  0.4799550000000 1.0
C      1  0.4569860000000  0.4714470000000  0.5061350000000 1.0
C      1  0.4553540000000  0.5172980000000  0.4854210000000 1.0
C      1  0.4993240000000  0.5286340000000  0.4627020000000 1.0
C      1  0.4841350000000  0.4714470000000  0.5183350000000 1.0
C      1  0.4808640000000  0.4781700000000  0.4630360000000 1.0
C      1  0.4862230000000  0.5369020000000  0.5234530000000 1.0
C      1  0.5328580000000  0.4927350000000  0.4525200000000 1.0
C      1  0.5237420000000  0.4989430000000  0.5418040000000 1.0
C      1  0.4924610000000  0.5334550000000  0.4943820000000 1.0
C      1  0.4924200000000  0.4844040000000  0.4929740000000 1.0
C      1  0.5488640000000  0.4743690000000  0.5028680000000 1.0
C      1  0.5634880000000  0.5362930000000  0.5059080000000 1.0
C      1  0.4133770000000  0.4966670000000  0.5183060000000 1.0
C      1  0.4421060000000  0.4977790000000  0.5097180000000 1.0
C      1  0.4751860000000  0.5099560000000  0.4670980000000 1.0
C      1  0.5672470000000  0.5021100000000  0.5053980000000 1.0
C      1  0.5934310000000  0.4939390000000  0.5105390000000 1.0
C      1  0.5069820000000  0.5074000000000  0.4955470000000 1.0
C      1  0.3897870000000  0.4952740000000  0.5279480000000 1.0
C      1  0.5358430000000  0.5111310000000  0.4959600000000 1.0
END
