TITL C-3289332-8317-687 0.00372043162706457 125000 -829.617811502052 0 0 157 (C1) n - 1
REM
REM in /nfs/bkarasulu/CARBON/AIRSS/Generating-Clusters/AIREBO/with-SteepDescent/Higher-Symm/SD-CG/HFTN-CG
REM
REM
REM
REM
REM
REM ./C.cell (b20cbc046b6831c77cfcea5457e17084)
REM
REM compiler GCC version 9.2.1 20190827 (Red Hat 9.2.1-1)
REM options -cpp -mtune=generic -march=x86-64 -g -O0 -fpre-include=/usr/include/finclude/math-vector-fortran.h
REM seed -1087788760 -910002888 -1215748205 -812619570 -1318361763 423292445 -221988763 -628377551 795564357 716798369 840400132 -123753226 1877413808 1791170862 -2139556578 -1650427585 -356216865 720483991 -1442195006 662034566 -2092292823 213391929 -390095286 535008376 1190947663 1035264038 1635321626 1236139444 -1558832417 504339660 15137242 1402767646 1706581402
REM
CELL 1.54180   50.00000   50.00000   50.00000   90.00000   90.00000   90.00000
LATT -1
SFAC C  
C      1  0.4096910000000  0.5470230000000  0.4860840000000 1.0
C      1  0.5491230000000  0.5939850000000  0.4878210000000 1.0
C      1  0.5751400000000  0.4588750000000  0.4864640000000 1.0
C      1  0.4495580000000  0.4064150000000  0.4849940000000 1.0
C      1  0.4152430000000  0.5424330000000  0.5198970000000 1.0
C      1  0.5412310000000  0.5991350000000  0.5146410000000 1.0
C      1  0.5851250000000  0.4555250000000  0.5153900000000 1.0
C      1  0.4587480000000  0.4162870000000  0.5143530000000 1.0
C      1  0.4918750000000  0.5442380000000  0.5100300000000 1.0
C      1  0.5351730000000  0.5225310000000  0.5095890000000 1.0
C      1  0.5124920000000  0.4651410000000  0.5090440000000 1.0
C      1  0.4609630000000  0.4821860000000  0.5195960000000 1.0
C      1  0.4848190000000  0.5379740000000  0.4809690000000 1.0
C      1  0.5300970000000  0.5101890000000  0.4782280000000 1.0
C      1  0.5143090000000  0.4681490000000  0.4752200000000 1.0
C      1  0.4652290000000  0.4855320000000  0.4868710000000 1.0
C      1  0.5893250000000  0.4618050000000  0.4576090000000 1.0
C      1  0.4547250000000  0.4148570000000  0.4523130000000 1.0
C      1  0.4164790000000  0.5388880000000  0.4523650000000 1.0
C      1  0.5417470000000  0.5910510000000  0.4545770000000 1.0
C      1  0.5919030000000  0.4563920000000  0.5475030000000 1.0
C      1  0.4560990000000  0.4152080000000  0.5482290000000 1.0
C      1  0.4283930000000  0.5373250000000  0.5510690000000 1.0
C      1  0.5344310000000  0.5805310000000  0.5432680000000 1.0
C      1  0.4348640000000  0.4717550000000  0.4913860000000 1.0
C      1  0.4763840000000  0.5707390000000  0.4847110000000 1.0
C      1  0.5927010000000  0.5337630000000  0.4879360000000 1.0
C      1  0.5302230000000  0.4188050000000  0.4899930000000 1.0
C      1  0.4166620000000  0.4710570000000  0.5169240000000 1.0
C      1  0.4712190000000  0.5618110000000  0.5232300000000 1.0
C      1  0.5671130000000  0.5284310000000  0.5097020000000 1.0
C      1  0.5126660000000  0.4315440000000  0.5143100000000 1.0
C      1  0.5418130000000  0.4503230000000  0.4845460000000 1.0
C      1  0.4413510000000  0.4393730000000  0.4833040000000 1.0
C      1  0.4386220000000  0.5607410000000  0.4771870000000 1.0
C      1  0.5578820000000  0.5629510000000  0.4774090000000 1.0
C      1  0.5515590000000  0.4502560000000  0.5171260000000 1.0
C      1  0.4572470000000  0.4487260000000  0.5246440000000 1.0
C      1  0.4395940000000  0.5617080000000  0.5224890000000 1.0
C      1  0.5516430000000  0.5587170000000  0.5100130000000 1.0
C      1  0.5538720000000  0.4734550000000  0.5703850000000 1.0
C      1  0.4834450000000  0.4366010000000  0.5852640000000 1.0
C      1  0.4463010000000  0.5016280000000  0.5739480000000 1.0
C      1  0.5154730000000  0.5572410000000  0.5824720000000 1.0
C      1  0.5692560000000  0.4938780000000  0.4214060000000 1.0
C      1  0.5044830000000  0.4427180000000  0.4193120000000 1.0
C      1  0.4489110000000  0.5138030000000  0.4177860000000 1.0
C      1  0.5145070000000  0.5650090000000  0.4214510000000 1.0
C      1  0.5102880000000  0.5281650000000  0.5320720000000 1.0
C      1  0.5093150000000  0.4723840000000  0.5401280000000 1.0
C      1  0.4822630000000  0.4834350000000  0.5447430000000 1.0
C      1  0.4802040000000  0.5143200000000  0.5405790000000 1.0
C      1  0.5141990000000  0.5369460000000  0.4642240000000 1.0
C      1  0.5320250000000  0.4852080000000  0.4554220000000 1.0
C      1  0.4838340000000  0.4730040000000  0.4651810000000 1.0
C      1  0.4662890000000  0.5129230000000  0.4673330000000 1.0
C      1  0.5266400000000  0.5621410000000  0.4790220000000 1.0
C      1  0.5565700000000  0.4938440000000  0.4919680000000 1.0
C      1  0.4743040000000  0.4371130000000  0.4789930000000 1.0
C      1  0.4450270000000  0.5285600000000  0.4848140000000 1.0
C      1  0.5195720000000  0.5600200000000  0.5098610000000 1.0
C      1  0.5552720000000  0.4814960000000  0.5198230000000 1.0
C      1  0.4833990000000  0.4462750000000  0.5052170000000 1.0
C      1  0.4402190000000  0.5071450000000  0.5091950000000 1.0
C      1  0.4784370000000  0.5107930000000  0.5803360000000 1.0
C      1  0.5111560000000  0.5115660000000  0.5895980000000 1.0
C      1  0.5269840000000  0.4823130000000  0.5892310000000 1.0
C      1  0.4735910000000  0.4844090000000  0.6012610000000 1.0
C      1  0.4825960000000  0.5155590000000  0.4134910000000 1.0
C      1  0.5144560000000  0.5153130000000  0.4106590000000 1.0
C      1  0.5130280000000  0.4813720000000  0.4138040000000 1.0
C      1  0.4828350000000  0.4668830000000  0.4145870000000 1.0
C      1  0.5761870000000  0.5525600000000  0.4454580000000 1.0
C      1  0.5563680000000  0.4393440000000  0.4558280000000 1.0
C      1  0.4180010000000  0.4457330000000  0.4594080000000 1.0
C      1  0.4459890000000  0.5654440000000  0.4483790000000 1.0
C      1  0.5678950000000  0.5596400000000  0.5395700000000 1.0
C      1  0.5571050000000  0.4246200000000  0.5471980000000 1.0
C      1  0.4315240000000  0.4461800000000  0.5444700000000 1.0
C      1  0.4447300000000  0.5735890000000  0.5528070000000 1.0
C      1  0.5122520000000  0.4176380000000  0.4637960000000 1.0
C      1  0.4185020000000  0.4863310000000  0.4694780000000 1.0
C      1  0.4772280000000  0.5986060000000  0.4652420000000 1.0
C      1  0.5941320000000  0.5134220000000  0.4663180000000 1.0
C      1  0.5070560000000  0.4150260000000  0.5388360000000 1.0
C      1  0.4274440000000  0.4856090000000  0.5410970000000 1.0
C      1  0.4841870000000  0.5852560000000  0.5382910000000 1.0
C      1  0.5864300000000  0.5137960000000  0.5338810000000 1.0
C      1  0.4075210000000  0.4402410000000  0.5222970000000 1.0
C      1  0.4397030000000  0.5950020000000  0.5264540000000 1.0
C      1  0.5844830000000  0.5675240000000  0.5093820000000 1.0
C      1  0.5623230000000  0.4192590000000  0.5142410000000 1.0
C      1  0.4085760000000  0.4359100000000  0.4917000000000 1.0
C      1  0.4480820000000  0.5868440000000  0.4945240000000 1.0
C      1  0.5893210000000  0.5622370000000  0.4753820000000 1.0
C      1  0.5629580000000  0.4167370000000  0.4809900000000 1.0
C      1  0.5307490000000  0.5319760000000  0.4350010000000 1.0
C      1  0.5354610000000  0.4640800000000  0.4326230000000 1.0
C      1  0.4636290000000  0.4661820000000  0.4389060000000 1.0
C      1  0.4823060000000  0.5268400000000  0.4426590000000 1.0
C      1  0.5348100000000  0.5147950000000  0.5488700000000 1.0
C      1  0.5169440000000  0.4597430000000  0.5670010000000 1.0
C      1  0.4713660000000  0.4711510000000  0.5700290000000 1.0
C      1  0.4853570000000  0.5382810000000  0.5615110000000 1.0
C      1  0.4975640000000  0.5402070000000  0.5993450000000 1.0
C      1  0.5604700000000  0.5034720000000  0.5851730000000 1.0
C      1  0.4885210000000  0.4570330000000  0.6044130000000 1.0
C      1  0.4308840000000  0.5002220000000  0.6021570000000 1.0
C      1  0.4888680000000  0.5660420000000  0.4059770000000 1.0
C      1  0.5549870000000  0.4922670000000  0.3942620000000 1.0
C      1  0.5250410000000  0.4443050000000  0.3948240000000 1.0
C      1  0.4500670000000  0.4955570000000  0.3916290000000 1.0
C      1  0.5144560000000  0.5890190000000  0.4689880000000 1.0
C      1  0.5834450000000  0.4885120000000  0.4757580000000 1.0
C      1  0.4822520000000  0.4066130000000  0.4665870000000 1.0
C      1  0.4157360000000  0.5149430000000  0.4765050000000 1.0
C      1  0.5094260000000  0.5896930000000  0.5221000000000 1.0
C      1  0.5851110000000  0.4848910000000  0.5325370000000 1.0
C      1  0.4814620000000  0.4010910000000  0.5346350000000 1.0
C      1  0.4064190000000  0.5135580000000  0.5087010000000 1.0
C      1  0.5685440000000  0.4474190000000  0.5613060000000 1.0
C      1  0.4577530000000  0.4413850000000  0.5655850000000 1.0
C      1  0.4432220000000  0.5504550000000  0.5776860000000 1.0
C      1  0.5465660000000  0.5583530000000  0.5660810000000 1.0
C      1  0.5692520000000  0.4626420000000  0.4345810000000 1.0
C      1  0.4462730000000  0.4404160000000  0.4437720000000 1.0
C      1  0.4395810000000  0.5428370000000  0.4276610000000 1.0
C      1  0.5452590000000  0.5633690000000  0.4361230000000 1.0
C      1  0.4236730000000  0.4733540000000  0.4419050000000 1.0
C      1  0.4717760000000  0.5763670000000  0.4456050000000 1.0
C      1  0.5793080000000  0.5207880000000  0.4406200000000 1.0
C      1  0.5293170000000  0.4312870000000  0.4393250000000 1.0
C      1  0.4315930000000  0.4714380000000  0.5672540000000 1.0
C      1  0.4748770000000  0.5689300000000  0.5621860000000 1.0
C      1  0.5642470000000  0.5293500000000  0.5494690000000 1.0
C      1  0.5340740000000  0.4125350000000  0.5574500000000 1.0
C      1  0.4481700000000  0.4890920000000  0.6181440000000 1.0
C      1  0.4639260000000  0.5381180000000  0.5948460000000 1.0
C      1  0.5398980000000  0.5260960000000  0.5785680000000 1.0
C      1  0.5148080000000  0.4620240000000  0.6103720000000 1.0
C      1  0.4654370000000  0.4755210000000  0.3905200000000 1.0
C      1  0.4692540000000  0.5467510000000  0.4108950000000 1.0
C      1  0.5393290000000  0.5149380000000  0.3896190000000 1.0
C      1  0.5370820000000  0.4700010000000  0.3932290000000 1.0
C      1  0.4936010000000  0.4433570000000  0.4516830000000 1.0
C      1  0.4492860000000  0.4956890000000  0.4432770000000 1.0
C      1  0.4941590000000  0.5557810000000  0.4442000000000 1.0
C      1  0.5489710000000  0.5089300000000  0.4430040000000 1.0
C      1  0.5089190000000  0.4303960000000  0.5690160000000 1.0
C      1  0.4466730000000  0.5120850000000  0.5419870000000 1.0
C      1  0.5106560000000  0.5574560000000  0.5493330000000 1.0
C      1  0.5375580000000  0.4858810000000  0.5448850000000 1.0
C      1  0.5299580000000  0.3876050000000  0.4995890000000 1.0
C      1  0.3903170000000  0.4898670000000  0.5140810000000 1.0
C      1  0.4962240000000  0.5969390000000  0.4934370000000 1.0
C      1  0.6064620000000  0.5282350000000  0.5163410000000 1.0
C      1  0.5130890000000  0.4972120000000  0.5046600000000 1.0
END
