TITL C-3289335-9438-561 0.00127384601371559 125000 -207.472713912648 0 0 37 (C1) n - 1
REM
REM in /nfs/bkarasulu/CARBON/AIRSS/Generating-Clusters/AIREBO/with-SteepDescent/Higher-Symm/SD-CG/HFTN-CG
REM
REM
REM
REM
REM
REM ./C.cell (b20cbc046b6831c77cfcea5457e17084)
REM
REM compiler GCC version 9.2.1 20190827 (Red Hat 9.2.1-1)
REM options -cpp -mtune=generic -march=x86-64 -g -O0 -fpre-include=/usr/include/finclude/math-vector-fortran.h
REM seed 1915574928 -1811025406 -961575735 1489831340 -1737274310 1378053203 1499047768 606278765 102981605 2065933782 1933861865 -1341729862 -1879616486 2135351742 412686814 -2093607083 677080650 516267897 246073391 -29333788 122139809 -1887837226 666303611 1968635296 -550894465 2007587023 -1295280153 -1092797800 1214277881 2094234365 -1400027898 -120638354 -206739239
REM
CELL 1.54180   50.00000   50.00000   50.00000   90.00000   90.00000   90.00000
LATT -1
SFAC C  
C      1  0.5647000000000  0.5011250000000  0.5247480000000 1.0
C      1  0.5489830000000  0.4811150000000  0.5137210000000 1.0
C      1  0.5454640000000  0.4652930000000  0.4876130000000 1.0
C      1  0.5477090000000  0.4832560000000  0.4643480000000 1.0
C      1  0.5333040000000  0.5085260000000  0.4673630000000 1.0
C      1  0.5357200000000  0.5411700000000  0.5033220000000 1.0
C      1  0.5594730000000  0.5280410000000  0.5179550000000 1.0
C      1  0.4393220000000  0.4680300000000  0.5066760000000 1.0
C      1  0.4434250000000  0.4764200000000  0.4770060000000 1.0
C      1  0.4488430000000  0.5021950000000  0.4654010000000 1.0
C      1  0.4476060000000  0.5284220000000  0.4775390000000 1.0
C      1  0.4394900000000  0.5325630000000  0.5048240000000 1.0
C      1  0.4437640000000  0.5131590000000  0.5284120000000 1.0
C      1  0.4462090000000  0.4846690000000  0.5282640000000 1.0
C      1  0.5228650000000  0.5241430000000  0.5496560000000 1.0
C      1  0.4876340000000  0.4960130000000  0.5814840000000 1.0
C      1  0.5258550000000  0.4573290000000  0.5215520000000 1.0
C      1  0.5175630000000  0.4535420000000  0.4903070000000 1.0
C      1  0.5058040000000  0.4652500000000  0.4379930000000 1.0
C      1  0.5162420000000  0.5238140000000  0.4511500000000 1.0
C      1  0.5125130000000  0.5574200000000  0.5005610000000 1.0
C      1  0.4944580000000  0.4778060000000  0.4896260000000 1.0
C      1  0.4884510000000  0.4752700000000  0.4570830000000 1.0
C      1  0.4883130000000  0.5254580000000  0.4539400000000 1.0
C      1  0.4842980000000  0.5530060000000  0.4977170000000 1.0
C      1  0.5042810000000  0.5047490000000  0.5069350000000 1.0
C      1  0.4822630000000  0.4995740000000  0.5545510000000 1.0
C      1  0.4918170000000  0.4615410000000  0.5193690000000 1.0
C      1  0.4667400000000  0.4566600000000  0.4700430000000 1.0
C      1  0.4737020000000  0.5012410000000  0.4505810000000 1.0
C      1  0.4736680000000  0.5423890000000  0.4724400000000 1.0
C      1  0.4654900000000  0.5452040000000  0.5190380000000 1.0
C      1  0.4677100000000  0.5261020000000  0.5437330000000 1.0
C      1  0.4710810000000  0.4763090000000  0.5394840000000 1.0
C      1  0.4654860000000  0.4522580000000  0.4998420000000 1.0
C      1  0.5034590000000  0.5104540000000  0.5350580000000 1.0
C      1  0.5301710000000  0.5116340000000  0.4962610000000 1.0
END
