TITL C-3289334-2237-693 -0.00167232522646076 125000 -806.442477892232 0 0 150 (C1) n - 1
REM
REM in /nfs/bkarasulu/CARBON/AIRSS/Generating-Clusters/AIREBO/with-SteepDescent/Higher-Symm/SD-CG/HFTN-CG
REM
REM
REM
REM
REM
REM ./C.cell (b20cbc046b6831c77cfcea5457e17084)
REM
REM compiler GCC version 9.2.1 20190827 (Red Hat 9.2.1-1)
REM options -cpp -mtune=generic -march=x86-64 -g -O0 -fpre-include=/usr/include/finclude/math-vector-fortran.h
REM seed -1119317812 -1727180786 -128126276 -941296221 1824697564 -1978723409 -612934023 -83449767 -184131039 1028697980 1674639942 -1129449700 1169837795 1546136393 -1990839635 2078580531 1318306283 2141733999 466427531 1114956292 1174950218 1661964423 -127312992 723843282 891792616 669362677 236586890 -2107249971 959499143 -857576934 1396572 1116552509 926728286
REM
CELL 1.54180   50.00000   50.00000   50.00000   90.00000   90.00000   90.00000
LATT -1
SFAC C  
C      1  0.4454250000000  0.4754360000000  0.4933400000000 1.0
C      1  0.5333990000000  0.4757170000000  0.4562840000000 1.0
C      1  0.5211160000000  0.4763390000000  0.5504010000000 1.0
C      1  0.4681200000000  0.4635700000000  0.5444980000000 1.0
C      1  0.4665430000000  0.4575030000000  0.4537540000000 1.0
C      1  0.5549710000000  0.4642960000000  0.5056290000000 1.0
C      1  0.5550440000000  0.4268090000000  0.5387160000000 1.0
C      1  0.4361820000000  0.4268990000000  0.5287520000000 1.0
C      1  0.5100430000000  0.4272450000000  0.4316390000000 1.0
C      1  0.4318440000000  0.5527250000000  0.4888710000000 1.0
C      1  0.5423140000000  0.5530040000000  0.4462950000000 1.0
C      1  0.5246100000000  0.5522380000000  0.5657040000000 1.0
C      1  0.4821060000000  0.5888440000000  0.5130200000000 1.0
C      1  0.5129030000000  0.5855540000000  0.4689610000000 1.0
C      1  0.5133940000000  0.5887510000000  0.5263300000000 1.0
C      1  0.4076940000000  0.4855690000000  0.5560230000000 1.0
C      1  0.4981270000000  0.4805440000000  0.3953630000000 1.0
C      1  0.5947130000000  0.4868180000000  0.5522260000000 1.0
C      1  0.4765210000000  0.5194720000000  0.4156830000000 1.0
C      1  0.5850950000000  0.5278200000000  0.5239970000000 1.0
C      1  0.4365690000000  0.5258170000000  0.5624030000000 1.0
C      1  0.5483440000000  0.5731850000000  0.4898530000000 1.0
C      1  0.4851060000000  0.5723590000000  0.5491240000000 1.0
C      1  0.4624410000000  0.5752280000000  0.4592090000000 1.0
C      1  0.5454470000000  0.4225260000000  0.4648760000000 1.0
C      1  0.5088100000000  0.4217380000000  0.5534680000000 1.0
C      1  0.4476550000000  0.4213230000000  0.4810570000000 1.0
C      1  0.4345820000000  0.5535390000000  0.5764890000000 1.0
C      1  0.4645230000000  0.5445010000000  0.4031440000000 1.0
C      1  0.5991020000000  0.5538990000000  0.5171280000000 1.0
C      1  0.4342700000000  0.5234920000000  0.4997550000000 1.0
C      1  0.5328330000000  0.5235560000000  0.4438780000000 1.0
C      1  0.5324990000000  0.5230380000000  0.5578110000000 1.0
C      1  0.4624320000000  0.5455520000000  0.4758570000000 1.0
C      1  0.5378060000000  0.5429170000000  0.4784670000000 1.0
C      1  0.4992300000000  0.5416140000000  0.5457170000000 1.0
C      1  0.4155900000000  0.4758700000000  0.4361040000000 1.0
C      1  0.5952580000000  0.4813670000000  0.4649980000000 1.0
C      1  0.4814600000000  0.4752060000000  0.5993590000000 1.0
C      1  0.5599600000000  0.4536280000000  0.5901460000000 1.0
C      1  0.3901630000000  0.4561860000000  0.5080450000000 1.0
C      1  0.5532250000000  0.4557050000000  0.4027120000000 1.0
C      1  0.4553440000000  0.5393100000000  0.4431890000000 1.0
C      1  0.5698940000000  0.5391570000000  0.4888340000000 1.0
C      1  0.4737390000000  0.5392290000000  0.5681030000000 1.0
C      1  0.6102800000000  0.5101890000000  0.5094340000000 1.0
C      1  0.4445990000000  0.5138860000000  0.5932270000000 1.0
C      1  0.4502510000000  0.5011530000000  0.4042330000000 1.0
C      1  0.5506810000000  0.5045250000000  0.4615240000000 1.0
C      1  0.5081380000000  0.5036520000000  0.5638850000000 1.0
C      1  0.4386230000000  0.5033980000000  0.4752300000000 1.0
C      1  0.4350860000000  0.4281770000000  0.4548120000000 1.0
C      1  0.5735590000000  0.4309460000000  0.4688130000000 1.0
C      1  0.4915590000000  0.4276880000000  0.5765910000000 1.0
C      1  0.5289830000000  0.4591930000000  0.5771880000000 1.0
C      1  0.4177830000000  0.4596590000000  0.4884050000000 1.0
C      1  0.5531300000000  0.4606810000000  0.4358030000000 1.0
C      1  0.4935790000000  0.4817670000000  0.5312020000000 1.0
C      1  0.4738810000000  0.4824270000000  0.4760740000000 1.0
C      1  0.5299400000000  0.4807360000000  0.4897370000000 1.0
C      1  0.4161760000000  0.4507920000000  0.4593300000000 1.0
C      1  0.5791020000000  0.4543180000000  0.4510470000000 1.0
C      1  0.5039040000000  0.4503530000000  0.5920760000000 1.0
C      1  0.4932800000000  0.5713280000000  0.5815810000000 1.0
C      1  0.4335200000000  0.5725550000000  0.4466550000000 1.0
C      1  0.5720670000000  0.5714200000000  0.4655600000000 1.0
C      1  0.5849700000000  0.4726270000000  0.5302530000000 1.0
C      1  0.4317660000000  0.4713970000000  0.5586280000000 1.0
C      1  0.4836230000000  0.4681430000000  0.4151980000000 1.0
C      1  0.4590640000000  0.5714910000000  0.5314330000000 1.0
C      1  0.4914040000000  0.5686670000000  0.4486580000000 1.0
C      1  0.5430780000000  0.5731850000000  0.5204650000000 1.0
C      1  0.5830360000000  0.5636470000000  0.4125200000000 1.0
C      1  0.5328320000000  0.5625780000000  0.6182320000000 1.0
C      1  0.3888110000000  0.5730610000000  0.4699540000000 1.0
C      1  0.6101880000000  0.5074580000000  0.4773650000000 1.0
C      1  0.4741870000000  0.5048460000000  0.6073570000000 1.0
C      1  0.4238910000000  0.5030710000000  0.4219790000000 1.0
C      1  0.4956940000000  0.5133110000000  0.5271630000000 1.0
C      1  0.4771100000000  0.5154500000000  0.4820010000000 1.0
C      1  0.5252910000000  0.5137230000000  0.4908210000000 1.0
C      1  0.5291730000000  0.5185920000000  0.5242550000000 1.0
C      1  0.4649040000000  0.5183660000000  0.5136230000000 1.0
C      1  0.5055270000000  0.5192660000000  0.4637020000000 1.0
C      1  0.5842670000000  0.5135600000000  0.5539980000000 1.0
C      1  0.4113040000000  0.5126430000000  0.5468510000000 1.0
C      1  0.5036170000000  0.5080180000000  0.4018600000000 1.0
C      1  0.4625370000000  0.5922390000000  0.4854240000000 1.0
C      1  0.5449390000000  0.5911170000000  0.4609140000000 1.0
C      1  0.5105270000000  0.5917550000000  0.5600840000000 1.0
C      1  0.5613040000000  0.5178070000000  0.5675350000000 1.0
C      1  0.4114180000000  0.5180870000000  0.5202730000000 1.0
C      1  0.5262520000000  0.5161920000000  0.4143000000000 1.0
C      1  0.4447670000000  0.4823350000000  0.4490670000000 1.0
C      1  0.5689090000000  0.4844400000000  0.4820410000000 1.0
C      1  0.4809300000000  0.4834840000000  0.5689250000000 1.0
C      1  0.6157320000000  0.5385770000000  0.4676910000000 1.0
C      1  0.4679630000000  0.5370380000000  0.6164800000000 1.0
C      1  0.4134670000000  0.5345050000000  0.4164930000000 1.0
C      1  0.4809670000000  0.5587730000000  0.4970760000000 1.0
C      1  0.5109050000000  0.5597560000000  0.4859100000000 1.0
C      1  0.5064270000000  0.5577530000000  0.5181720000000 1.0
C      1  0.5219220000000  0.4472230000000  0.4651090000000 1.0
C      1  0.5183810000000  0.4489070000000  0.5352110000000 1.0
C      1  0.4629090000000  0.4480260000000  0.4958660000000 1.0
C      1  0.5225260000000  0.5771270000000  0.4383170000000 1.0
C      1  0.5401320000000  0.5765070000000  0.5524580000000 1.0
C      1  0.4455080000000  0.5757150000000  0.5043180000000 1.0
C      1  0.4574140000000  0.5396390000000  0.5393560000000 1.0
C      1  0.4879210000000  0.5375800000000  0.4421170000000 1.0
C      1  0.5542740000000  0.5410140000000  0.5182400000000 1.0
C      1  0.4525210000000  0.4973150000000  0.5563340000000 1.0
C      1  0.4742520000000  0.4913090000000  0.4346140000000 1.0
C      1  0.5723000000000  0.4985800000000  0.5127790000000 1.0
C      1  0.4925640000000  0.4565160000000  0.6233970000000 1.0
C      1  0.3893820000000  0.4577770000000  0.4395970000000 1.0
C      1  0.6086850000000  0.4665150000000  0.4396260000000 1.0
C      1  0.5177930000000  0.4096450000000  0.4526490000000 1.0
C      1  0.5311770000000  0.4115920000000  0.5305320000000 1.0
C      1  0.4518130000000  0.4107340000000  0.5117540000000 1.0
C      1  0.4945590000000  0.4280350000000  0.5246720000000 1.0
C      1  0.4790970000000  0.4263090000000  0.4753140000000 1.0
C      1  0.5274060000000  0.4269210000000  0.4918260000000 1.0
C      1  0.5847250000000  0.4277390000000  0.4939910000000 1.0
C      1  0.4640830000000  0.4250800000000  0.5739590000000 1.0
C      1  0.4521800000000  0.4264910000000  0.4330770000000 1.0
C      1  0.4994130000000  0.4046990000000  0.4742820000000 1.0
C      1  0.5137580000000  0.3994680000000  0.5047070000000 1.0
C      1  0.4805160000000  0.4053540000000  0.5092000000000 1.0
C      1  0.4874050000000  0.4562520000000  0.5110520000000 1.0
C      1  0.4937430000000  0.4551880000000  0.4716360000000 1.0
C      1  0.5171430000000  0.4538630000000  0.5040060000000 1.0
C      1  0.5968910000000  0.5562990000000  0.4783150000000 1.0
C      1  0.4677500000000  0.5562610000000  0.5953930000000 1.0
C      1  0.4321880000000  0.5530390000000  0.4241910000000 1.0
C      1  0.5436170000000  0.4879940000000  0.5276720000000 1.0
C      1  0.4547080000000  0.4875650000000  0.5238180000000 1.0
C      1  0.5033820000000  0.4898860000000  0.4488190000000 1.0
C      1  0.4151900000000  0.5669440000000  0.4677290000000 1.0
C      1  0.5704110000000  0.5617020000000  0.4345980000000 1.0
C      1  0.5202490000000  0.5607430000000  0.5961160000000 1.0
C      1  0.5524960000000  0.4388240000000  0.5634560000000 1.0
C      1  0.4157290000000  0.4399170000000  0.5160130000000 1.0
C      1  0.5307720000000  0.4406330000000  0.4188930000000 1.0
C      1  0.5810460000000  0.5188090000000  0.4670050000000 1.0
C      1  0.4899640000000  0.5190700000000  0.5839190000000 1.0
C      1  0.4321790000000  0.5196960000000  0.4484180000000 1.0
C      1  0.5731420000000  0.4428060000000  0.5189020000000 1.0
C      1  0.4474080000000  0.4418200000000  0.5533660000000 1.0
C      1  0.4820290000000  0.4399810000000  0.4290610000000 1.0
END
