TITL C-3289332-8317-365 0.00231783489120853 125000 -776.449109929398 0 0 149 (C1) n - 1
REM
REM in /nfs/bkarasulu/CARBON/AIRSS/Generating-Clusters/AIREBO/with-SteepDescent/Higher-Symm/SD-CG/HFTN-CG
REM
REM
REM
REM
REM
REM ./C.cell (b20cbc046b6831c77cfcea5457e17084)
REM
REM compiler GCC version 9.2.1 20190827 (Red Hat 9.2.1-1)
REM options -cpp -mtune=generic -march=x86-64 -g -O0 -fpre-include=/usr/include/finclude/math-vector-fortran.h
REM seed -1775268398 -170055691 -1791382429 542165331 645582868 2012910579 1857680567 -706119064 -1401312099 177739559 1731626263 -211043852 -1271429222 -2127986767 658996358 1348909530 2031627633 1908565450 -70143275 1767189537 1116261050 1041227365 1829853855 -1242111745 -2113201655 -107172996 57531990 -123523793 -826769015 -1036908794 274502732 -1561199560 -427523111
REM
CELL 1.54180   50.00000   50.00000   50.00000   90.00000   90.00000   90.00000
LATT -1
SFAC C  
C      1  0.5058850000000  0.4823510000000  0.5955590000000 1.0
C      1  0.5937310000000  0.5147930000000  0.4724810000000 1.0
C      1  0.4756260000000  0.5936720000000  0.5153410000000 1.0
C      1  0.4847830000000  0.4713270000000  0.3935970000000 1.0
C      1  0.5086300000000  0.5205210000000  0.3904110000000 1.0
C      1  0.4658670000000  0.5181660000000  0.6065790000000 1.0
C      1  0.3988230000000  0.5118590000000  0.5208360000000 1.0
C      1  0.6053080000000  0.4877070000000  0.5154980000000 1.0
C      1  0.4054270000000  0.4881590000000  0.4748670000000 1.0
C      1  0.5223280000000  0.5956240000000  0.4982690000000 1.0
C      1  0.4735430000000  0.4071230000000  0.4913660000000 1.0
C      1  0.5212780000000  0.4050660000000  0.5143660000000 1.0
C      1  0.4059740000000  0.4577880000000  0.4586750000000 1.0
C      1  0.4612560000000  0.4233360000000  0.4633500000000 1.0
C      1  0.4685580000000  0.4558160000000  0.4219160000000 1.0
C      1  0.5988250000000  0.4600290000000  0.5355230000000 1.0
C      1  0.3907000000000  0.5346570000000  0.5447310000000 1.0
C      1  0.5920140000000  0.5454130000000  0.4577940000000 1.0
C      1  0.5325990000000  0.4211600000000  0.5428790000000 1.0
C      1  0.4616520000000  0.5785080000000  0.5425900000000 1.0
C      1  0.5383210000000  0.5772540000000  0.4589990000000 1.0
C      1  0.5317940000000  0.4680280000000  0.5776000000000 1.0
C      1  0.4650950000000  0.5341070000000  0.5842370000000 1.0
C      1  0.5372260000000  0.5366870000000  0.4007500000000 1.0
C      1  0.6144450000000  0.5468250000000  0.5098240000000 1.0
C      1  0.5188140000000  0.5827630000000  0.5460380000000 1.0
C      1  0.5517400000000  0.5231660000000  0.5928460000000 1.0
C      1  0.3990330000000  0.5482650000000  0.4999420000000 1.0
C      1  0.6067320000000  0.4544500000000  0.4857330000000 1.0
C      1  0.3879800000000  0.4561390000000  0.4982980000000 1.0
C      1  0.4880760000000  0.5875770000000  0.4627350000000 1.0
C      1  0.5148820000000  0.4172510000000  0.4601280000000 1.0
C      1  0.4827160000000  0.4142120000000  0.5447140000000 1.0
C      1  0.4559290000000  0.5104810000000  0.4027970000000 1.0
C      1  0.5403560000000  0.4837080000000  0.4042290000000 1.0
C      1  0.4518490000000  0.4758840000000  0.5892050000000 1.0
C      1  0.5150770000000  0.4495320000000  0.5053990000000 1.0
C      1  0.4927820000000  0.5146820000000  0.4367220000000 1.0
C      1  0.4419370000000  0.5108490000000  0.5131680000000 1.0
C      1  0.4876110000000  0.4498270000000  0.4990610000000 1.0
C      1  0.5139170000000  0.5510340000000  0.4956190000000 1.0
C      1  0.4854270000000  0.5586350000000  0.4943260000000 1.0
C      1  0.5049740000000  0.5144480000000  0.5580470000000 1.0
C      1  0.4872970000000  0.4902820000000  0.5579380000000 1.0
C      1  0.5088270000000  0.4865770000000  0.4402440000000 1.0
C      1  0.5547530000000  0.5174840000000  0.4808270000000 1.0
C      1  0.4426930000000  0.4831140000000  0.4935050000000 1.0
C      1  0.5624220000000  0.5008520000000  0.5094890000000 1.0
C      1  0.5705520000000  0.5032460000000  0.5852080000000 1.0
C      1  0.5968270000000  0.5542310000000  0.4884260000000 1.0
C      1  0.5023420000000  0.5763080000000  0.5681320000000 1.0
C      1  0.4383400000000  0.4895390000000  0.4035300000000 1.0
C      1  0.5588340000000  0.5039130000000  0.4029370000000 1.0
C      1  0.4279580000000  0.4959380000000  0.5754970000000 1.0
C      1  0.4089210000000  0.5501900000000  0.5254730000000 1.0
C      1  0.5990500000000  0.4414370000000  0.5082410000000 1.0
C      1  0.4083010000000  0.4383280000000  0.4931340000000 1.0
C      1  0.5103030000000  0.5862140000000  0.4460140000000 1.0
C      1  0.4977770000000  0.4164780000000  0.4372710000000 1.0
C      1  0.5006780000000  0.4133010000000  0.5652750000000 1.0
C      1  0.4749980000000  0.4925950000000  0.6029420000000 1.0
C      1  0.5942050000000  0.4839710000000  0.4839450000000 1.0
C      1  0.4933600000000  0.5975660000000  0.4877620000000 1.0
C      1  0.5142200000000  0.4883350000000  0.3921490000000 1.0
C      1  0.4807690000000  0.5034490000000  0.3899280000000 1.0
C      1  0.5269890000000  0.5053360000000  0.5906640000000 1.0
C      1  0.4014520000000  0.4840900000000  0.5074210000000 1.0
C      1  0.5982950000000  0.5177900000000  0.5047200000000 1.0
C      1  0.4038110000000  0.5185130000000  0.4875890000000 1.0
C      1  0.5079550000000  0.5949240000000  0.5244930000000 1.0
C      1  0.4896780000000  0.4036260000000  0.5199270000000 1.0
C      1  0.5061480000000  0.4072090000000  0.4846580000000 1.0
C      1  0.5293510000000  0.4760040000000  0.4982040000000 1.0
C      1  0.4822060000000  0.5263140000000  0.4633360000000 1.0
C      1  0.4647010000000  0.4933480000000  0.5251260000000 1.0
C      1  0.4881390000000  0.4800730000000  0.5064810000000 1.0
C      1  0.5155060000000  0.5218730000000  0.5047050000000 1.0
C      1  0.4681600000000  0.5324260000000  0.4925740000000 1.0
C      1  0.5187450000000  0.5334430000000  0.5353660000000 1.0
C      1  0.4825420000000  0.4663260000000  0.5355860000000 1.0
C      1  0.5193710000000  0.4686010000000  0.4669790000000 1.0
C      1  0.5303020000000  0.5000350000000  0.4747420000000 1.0
C      1  0.4665930000000  0.5016180000000  0.4811900000000 1.0
C      1  0.5346780000000  0.5053290000000  0.5247790000000 1.0
C      1  0.5706390000000  0.4450780000000  0.5239460000000 1.0
C      1  0.5236050000000  0.5581790000000  0.4387210000000 1.0
C      1  0.4460930000000  0.5277210000000  0.5576930000000 1.0
C      1  0.4330430000000  0.4548840000000  0.4790510000000 1.0
C      1  0.5650160000000  0.5468910000000  0.4789280000000 1.0
C      1  0.4385960000000  0.5415370000000  0.5274580000000 1.0
C      1  0.4767460000000  0.5611530000000  0.5577080000000 1.0
C      1  0.5194820000000  0.4399440000000  0.5659430000000 1.0
C      1  0.4725000000000  0.4294940000000  0.4390740000000 1.0
C      1  0.5540060000000  0.5248840000000  0.4257210000000 1.0
C      1  0.4423910000000  0.4716480000000  0.4241360000000 1.0
C      1  0.5583110000000  0.4805640000000  0.5630270000000 1.0
C      1  0.4707280000000  0.5598380000000  0.4636840000000 1.0
C      1  0.4602130000000  0.4988020000000  0.5662980000000 1.0
C      1  0.5613580000000  0.4755990000000  0.4867020000000 1.0
C      1  0.5360340000000  0.5575330000000  0.5434730000000 1.0
C      1  0.4676900000000  0.4405340000000  0.5439610000000 1.0
C      1  0.5334910000000  0.4411620000000  0.4605830000000 1.0
C      1  0.5396330000000  0.4737330000000  0.4330870000000 1.0
C      1  0.4603830000000  0.5231150000000  0.4303810000000 1.0
C      1  0.5382750000000  0.5076020000000  0.5586560000000 1.0
C      1  0.4268100000000  0.4656580000000  0.5180310000000 1.0
C      1  0.5719490000000  0.5316710000000  0.5202670000000 1.0
C      1  0.4357870000000  0.5268370000000  0.4837740000000 1.0
C      1  0.4083930000000  0.5106260000000  0.4375630000000 1.0
C      1  0.4184590000000  0.4235290000000  0.5138410000000 1.0
C      1  0.5207740000000  0.4444770000000  0.4134620000000 1.0
C      1  0.5889520000000  0.5132370000000  0.5512670000000 1.0
C      1  0.4065740000000  0.4771720000000  0.5616320000000 1.0
C      1  0.5880770000000  0.4677190000000  0.4438860000000 1.0
C      1  0.5639160000000  0.4113050000000  0.4926670000000 1.0
C      1  0.4328440000000  0.5878110000000  0.4974100000000 1.0
C      1  0.5663650000000  0.5882390000000  0.5088590000000 1.0
C      1  0.4654450000000  0.4253030000000  0.5987940000000 1.0
C      1  0.5178720000000  0.5575380000000  0.5864970000000 1.0
C      1  0.4838030000000  0.5587020000000  0.4118370000000 1.0
C      1  0.4603120000000  0.5552790000000  0.4326050000000 1.0
C      1  0.4184030000000  0.4569430000000  0.5476230000000 1.0
C      1  0.5555420000000  0.4423070000000  0.4825290000000 1.0
C      1  0.5485040000000  0.5516620000000  0.5745730000000 1.0
C      1  0.4621880000000  0.4477200000000  0.5767390000000 1.0
C      1  0.5457420000000  0.4418350000000  0.4324200000000 1.0
C      1  0.5621820000000  0.4829050000000  0.4534890000000 1.0
C      1  0.4388170000000  0.5144680000000  0.4522450000000 1.0
C      1  0.5634200000000  0.5298340000000  0.5531920000000 1.0
C      1  0.4451840000000  0.4378730000000  0.5248570000000 1.0
C      1  0.5562030000000  0.5589160000000  0.5206550000000 1.0
C      1  0.4417180000000  0.5602340000000  0.4814160000000 1.0
C      1  0.4945050000000  0.5381660000000  0.5753860000000 1.0
C      1  0.5783740000000  0.4871910000000  0.5362540000000 1.0
C      1  0.5424050000000  0.5690840000000  0.4912720000000 1.0
C      1  0.5085870000000  0.5390180000000  0.4189510000000 1.0
C      1  0.5004620000000  0.4634380000000  0.4202230000000 1.0
C      1  0.4934960000000  0.4605710000000  0.5733760000000 1.0
C      1  0.4275320000000  0.4824880000000  0.4496450000000 1.0
C      1  0.5683820000000  0.5144660000000  0.4498230000000 1.0
C      1  0.4159530000000  0.5143200000000  0.5502180000000 1.0
C      1  0.4566460000000  0.5657050000000  0.5114830000000 1.0
C      1  0.5426310000000  0.4314330000000  0.5120530000000 1.0
C      1  0.4577020000000  0.4370790000000  0.4942530000000 1.0
C      1  0.5691650000000  0.4251570000000  0.4246730000000 1.0
C      1  0.4324050000000  0.4391950000000  0.5627130000000 1.0
C      1  0.4347440000000  0.5699740000000  0.4256520000000 1.0
C      1  0.5666550000000  0.5724080000000  0.5832510000000 1.0
C      1  0.4998750000000  0.5009620000000  0.4881360000000 1.0
END
