TITL C-3289329-2751-305 1.50106539133828e-07 125000 -19.0187538188895 0 0 4 (D(inf)h) n - 1
REM
REM in /nfs/bkarasulu/CARBON/AIRSS/Generating-Clusters/AIREBO/with-SteepDescent/Higher-Symm/SD-CG/HFTN-CG
REM
REM
REM
REM
REM
REM ./C.cell (b20cbc046b6831c77cfcea5457e17084)
REM
REM compiler GCC version 9.2.1 20190827 (Red Hat 9.2.1-1)
REM options -cpp -mtune=generic -march=x86-64 -g -O0 -fpre-include=/usr/include/finclude/math-vector-fortran.h
REM seed 1022492972 -262749305 778191055 -1372332930 1059177852 -290638716 -1901973502 1094960993 1229026166 -1153720577 -1970221960 2025139749 -509668936 -1548089040 1335727685 1452780691 -1636674043 -1098353789 -16829888 599425605 573847298 1422593747 1577847377 1912372042 718675132 -1612233644 -97580083 -1959599845 2132318518 536649330 -135414974 1041291515 1421618894
REM
CELL 1.54180   50.00000   50.00000   50.00000   90.00000   90.00000   90.00000
LATT -1
SFAC C  
C      1  0.5032070000000  0.4537880000000  0.4972930000000 1.0
C      1  0.5032070000000  0.5328340000000  0.4972930000000 1.0
C      1  0.5032070000000  0.4799960000000  0.4972930000000 1.0
C      1  0.5032070000000  0.5066270000000  0.4972930000000 1.0
END
