TITL C-3289321-8710-254 -0.000177180515891703 125000 -163.685029519329 0 0 32 (Ci) n - 1
REM
REM in /nfs/bkarasulu/CARBON/AIRSS/Generating-Clusters/AIREBO/with-SteepDescent/Higher-Symm/SD-CG/HFTN-CG
REM
REM
REM
REM
REM
REM ./C.cell (b20cbc046b6831c77cfcea5457e17084)
REM
REM compiler GCC version 9.2.1 20190827 (Red Hat 9.2.1-1)
REM options -cpp -mtune=generic -march=x86-64 -g -O0 -fpre-include=/usr/include/finclude/math-vector-fortran.h
REM seed -197730943 905024973 -971947181 -2114145926 1632677042 -1894086001 -1415498755 467562253 -431614288 2037663332 1410802464 -1650440107 1182424422 578784984 1133737233 337542204 -370257313 1491654876 669687137 -1587591172 -868944505 -595916651 -1806606503 -212396500 -25707206 2089092622 1493131047 -2103271879 -1287899891 -541154371 2054712140 -1684133068 1502668215
REM
CELL 1.54180   50.00000   50.00000   50.00000   90.00000   90.00000   90.00000
LATT -1
SFAC C  
C      1  0.4828810000000  0.5215850000000  0.4877750000000 1.0
C      1  0.4871000000000  0.4800060000000  0.4458240000000 1.0
C      1  0.4844600000000  0.4724360000000  0.5131880000000 1.0
C      1  0.4819610000000  0.5203720000000  0.5479300000000 1.0
C      1  0.5155400000000  0.5275640000000  0.4868120000000 1.0
C      1  0.5180390000000  0.4796280000000  0.4520700000000 1.0
C      1  0.5171190000000  0.4784150000000  0.5122250000000 1.0
C      1  0.5129000000000  0.5199940000000  0.5541760000000 1.0
C      1  0.4778800000000  0.4499870000000  0.4378980000000 1.0
C      1  0.4808490000000  0.4473890000000  0.5366780000000 1.0
C      1  0.4888160000000  0.5510420000000  0.5602230000000 1.0
C      1  0.4876290000000  0.5466560000000  0.4656250000000 1.0
C      1  0.5111840000000  0.4489580000000  0.4397770000000 1.0
C      1  0.5123710000000  0.4533440000000  0.5343750000000 1.0
C      1  0.5221200000000  0.5500130000000  0.5621020000000 1.0
C      1  0.5191510000000  0.5526110000000  0.4633220000000 1.0
C      1  0.5270550000000  0.4743150000000  0.4844840000000 1.0
C      1  0.5282340000000  0.5035580000000  0.5303720000000 1.0
C      1  0.5257350000000  0.5307150000000  0.5147570000000 1.0
C      1  0.5314170000000  0.5041680000000  0.4682400000000 1.0
C      1  0.4742650000000  0.4692850000000  0.4852430000000 1.0
C      1  0.4685830000000  0.4958320000000  0.5317600000000 1.0
C      1  0.4729450000000  0.5256850000000  0.5155160000000 1.0
C      1  0.4717660000000  0.4964420000000  0.4696280000000 1.0
C      1  0.5156220000000  0.4456780000000  0.4724010000000 1.0
C      1  0.5159180000000  0.4807090000000  0.5519040000000 1.0
C      1  0.5150290000000  0.5518310000000  0.5302270000000 1.0
C      1  0.5146140000000  0.5240670000000  0.4473250000000 1.0
C      1  0.4849710000000  0.4481690000000  0.4697730000000 1.0
C      1  0.4853860000000  0.4759330000000  0.5526750000000 1.0
C      1  0.4843780000000  0.5543220000000  0.5275990000000 1.0
C      1  0.4840820000000  0.5192910000000  0.4480960000000 1.0
END
