TITL C-3289331-6719-547 -0.00445745666741518 125000 -413.833400092799 0 0 80 (C1) n - 1
REM
REM in /nfs/bkarasulu/CARBON/AIRSS/Generating-Clusters/AIREBO/with-SteepDescent/Higher-Symm/SD-CG/HFTN-CG
REM
REM
REM
REM
REM
REM ./C.cell (b20cbc046b6831c77cfcea5457e17084)
REM
REM compiler GCC version 9.2.1 20190827 (Red Hat 9.2.1-1)
REM options -cpp -mtune=generic -march=x86-64 -g -O0 -fpre-include=/usr/include/finclude/math-vector-fortran.h
REM seed 1550906615 -369048357 1279426603 624387923 540095942 -1947739635 -839397001 344177462 -498053018 -2138628639 360561578 -1431690973 -1951581562 -1665005466 1300242176 -508198408 1557342480 1076524244 -2029520477 -534885473 -1966907647 1897465645 1621169131 -396717962 901666065 -1729455957 -348827421 -915345650 -436578005 -1053247741 -277022075 697895302 -331793592
REM
CELL 1.54180   50.00000   50.00000   50.00000   90.00000   90.00000   90.00000
LATT -1
SFAC C  
C      1  0.5558600000000  0.4695140000000  0.5109900000000 1.0
C      1  0.5214040000000  0.4886690000000  0.5591300000000 1.0
C      1  0.4579530000000  0.4831600000000  0.5496730000000 1.0
C      1  0.4359980000000  0.4772030000000  0.4894450000000 1.0
C      1  0.4803870000000  0.4815600000000  0.4428760000000 1.0
C      1  0.5387120000000  0.4706160000000  0.4578040000000 1.0
C      1  0.5628170000000  0.5317440000000  0.5050140000000 1.0
C      1  0.5184270000000  0.5207960000000  0.5630550000000 1.0
C      1  0.4628460000000  0.5167960000000  0.5511880000000 1.0
C      1  0.4358310000000  0.5249250000000  0.4903280000000 1.0
C      1  0.4794320000000  0.5155280000000  0.4408360000000 1.0
C      1  0.5407700000000  0.5262630000000  0.4530380000000 1.0
C      1  0.4290260000000  0.5286460000000  0.4628940000000 1.0
C      1  0.4965770000000  0.5269250000000  0.4141620000000 1.0
C      1  0.5711670000000  0.5252290000000  0.4601080000000 1.0
C      1  0.5734690000000  0.5352640000000  0.5334700000000 1.0
C      1  0.5031160000000  0.5264520000000  0.5862100000000 1.0
C      1  0.4326150000000  0.5253640000000  0.5481440000000 1.0
C      1  0.4264200000000  0.4754820000000  0.4621850000000 1.0
C      1  0.5008740000000  0.4738930000000  0.4223370000000 1.0
C      1  0.5669650000000  0.4713720000000  0.4609410000000 1.0
C      1  0.5694680000000  0.4737210000000  0.5352210000000 1.0
C      1  0.5060440000000  0.4730500000000  0.5782280000000 1.0
C      1  0.4305380000000  0.4729210000000  0.5461760000000 1.0
C      1  0.4869860000000  0.4750150000000  0.4759730000000 1.0
C      1  0.5189700000000  0.4751670000000  0.4807470000000 1.0
C      1  0.5308730000000  0.4874660000000  0.5061990000000 1.0
C      1  0.5096360000000  0.4833380000000  0.5299550000000 1.0
C      1  0.4794410000000  0.4749210000000  0.5248720000000 1.0
C      1  0.4674230000000  0.4849340000000  0.4984830000000 1.0
C      1  0.4851770000000  0.5219790000000  0.4737230000000 1.0
C      1  0.5172760000000  0.5303440000000  0.4779350000000 1.0
C      1  0.5338500000000  0.5187680000000  0.5041020000000 1.0
C      1  0.5138300000000  0.5148080000000  0.5299000000000 1.0
C      1  0.4824300000000  0.5270000000000  0.5252420000000 1.0
C      1  0.4672390000000  0.5144600000000  0.4980790000000 1.0
C      1  0.4756440000000  0.5489160000000  0.4461470000000 1.0
C      1  0.5321980000000  0.5556130000000  0.4379980000000 1.0
C      1  0.5446400000000  0.5575510000000  0.4965640000000 1.0
C      1  0.5274410000000  0.5496270000000  0.5474450000000 1.0
C      1  0.4658950000000  0.5519720000000  0.5613400000000 1.0
C      1  0.4473080000000  0.5525800000000  0.5064620000000 1.0
C      1  0.4699210000000  0.4500030000000  0.4500570000000 1.0
C      1  0.5277880000000  0.4454670000000  0.4393240000000 1.0
C      1  0.5499770000000  0.4395020000000  0.4961270000000 1.0
C      1  0.5389310000000  0.4509640000000  0.5473010000000 1.0
C      1  0.4698240000000  0.4472180000000  0.5491760000000 1.0
C      1  0.4389210000000  0.4457200000000  0.5019600000000 1.0
C      1  0.4753360000000  0.5272180000000  0.5810560000000 1.0
C      1  0.4241680000000  0.5298990000000  0.5218780000000 1.0
C      1  0.4479120000000  0.5282080000000  0.4422720000000 1.0
C      1  0.5229710000000  0.5315410000000  0.4178940000000 1.0
C      1  0.5786340000000  0.5169840000000  0.4847120000000 1.0
C      1  0.5552470000000  0.5327680000000  0.5535890000000 1.0
C      1  0.4779310000000  0.4695100000000  0.5735830000000 1.0
C      1  0.4221610000000  0.4702690000000  0.5197270000000 1.0
C      1  0.4448800000000  0.4715110000000  0.4418960000000 1.0
C      1  0.5296790000000  0.4802210000000  0.4296430000000 1.0
C      1  0.5767420000000  0.4590030000000  0.4880900000000 1.0
C      1  0.5517520000000  0.4799060000000  0.5598190000000 1.0
C      1  0.4966420000000  0.4457890000000  0.5283240000000 1.0
C      1  0.4670640000000  0.4378950000000  0.5164580000000 1.0
C      1  0.4681930000000  0.4478100000000  0.4839470000000 1.0
C      1  0.5005490000000  0.4415570000000  0.4593660000000 1.0
C      1  0.5315070000000  0.4297460000000  0.4692480000000 1.0
C      1  0.5268680000000  0.4406800000000  0.5212310000000 1.0
C      1  0.4943040000000  0.5536430000000  0.5427300000000 1.0
C      1  0.4642960000000  0.5624320000000  0.5290280000000 1.0
C      1  0.4651510000000  0.5491800000000  0.4784910000000 1.0
C      1  0.5049300000000  0.5552200000000  0.4583040000000 1.0
C      1  0.5354900000000  0.5650510000000  0.4705010000000 1.0
C      1  0.5239920000000  0.5576300000000  0.5163020000000 1.0
C      1  0.5863980000000  0.4915590000000  0.4892880000000 1.0
C      1  0.5384870000000  0.5071720000000  0.4250290000000 1.0
C      1  0.4156710000000  0.5008530000000  0.5063500000000 1.0
C      1  0.4526470000000  0.4985330000000  0.4263380000000 1.0
C      1  0.5564480000000  0.5106120000000  0.5698850000000 1.0
C      1  0.4604600000000  0.4977690000000  0.5810020000000 1.0
C      1  0.5010860000000  0.5455590000000  0.5036950000000 1.0
C      1  0.5111650000000  0.4455890000000  0.4914130000000 1.0
END
