TITL C-3289330-4660-280 -0.00100243790438886 125000 -296.629998428525 0 0 48 (C1) n - 1
REM
REM in /nfs/bkarasulu/CARBON/AIRSS/Generating-Clusters/AIREBO/with-SteepDescent/Higher-Symm/SD-CG/HFTN-CG
REM
REM
REM
REM
REM
REM ./C.cell (b20cbc046b6831c77cfcea5457e17084)
REM
REM compiler GCC version 9.2.1 20190827 (Red Hat 9.2.1-1)
REM options -cpp -mtune=generic -march=x86-64 -g -O0 -fpre-include=/usr/include/finclude/math-vector-fortran.h
REM seed -1398977438 1899758649 -2096407298 -1771786850 -1418239062 10477566 -569763125 -1076646964 -1392676476 1588602682 -1543190162 157219163 -1503965941 1677185661 1398792223 1707489088 1787947542 -735691534 -1049490335 -1223555537 -691364334 -173088952 -293736873 323803922 -599355184 -961293463 -771271829 1616067765 -7618900 -2945368 -1053560145 1749884893 -2074772672
REM
CELL 1.54180   50.00000   50.00000   50.00000   90.00000   90.00000   90.00000
LATT -1
SFAC C  
C      1  0.4903380000000  0.4678330000000  0.5479630000000 1.0
C      1  0.5447810000000  0.4965670000000  0.4680880000000 1.0
C      1  0.4847820000000  0.5405630000000  0.4943870000000 1.0
C      1  0.4926310000000  0.5154660000000  0.4549990000000 1.0
C      1  0.5032760000000  0.5127490000000  0.5350030000000 1.0
C      1  0.5038880000000  0.4701470000000  0.4560330000000 1.0
C      1  0.5510830000000  0.5039780000000  0.5174190000000 1.0
C      1  0.4555430000000  0.5062640000000  0.4826670000000 1.0
C      1  0.4572600000000  0.4958990000000  0.5290480000000 1.0
C      1  0.4785640000000  0.4565510000000  0.4990370000000 1.0
C      1  0.5291080000000  0.4630350000000  0.4964920000000 1.0
C      1  0.5284970000000  0.5509130000000  0.5133740000000 1.0
C      1  0.4967960000000  0.5392360000000  0.4695250000000 1.0
C      1  0.5437700000000  0.4864360000000  0.4931180000000 1.0
C      1  0.4831340000000  0.4938670000000  0.5400210000000 1.0
C      1  0.4865810000000  0.4462860000000  0.5265660000000 1.0
C      1  0.5002340000000  0.5412250000000  0.5219080000000 1.0
C      1  0.5048470000000  0.4623670000000  0.4829950000000 1.0
C      1  0.5532890000000  0.5327660000000  0.5090600000000 1.0
C      1  0.4550750000000  0.4814220000000  0.5016520000000 1.0
C      1  0.4584300000000  0.5309710000000  0.4950760000000 1.0
C      1  0.4674960000000  0.5032960000000  0.4572660000000 1.0
C      1  0.5179930000000  0.4976370000000  0.4493230000000 1.0
C      1  0.5288830000000  0.5044170000000  0.5405810000000 1.0
C      1  0.4422700000000  0.4583540000000  0.4826170000000 1.0
C      1  0.4725790000000  0.4343710000000  0.4529710000000 1.0
C      1  0.4593010000000  0.4795610000000  0.4437690000000 1.0
C      1  0.4442150000000  0.5399980000000  0.5177830000000 1.0
C      1  0.5633290000000  0.5400210000000  0.4806280000000 1.0
C      1  0.5622230000000  0.4541590000000  0.5290300000000 1.0
C      1  0.4811890000000  0.5576630000000  0.5410590000000 1.0
C      1  0.5185740000000  0.5554380000000  0.4623870000000 1.0
C      1  0.5165740000000  0.4404590000000  0.5362860000000 1.0
C      1  0.4509630000000  0.5285980000000  0.5641310000000 1.0
C      1  0.5397470000000  0.5214390000000  0.4377670000000 1.0
C      1  0.5364300000000  0.4827070000000  0.5601830000000 1.0
C      1  0.4356840000000  0.4686270000000  0.4564480000000 1.0
C      1  0.4808350000000  0.4602490000000  0.4427930000000 1.0
C      1  0.4619530000000  0.4358900000000  0.4796650000000 1.0
C      1  0.4435750000000  0.5191200000000  0.5377810000000 1.0
C      1  0.5604740000000  0.4804400000000  0.5401270000000 1.0
C      1  0.5620370000000  0.5197280000000  0.4603460000000 1.0
C      1  0.4738980000000  0.5450710000000  0.5658720000000 1.0
C      1  0.5173780000000  0.4613540000000  0.5612730000000 1.0
C      1  0.5292420000000  0.5479650000000  0.4369420000000 1.0
C      1  0.4564820000000  0.5643040000000  0.5275180000000 1.0
C      1  0.5373280000000  0.4459110000000  0.5174220000000 1.0
C      1  0.5374380000000  0.5586810000000  0.4836050000000 1.0
END
