TITL C-3289333-7213-406 -0.000608250321935109 125000 -140.422959488715 0 0 25 (C1) n - 1
REM
REM in /nfs/bkarasulu/CARBON/AIRSS/Generating-Clusters/AIREBO/with-SteepDescent/Higher-Symm/SD-CG/HFTN-CG
REM
REM
REM
REM
REM
REM ./C.cell (b20cbc046b6831c77cfcea5457e17084)
REM
REM compiler GCC version 9.2.1 20190827 (Red Hat 9.2.1-1)
REM options -cpp -mtune=generic -march=x86-64 -g -O0 -fpre-include=/usr/include/finclude/math-vector-fortran.h
REM seed -238287952 1823770299 1798294094 1868284240 1929904012 -1915511975 990898659 -617083442 22275801 2006603615 1962534465 -1727114367 -1219872559 -1121897413 -878053319 -1375968986 1597140782 1665874901 795588110 -1527862302 252151705 -648762551 948668679 1548743398 -779478072 1202988184 1383030459 -1066644168 -795139275 421740433 448148410 -864335230 -650334577
REM
CELL 1.54180   50.00000   50.00000   50.00000   90.00000   90.00000   90.00000
LATT -1
SFAC C  
C      1  0.5227930000000  0.5414160000000  0.5174050000000 1.0
C      1  0.5049750000000  0.5395390000000  0.4718280000000 1.0
C      1  0.4748910000000  0.5404160000000  0.5098350000000 1.0
C      1  0.4973150000000  0.4953340000000  0.4816240000000 1.0
C      1  0.4812140000000  0.4973370000000  0.5099160000000 1.0
C      1  0.5366130000000  0.5040230000000  0.5153340000000 1.0
C      1  0.4465740000000  0.5343370000000  0.5181040000000 1.0
C      1  0.5435300000000  0.5296720000000  0.5365710000000 1.0
C      1  0.5130300000000  0.5251480000000  0.4459150000000 1.0
C      1  0.5458390000000  0.5072890000000  0.4835230000000 1.0
C      1  0.4627710000000  0.5042890000000  0.4751830000000 1.0
C      1  0.4987470000000  0.5041120000000  0.5384820000000 1.0
C      1  0.5384770000000  0.4765800000000  0.4962860000000 1.0
C      1  0.4763060000000  0.4734490000000  0.4704750000000 1.0
C      1  0.4872480000000  0.4734090000000  0.5318720000000 1.0
C      1  0.4514700000000  0.5082350000000  0.5063710000000 1.0
C      1  0.5300620000000  0.5017360000000  0.5483470000000 1.0
C      1  0.5197330000000  0.5031940000000  0.4649620000000 1.0
C      1  0.4905120000000  0.4483320000000  0.5234280000000 1.0
C      1  0.5284720000000  0.4522280000000  0.4946110000000 1.0
C      1  0.4831990000000  0.4479800000000  0.4758480000000 1.0
C      1  0.5270640000000  0.5351170000000  0.4900840000000 1.0
C      1  0.4794730000000  0.5327180000000  0.4825820000000 1.0
C      1  0.4966540000000  0.5339630000000  0.5265100000000 1.0
C      1  0.5014130000000  0.4434850000000  0.4975530000000 1.0
END
