TITL C-3289329-2751-664 0.000380536444312058 125000 -359.245483361158 0 0 65 (C2) n - 1
REM
REM in /nfs/bkarasulu/CARBON/AIRSS/Generating-Clusters/AIREBO/with-SteepDescent/Higher-Symm/SD-CG/HFTN-CG
REM
REM
REM
REM
REM
REM ./C.cell (b20cbc046b6831c77cfcea5457e17084)
REM
REM compiler GCC version 9.2.1 20190827 (Red Hat 9.2.1-1)
REM options -cpp -mtune=generic -march=x86-64 -g -O0 -fpre-include=/usr/include/finclude/math-vector-fortran.h
REM seed 1222850105 1724745775 310048787 -1474211310 -1518206267 2012069636 174851775 239383319 -78400176 -747035645 -1058352725 568979648 1606369092 953805295 1724316612 -1904273202 -205545280 -1410805472 -1540521263 -1687275258 1144927917 605889535 1108939250 -1395672349 866403885 1790058912 -1350386891 1106982439 -1182150653 740940240 1947164133 198665409 1757708256
REM
CELL 1.54180   50.00000   50.00000   50.00000   90.00000   90.00000   90.00000
LATT -1
SFAC C  
C      1  0.5076700000000  0.5112140000000  0.5458170000000 1.0
C      1  0.5425670000000  0.5165390000000  0.5061890000000 1.0
C      1  0.5129920000000  0.5290830000000  0.5173750000000 1.0
C      1  0.5076490000000  0.4902650000000  0.4537130000000 1.0
C      1  0.4793760000000  0.4966060000000  0.5408450000000 1.0
C      1  0.4793610000000  0.5048810000000  0.4586970000000 1.0
C      1  0.5425600000000  0.4849310000000  0.4933270000000 1.0
C      1  0.4681970000000  0.4869880000000  0.5101710000000 1.0
C      1  0.4681970000000  0.5145020000000  0.4893760000000 1.0
C      1  0.5129770000000  0.4723950000000  0.4821530000000 1.0
C      1  0.4928910000000  0.4636610000000  0.5081710000000 1.0
C      1  0.4928980000000  0.5378220000000  0.4913650000000 1.0
C      1  0.4509420000000  0.4643290000000  0.4915720000000 1.0
C      1  0.4949020000000  0.4502670000000  0.4636840000000 1.0
C      1  0.4614900000000  0.4822700000000  0.4481660000000 1.0
C      1  0.4509550000000  0.5371660000000  0.5079820000000 1.0
C      1  0.5501730000000  0.5343360000000  0.4822480000000 1.0
C      1  0.5501700000000  0.4671320000000  0.5172650000000 1.0
C      1  0.4949300000000  0.5512150000000  0.5358520000000 1.0
C      1  0.5060010000000  0.5510470000000  0.4629120000000 1.0
C      1  0.5060020000000  0.4504320000000  0.5366190000000 1.0
C      1  0.4615160000000  0.5192220000000  0.5513830000000 1.0
C      1  0.5349310000000  0.5041760000000  0.4425960000000 1.0
C      1  0.5349530000000  0.4972950000000  0.5569230000000 1.0
C      1  0.4406640000000  0.5212210000000  0.5317890000000 1.0
C      1  0.5322950000000  0.4441180000000  0.5201610000000 1.0
C      1  0.5172520000000  0.5301250000000  0.4385060000000 1.0
C      1  0.4406460000000  0.4802770000000  0.4677680000000 1.0
C      1  0.5591730000000  0.4826620000000  0.5380700000000 1.0
C      1  0.5591620000000  0.5188030000000  0.4614400000000 1.0
C      1  0.5323030000000  0.5573540000000  0.4793600000000 1.0
C      1  0.4732070000000  0.5601440000000  0.5180680000000 1.0
C      1  0.4731830000000  0.4413450000000  0.4814760000000 1.0
C      1  0.5172680000000  0.4713520000000  0.5610210000000 1.0
C      1  0.4790260000000  0.4630060000000  0.4388000000000 1.0
C      1  0.4790610000000  0.5384810000000  0.5607420000000 1.0
C      1  0.4828970000000  0.5703090000000  0.4902820000000 1.0
C      1  0.4873510000000  0.4752420000000  0.5613230000000 1.0
C      1  0.5611930000000  0.4898550000000  0.4687900000000 1.0
C      1  0.4828820000000  0.4311780000000  0.5092580000000 1.0
C      1  0.5303740000000  0.4445050000000  0.4908910000000 1.0
C      1  0.5303930000000  0.5569680000000  0.5086300000000 1.0
C      1  0.4873340000000  0.5262430000000  0.4382160000000 1.0
C      1  0.5043990000000  0.5276790000000  0.5753950000000 1.0
C      1  0.5043610000000  0.4738010000000  0.4241370000000 1.0
C      1  0.5612080000000  0.5116090000000  0.5307190000000 1.0
C      1  0.4386530000000  0.5089530000000  0.4734700000000 1.0
C      1  0.4386610000000  0.4925460000000  0.5260880000000 1.0
C      1  0.5540220000000  0.5259530000000  0.5558500000000 1.0
C      1  0.5472790000000  0.5655340000000  0.5295150000000 1.0
C      1  0.5161390000000  0.5530200000000  0.5617190000000 1.0
C      1  0.5539930000000  0.4755130000000  0.4436620000000 1.0
C      1  0.4327630000000  0.4708640000000  0.5434870000000 1.0
C      1  0.4327540000000  0.5306360000000  0.4560740000000 1.0
C      1  0.5472490000000  0.4359340000000  0.4699990000000 1.0
C      1  0.4532020000000  0.4398670000000  0.5152610000000 1.0
C      1  0.4532130000000  0.5616270000000  0.4842910000000 1.0
C      1  0.5161000000000  0.4484570000000  0.4378090000000 1.0
C      1  0.4759910000000  0.4489750000000  0.5542370000000 1.0
C      1  0.4759840000000  0.5525140000000  0.4453060000000 1.0
C      1  0.4506780000000  0.4487340000000  0.5416240000000 1.0
C      1  0.5430210000000  0.4497180000000  0.4454790000000 1.0
C      1  0.4506760000000  0.5527610000000  0.4579290000000 1.0
C      1  0.5430570000000  0.5517510000000  0.5540380000000 1.0
C      1  0.5063880000000  0.5007400000000  0.4997660000000 1.0
END
