TITL C-3289323-3850-609 -0.00387642390163 125000 -847.297076613415 0 0 146 (C1) n - 1
REM
REM in /nfs/bkarasulu/CARBON/AIRSS/Generating-Clusters/AIREBO/with-SteepDescent/Higher-Symm/SD-CG/HFTN-CG
REM
REM
REM
REM
REM
REM ./C.cell (b20cbc046b6831c77cfcea5457e17084)
REM
REM compiler GCC version 9.2.1 20190827 (Red Hat 9.2.1-1)
REM options -cpp -mtune=generic -march=x86-64 -g -O0 -fpre-include=/usr/include/finclude/math-vector-fortran.h
REM seed 1649179890 1284732497 -149283313 244133671 551507293 1675536999 1422811334 1656462014 -746662596 -852260879 714027038 -1515475941 -1466508103 -567984481 1523724233 976740759 -1131899597 1083218489 -565090142 -244429181 1812963979 62001907 -157382488 1397291880 614738074 -79681646 1829557988 1606239293 1264971121 -721996425 -1698288128 -66684897 -508302659
REM
CELL 1.54180   50.00000   50.00000   50.00000   90.00000   90.00000   90.00000
LATT -1
SFAC C  
C      1  0.4505970000000  0.4596310000000  0.5450550000000 1.0
C      1  0.5681190000000  0.4568260000000  0.5148190000000 1.0
C      1  0.4867490000000  0.4579970000000  0.4372800000000 1.0
C      1  0.4495840000000  0.5370460000000  0.4522610000000 1.0
C      1  0.5687140000000  0.5473090000000  0.4893750000000 1.0
C      1  0.4838630000000  0.5426240000000  0.5680530000000 1.0
C      1  0.5419400000000  0.5615570000000  0.4444150000000 1.0
C      1  0.4269570000000  0.5497680000000  0.4752530000000 1.0
C      1  0.5115810000000  0.5591150000000  0.5601500000000 1.0
C      1  0.5494940000000  0.4465480000000  0.5413480000000 1.0
C      1  0.4364170000000  0.4460580000000  0.5179370000000 1.0
C      1  0.5145180000000  0.4418020000000  0.4406890000000 1.0
C      1  0.5410510000000  0.5829960000000  0.5177710000000 1.0
C      1  0.4906460000000  0.5748690000000  0.4673140000000 1.0
C      1  0.4723850000000  0.5646920000000  0.5220540000000 1.0
C      1  0.5431560000000  0.4187100000000  0.4795140000000 1.0
C      1  0.4952640000000  0.4230510000000  0.5351750000000 1.0
C      1  0.4651690000000  0.4243070000000  0.4711920000000 1.0
C      1  0.4576110000000  0.4197910000000  0.4969720000000 1.0
C      1  0.5229600000000  0.4200950000000  0.5302890000000 1.0
C      1  0.5245060000000  0.4033620000000  0.4667880000000 1.0
C      1  0.4535160000000  0.5639940000000  0.5014220000000 1.0
C      1  0.5165460000000  0.5812830000000  0.4674070000000 1.0
C      1  0.5249870000000  0.5963770000000  0.5339660000000 1.0
C      1  0.5728490000000  0.4964970000000  0.5242610000000 1.0
C      1  0.4806380000000  0.4999040000000  0.4352760000000 1.0
C      1  0.4530740000000  0.5022630000000  0.5346380000000 1.0
C      1  0.5730880000000  0.5015830000000  0.4825600000000 1.0
C      1  0.4746830000000  0.5044930000000  0.5607500000000 1.0
C      1  0.4470040000000  0.4994120000000  0.4644810000000 1.0
C      1  0.4322840000000  0.4870220000000  0.4879730000000 1.0
C      1  0.5042560000000  0.5072070000000  0.5667830000000 1.0
C      1  0.5524190000000  0.5046850000000  0.4576420000000 1.0
C      1  0.4339170000000  0.5081220000000  0.5109190000000 1.0
C      1  0.5114550000000  0.4958240000000  0.4279470000000 1.0
C      1  0.5588930000000  0.4840650000000  0.5508620000000 1.0
C      1  0.3926120000000  0.5007880000000  0.4904980000000 1.0
C      1  0.5433030000000  0.4854880000000  0.5910700000000 1.0
C      1  0.5647560000000  0.4858510000000  0.4154510000000 1.0
C      1  0.3963160000000  0.5209260000000  0.5076190000000 1.0
C      1  0.5432340000000  0.5091570000000  0.4076570000000 1.0
C      1  0.5552700000000  0.5093780000000  0.5812860000000 1.0
C      1  0.6221880000000  0.4955740000000  0.5165930000000 1.0
C      1  0.4595990000000  0.5054510000000  0.4019430000000 1.0
C      1  0.4393440000000  0.5078130000000  0.5788330000000 1.0
C      1  0.6108790000000  0.4939190000000  0.4914090000000 1.0
C      1  0.4601660000000  0.4949590000000  0.5965810000000 1.0
C      1  0.4341640000000  0.4910890000000  0.4193820000000 1.0
C      1  0.5052220000000  0.5459900000000  0.4069570000000 1.0
C      1  0.4151740000000  0.5474590000000  0.5440900000000 1.0
C      1  0.5789320000000  0.5377770000000  0.5549820000000 1.0
C      1  0.5050600000000  0.4567460000000  0.5927100000000 1.0
C      1  0.3874180000000  0.4708550000000  0.4828200000000 1.0
C      1  0.5826940000000  0.4592450000000  0.4458260000000 1.0
C      1  0.4800960000000  0.4499290000000  0.5825350000000 1.0
C      1  0.5890320000000  0.4498770000000  0.4713620000000 1.0
C      1  0.4546460000000  0.4443780000000  0.4181670000000 1.0
C      1  0.4793550000000  0.5521990000000  0.4154450000000 1.0
C      1  0.5819110000000  0.5458420000000  0.5281910000000 1.0
C      1  0.4377780000000  0.5549400000000  0.5577400000000 1.0
C      1  0.4755750000000  0.5853650000000  0.5421340000000 1.0
C      1  0.5608000000000  0.5793360000000  0.4920360000000 1.0
C      1  0.4646070000000  0.5805920000000  0.4550720000000 1.0
C      1  0.4773790000000  0.4119440000000  0.4489210000000 1.0
C      1  0.5650350000000  0.4165810000000  0.4993080000000 1.0
C      1  0.4688930000000  0.4170290000000  0.5464700000000 1.0
C      1  0.5057160000000  0.4144130000000  0.4496440000000 1.0
C      1  0.4500210000000  0.4166180000000  0.5256340000000 1.0
C      1  0.5534780000000  0.4175780000000  0.5250790000000 1.0
C      1  0.5035730000000  0.5858790000000  0.5488650000000 1.0
C      1  0.4448630000000  0.5784830000000  0.4755660000000 1.0
C      1  0.5449390000000  0.5866110000000  0.4672260000000 1.0
C      1  0.5163580000000  0.4872670000000  0.4605340000000 1.0
C      1  0.4776410000000  0.4700330000000  0.5002690000000 1.0
C      1  0.5337310000000  0.4839690000000  0.5309070000000 1.0
C      1  0.5185510000000  0.5093710000000  0.5370280000000 1.0
C      1  0.4744360000000  0.5217240000000  0.4954920000000 1.0
C      1  0.5270560000000  0.5155390000000  0.4714730000000 1.0
C      1  0.4901460000000  0.5122440000000  0.5241080000000 1.0
C      1  0.5230000000000  0.5349000000000  0.4953510000000 1.0
C      1  0.4768070000000  0.5110030000000  0.4659270000000 1.0
C      1  0.4888220000000  0.4805560000000  0.4723690000000 1.0
C      1  0.5289300000000  0.4668890000000  0.5034840000000 1.0
C      1  0.4779850000000  0.4827710000000  0.5274230000000 1.0
C      1  0.4687460000000  0.4251240000000  0.5739780000000 1.0
C      1  0.5890950000000  0.4248610000000  0.4854860000000 1.0
C      1  0.4632500000000  0.4191390000000  0.4251120000000 1.0
C      1  0.4670580000000  0.5758390000000  0.4265600000000 1.0
C      1  0.5813990000000  0.5717240000000  0.5180540000000 1.0
C      1  0.4516830000000  0.5802590000000  0.5586720000000 1.0
C      1  0.5252960000000  0.5615020000000  0.4167970000000 1.0
C      1  0.4034140000000  0.5628870000000  0.5231730000000 1.0
C      1  0.5576810000000  0.5475290000000  0.5695130000000 1.0
C      1  0.5283890000000  0.4423630000000  0.5885800000000 1.0
C      1  0.3898520000000  0.4484570000000  0.4984260000000 1.0
C      1  0.5608400000000  0.4497680000000  0.4314740000000 1.0
C      1  0.4483100000000  0.4612740000000  0.4932780000000 1.0
C      1  0.5177300000000  0.4552660000000  0.5396400000000 1.0
C      1  0.5343560000000  0.4595260000000  0.4597920000000 1.0
C      1  0.4459070000000  0.5329400000000  0.4981230000000 1.0
C      1  0.5166240000000  0.5423540000000  0.4566520000000 1.0
C      1  0.5301780000000  0.5397720000000  0.5392680000000 1.0
C      1  0.5438240000000  0.5497560000000  0.5124940000000 1.0
C      1  0.4826450000000  0.5433780000000  0.4572880000000 1.0
C      1  0.4790490000000  0.5399420000000  0.5350980000000 1.0
C      1  0.5498440000000  0.4512920000000  0.4866420000000 1.0
C      1  0.4841310000000  0.4542760000000  0.5429570000000 1.0
C      1  0.4670250000000  0.4554960000000  0.4649190000000 1.0
C      1  0.4900510000000  0.5331540000000  0.5991520000000 1.0
C      1  0.5830050000000  0.5403620000000  0.4639660000000 1.0
C      1  0.4202650000000  0.5296230000000  0.4414770000000 1.0
C      1  0.4907360000000  0.4680050000000  0.4049190000000 1.0
C      1  0.5906330000000  0.4602030000000  0.5391460000000 1.0
C      1  0.4211140000000  0.4692530000000  0.5579070000000 1.0
C      1  0.5112210000000  0.4464930000000  0.4080960000000 1.0
C      1  0.4003930000000  0.4532290000000  0.5472730000000 1.0
C      1  0.5849760000000  0.4492260000000  0.5644370000000 1.0
C      1  0.5112980000000  0.5545440000000  0.5938760000000 1.0
C      1  0.4031660000000  0.5514170000000  0.4510070000000 1.0
C      1  0.5669700000000  0.5452280000000  0.4410220000000 1.0
C      1  0.5722350000000  0.5220140000000  0.5084120000000 1.0
C      1  0.4649440000000  0.5282240000000  0.4248940000000 1.0
C      1  0.4541900000000  0.5312930000000  0.5650850000000 1.0
C      1  0.5848530000000  0.4720400000000  0.4911640000000 1.0
C      1  0.4643120000000  0.4738760000000  0.5716120000000 1.0
C      1  0.4600210000000  0.4762140000000  0.4288820000000 1.0
C      1  0.4061660000000  0.4455600000000  0.5206810000000 1.0
C      1  0.5535720000000  0.4586750000000  0.5728570000000 1.0
C      1  0.5363040000000  0.4731930000000  0.4290990000000 1.0
C      1  0.4027250000000  0.5475940000000  0.4990920000000 1.0
C      1  0.5569290000000  0.5210720000000  0.4313560000000 1.0
C      1  0.5321250000000  0.5267040000000  0.5702760000000 1.0
C      1  0.5810390000000  0.4910810000000  0.4448590000000 1.0
C      1  0.4088060000000  0.4881500000000  0.4633840000000 1.0
C      1  0.5111520000000  0.4874240000000  0.5933300000000 1.0
C      1  0.5823840000000  0.5070040000000  0.5613060000000 1.0
C      1  0.4133150000000  0.5150580000000  0.5365120000000 1.0
C      1  0.5120050000000  0.5156000000000  0.4017760000000 1.0
C      1  0.4198260000000  0.4970830000000  0.5617390000000 1.0
C      1  0.6015890000000  0.4896460000000  0.5393300000000 1.0
C      1  0.4862270000000  0.4941280000000  0.3961800000000 1.0
C      1  0.4168920000000  0.5022300000000  0.4380980000000 1.0
C      1  0.5999830000000  0.5114140000000  0.4642280000000 1.0
C      1  0.4859990000000  0.5059830000000  0.6034180000000 1.0
C      1  0.5043000000000  0.4543760000000  0.5020300000000 1.0
C      1  0.4971760000000  0.5429440000000  0.4996090000000 1.0
END
