TITL C-3289332-8317-516 -0.000205782782513392 125000 -316.462136868537 0 0 56 (C1) n - 1
REM
REM in /nfs/bkarasulu/CARBON/AIRSS/Generating-Clusters/AIREBO/with-SteepDescent/Higher-Symm/SD-CG/HFTN-CG
REM
REM
REM
REM
REM
REM ./C.cell (b20cbc046b6831c77cfcea5457e17084)
REM
REM compiler GCC version 9.2.1 20190827 (Red Hat 9.2.1-1)
REM options -cpp -mtune=generic -march=x86-64 -g -O0 -fpre-include=/usr/include/finclude/math-vector-fortran.h
REM seed 956908425 -1048417892 -1005492652 -218666215 -1192181260 1270588716 -1138835611 31235585 270318262 1554667315 -1899059903 1743813151 -1891162992 1722136820 1549061382 -920041755 1200239241 -1653675595 -1240114188 2114396719 -1013857368 1100601415 -265725846 -1025563721 -1721151735 168554531 862365765 -540756866 1129815524 -1639525318 -51067201 -1415801343 48410892
REM
CELL 1.54180   50.00000   50.00000   50.00000   90.00000   90.00000   90.00000
LATT -1
SFAC C  
C      1  0.4605830000000  0.4380310000000  0.5383730000000 1.0
C      1  0.4544850000000  0.5683520000000  0.4712150000000 1.0
C      1  0.4575450000000  0.4344550000000  0.4765430000000 1.0
C      1  0.4603500000000  0.5616880000000  0.5330320000000 1.0
C      1  0.5261420000000  0.5256650000000  0.4494540000000 1.0
C      1  0.5256890000000  0.4720980000000  0.5460990000000 1.0
C      1  0.5332290000000  0.5045590000000  0.5484750000000 1.0
C      1  0.5397110000000  0.5004010000000  0.4471780000000 1.0
C      1  0.5106090000000  0.4532430000000  0.5221190000000 1.0
C      1  0.5129630000000  0.5370220000000  0.4787270000000 1.0
C      1  0.5104590000000  0.4590160000000  0.4885890000000 1.0
C      1  0.5082140000000  0.5473410000000  0.5097610000000 1.0
C      1  0.4878890000000  0.4711190000000  0.4707500000000 1.0
C      1  0.4881530000000  0.5330110000000  0.5331500000000 1.0
C      1  0.4862880000000  0.4684580000000  0.5403730000000 1.0
C      1  0.4843160000000  0.5274460000000  0.4682800000000 1.0
C      1  0.4660880000000  0.4762700000000  0.5207120000000 1.0
C      1  0.4669900000000  0.5128550000000  0.4911970000000 1.0
C      1  0.4746670000000  0.4849870000000  0.4959220000000 1.0
C      1  0.4640450000000  0.5249170000000  0.5177890000000 1.0
C      1  0.5578180000000  0.4686010000000  0.4792340000000 1.0
C      1  0.5653180000000  0.5369750000000  0.5129660000000 1.0
C      1  0.5668810000000  0.4620660000000  0.5050440000000 1.0
C      1  0.5666450000000  0.5380280000000  0.4849800000000 1.0
C      1  0.4805190000000  0.5667570000000  0.5133130000000 1.0
C      1  0.4748980000000  0.4235770000000  0.4953670000000 1.0
C      1  0.4713110000000  0.5797450000000  0.4899770000000 1.0
C      1  0.4831330000000  0.4332270000000  0.5208010000000 1.0
C      1  0.4406080000000  0.4862660000000  0.5340410000000 1.0
C      1  0.4450490000000  0.5105220000000  0.4676050000000 1.0
C      1  0.4406610000000  0.4830770000000  0.4615380000000 1.0
C      1  0.4413950000000  0.5147580000000  0.5353840000000 1.0
C      1  0.5606990000000  0.4930410000000  0.4647980000000 1.0
C      1  0.5554360000000  0.5090130000000  0.5262820000000 1.0
C      1  0.5564210000000  0.4772600000000  0.5318860000000 1.0
C      1  0.5771020000000  0.5151140000000  0.4718230000000 1.0
C      1  0.5068020000000  0.5301180000000  0.4257090000000 1.0
C      1  0.5098320000000  0.4666630000000  0.5724180000000 1.0
C      1  0.5177470000000  0.5244930000000  0.5584410000000 1.0
C      1  0.5225980000000  0.4810880000000  0.4345730000000 1.0
C      1  0.4384770000000  0.5454040000000  0.5402400000000 1.0
C      1  0.4583170000000  0.4613850000000  0.4680860000000 1.0
C      1  0.4545300000000  0.5411480000000  0.4660720000000 1.0
C      1  0.4393740000000  0.4561060000000  0.5423130000000 1.0
C      1  0.4896320000000  0.5151880000000  0.5620700000000 1.0
C      1  0.4970450000000  0.4858180000000  0.4459670000000 1.0
C      1  0.4891540000000  0.5122020000000  0.4429960000000 1.0
C      1  0.4872900000000  0.4887300000000  0.5666290000000 1.0
C      1  0.5338470000000  0.4535810000000  0.4758810000000 1.0
C      1  0.5346090000000  0.5356980000000  0.5225730000000 1.0
C      1  0.5438760000000  0.4461570000000  0.5220930000000 1.0
C      1  0.5436470000000  0.5508780000000  0.4738750000000 1.0
C      1  0.5106160000000  0.5530100000000  0.5491270000000 1.0
C      1  0.5296140000000  0.4619550000000  0.4172690000000 1.0
C      1  0.5063070000000  0.5423710000000  0.4023760000000 1.0
C      1  0.4843760000000  0.4490470000000  0.5685150000000 1.0
END
