TITL C-3289335-9438-489 0.00177691891997262 125000 -197.633294689748 0 0 36 (C1) n - 1
REM
REM in /nfs/bkarasulu/CARBON/AIRSS/Generating-Clusters/AIREBO/with-SteepDescent/Higher-Symm/SD-CG/HFTN-CG
REM
REM
REM
REM
REM
REM ./C.cell (b20cbc046b6831c77cfcea5457e17084)
REM
REM compiler GCC version 9.2.1 20190827 (Red Hat 9.2.1-1)
REM options -cpp -mtune=generic -march=x86-64 -g -O0 -fpre-include=/usr/include/finclude/math-vector-fortran.h
REM seed 1781056422 807884916 -448279831 402546555 633680660 -1619486214 -498421042 -517254856 1360289231 883014933 -1942191320 -462760035 -1355572054 645436689 1494013473 1962486880 -1212612535 -535079939 284960542 1698557678 -844531867 1221720567 702306806 -618695605 -822215044 -819573549 -1648250177 -1343211222 1079681021 146132322 -2042256869 802741821 157011004
REM
CELL 1.54180   50.00000   50.00000   50.00000   90.00000   90.00000   90.00000
LATT -1
SFAC C  
C      1  0.4987990000000  0.4555230000000  0.5275610000000 1.0
C      1  0.5004730000000  0.5266500000000  0.5446730000000 1.0
C      1  0.4976170000000  0.5466610000000  0.4732540000000 1.0
C      1  0.5019400000000  0.4754820000000  0.4576390000000 1.0
C      1  0.4976350000000  0.4746070000000  0.5480170000000 1.0
C      1  0.5006800000000  0.5473870000000  0.5257860000000 1.0
C      1  0.4973250000000  0.5273910000000  0.4529090000000 1.0
C      1  0.5019750000000  0.4546220000000  0.4757070000000 1.0
C      1  0.5294230000000  0.5155850000000  0.5447680000000 1.0
C      1  0.4686930000000  0.5475400000000  0.4838210000000 1.0
C      1  0.5301080000000  0.4852660000000  0.4541440000000 1.0
C      1  0.4701550000000  0.4539020000000  0.5164700000000 1.0
C      1  0.4277230000000  0.5071340000000  0.4875320000000 1.0
C      1  0.5698700000000  0.4875140000000  0.4883960000000 1.0
C      1  0.4277390000000  0.4926760000000  0.5125750000000 1.0
C      1  0.5700340000000  0.5133490000000  0.5036370000000 1.0
C      1  0.5183040000000  0.4569860000000  0.5052710000000 1.0
C      1  0.4811330000000  0.5040220000000  0.5433170000000 1.0
C      1  0.5165230000000  0.5436590000000  0.4958630000000 1.0
C      1  0.4820660000000  0.4974050000000  0.4579730000000 1.0
C      1  0.4491740000000  0.4996510000000  0.5313480000000 1.0
C      1  0.5482160000000  0.5308700000000  0.4989250000000 1.0
C      1  0.4496710000000  0.5007400000000  0.4690980000000 1.0
C      1  0.5517400000000  0.4629760000000  0.5017950000000 1.0
C      1  0.4727020000000  0.4839570000000  0.5182200000000 1.0
C      1  0.5250900000000  0.5177060000000  0.5148590000000 1.0
C      1  0.4722810000000  0.5175310000000  0.4824700000000 1.0
C      1  0.5305820000000  0.4809920000000  0.4848030000000 1.0
C      1  0.5563090000000  0.5095830000000  0.5507980000000 1.0
C      1  0.4421550000000  0.5545280000000  0.4898930000000 1.0
C      1  0.5587280000000  0.4854520000000  0.4568070000000 1.0
C      1  0.4440090000000  0.4459830000000  0.5099030000000 1.0
C      1  0.5764970000000  0.5118040000000  0.5314460000000 1.0
C      1  0.4219870000000  0.5352490000000  0.4880690000000 1.0
C      1  0.5896200000000  0.4852480000000  0.4604940000000 1.0
C      1  0.4230250000000  0.4643680000000  0.5117570000000 1.0
END
