TITL C-3289320-4661-80 -8.94757577125341e-05 125000 -1056.69845600783 0 0 191 (C1) n - 1
REM
REM in /nfs/bkarasulu/CARBON/AIRSS/Generating-Clusters/AIREBO/with-SteepDescent/Higher-Symm/SD-CG/HFTN-CG
REM
REM
REM
REM
REM
REM ./C.cell (b20cbc046b6831c77cfcea5457e17084)
REM
REM compiler GCC version 9.2.1 20190827 (Red Hat 9.2.1-1)
REM options -cpp -mtune=generic -march=x86-64 -g -O0 -fpre-include=/usr/include/finclude/math-vector-fortran.h
REM seed 350284482 284410685 310005380 888146252 -366421079 1428682539 183374021 -236037311 1066976818 -1079228994 847950672 1447391843 -546683118 69509504 -1560203139 1441135500 952586938 858011498 -1874186934 45339644 -40726692 -940256904 1581962923 734742407 -35209996 306601274 -1746581458 -1179959484 81829988 -223099928 -521139567 -350905804 -415631067
REM
CELL 1.54180   50.00000   50.00000   50.00000   90.00000   90.00000   90.00000
LATT -1
SFAC C  
C      1  0.4588460000000  0.5606030000000  0.4669520000000 1.0
C      1  0.5043430000000  0.5592690000000  0.5602640000000 1.0
C      1  0.5456050000000  0.5681730000000  0.4795730000000 1.0
C      1  0.4604670000000  0.4379570000000  0.4716700000000 1.0
C      1  0.4876440000000  0.4319180000000  0.5620110000000 1.0
C      1  0.5406430000000  0.4361430000000  0.4788820000000 1.0
C      1  0.4749750000000  0.5697330000000  0.5560180000000 1.0
C      1  0.5750440000000  0.5770580000000  0.4940840000000 1.0
C      1  0.4527470000000  0.5736690000000  0.4388200000000 1.0
C      1  0.4625340000000  0.4236820000000  0.5791220000000 1.0
C      1  0.5553680000000  0.4276590000000  0.5056050000000 1.0
C      1  0.4559570000000  0.4265810000000  0.4399360000000 1.0
C      1  0.4171430000000  0.4825160000000  0.5518140000000 1.0
C      1  0.5925390000000  0.4881680000000  0.5525950000000 1.0
C      1  0.5048740000000  0.4864380000000  0.3869220000000 1.0
C      1  0.4072960000000  0.5076830000000  0.5449000000000 1.0
C      1  0.5932140000000  0.5146640000000  0.5434590000000 1.0
C      1  0.5027490000000  0.5152710000000  0.3991520000000 1.0
C      1  0.6007920000000  0.4502760000000  0.4756400000000 1.0
C      1  0.4495460000000  0.4348030000000  0.4075290000000 1.0
C      1  0.4534160000000  0.4446470000000  0.5952690000000 1.0
C      1  0.5963830000000  0.5598800000000  0.4918360000000 1.0
C      1  0.4375230000000  0.5522760000000  0.4203920000000 1.0
C      1  0.4681640000000  0.5539280000000  0.5849230000000 1.0
C      1  0.6153950000000  0.5199390000000  0.4502260000000 1.0
C      1  0.4125900000000  0.5021700000000  0.4132210000000 1.0
C      1  0.4770570000000  0.5126830000000  0.6260750000000 1.0
C      1  0.6103240000000  0.4956780000000  0.4530960000000 1.0
C      1  0.4133810000000  0.4772850000000  0.4098660000000 1.0
C      1  0.4716350000000  0.4882260000000  0.6261470000000 1.0
C      1  0.5668220000000  0.5788210000000  0.5402860000000 1.0
C      1  0.4937580000000  0.5827930000000  0.4190500000000 1.0
C      1  0.4307700000000  0.5804140000000  0.5432290000000 1.0
C      1  0.5685460000000  0.4246500000000  0.5439230000000 1.0
C      1  0.4947380000000  0.4227280000000  0.4185030000000 1.0
C      1  0.4244390000000  0.4215610000000  0.5521360000000 1.0
C      1  0.5041860000000  0.5130880000000  0.5837540000000 1.0
C      1  0.5666110000000  0.5342480000000  0.4466240000000 1.0
C      1  0.4110720000000  0.5260060000000  0.4584110000000 1.0
C      1  0.5118770000000  0.4667850000000  0.6005960000000 1.0
C      1  0.5650740000000  0.4700280000000  0.4438850000000 1.0
C      1  0.4224880000000  0.4739910000000  0.4547510000000 1.0
C      1  0.5264780000000  0.4416990000000  0.5167900000000 1.0
C      1  0.4989390000000  0.4635900000000  0.4485450000000 1.0
C      1  0.4477970000000  0.4512880000000  0.5284620000000 1.0
C      1  0.5554110000000  0.5428420000000  0.5270970000000 1.0
C      1  0.4852970000000  0.5505680000000  0.4401640000000 1.0
C      1  0.4731020000000  0.5604390000000  0.5233210000000 1.0
C      1  0.5319030000000  0.5085800000000  0.5967110000000 1.0
C      1  0.5665740000000  0.5282320000000  0.4167890000000 1.0
C      1  0.3973630000000  0.5097380000000  0.4761210000000 1.0
C      1  0.5356590000000  0.4809200000000  0.5996640000000 1.0
C      1  0.5783460000000  0.5052940000000  0.4084870000000 1.0
C      1  0.4011740000000  0.4824290000000  0.4743330000000 1.0
C      1  0.4993400000000  0.5285520000000  0.5472740000000 1.0
C      1  0.5439060000000  0.5380430000000  0.4953090000000 1.0
C      1  0.4694280000000  0.5288460000000  0.4609590000000 1.0
C      1  0.4863150000000  0.4641990000000  0.5573370000000 1.0
C      1  0.5397970000000  0.4825350000000  0.4772340000000 1.0
C      1  0.4699560000000  0.4704920000000  0.4687530000000 1.0
C      1  0.5002940000000  0.4210640000000  0.5100820000000 1.0
C      1  0.4933030000000  0.4330330000000  0.4790320000000 1.0
C      1  0.4774170000000  0.4346220000000  0.5296630000000 1.0
C      1  0.5247080000000  0.5709550000000  0.5072720000000 1.0
C      1  0.4929600000000  0.5585800000000  0.4723310000000 1.0
C      1  0.4920520000000  0.5777040000000  0.5006050000000 1.0
C      1  0.4432180000000  0.5829160000000  0.4797280000000 1.0
C      1  0.5211590000000  0.5885390000000  0.5607010000000 1.0
C      1  0.5390430000000  0.5992360000000  0.4673850000000 1.0
C      1  0.4467900000000  0.4155710000000  0.4933300000000 1.0
C      1  0.5138420000000  0.4104230000000  0.5592340000000 1.0
C      1  0.5315490000000  0.4068160000000  0.4635570000000 1.0
C      1  0.4278410000000  0.4470290000000  0.4747610000000 1.0
C      1  0.5082820000000  0.4366970000000  0.5888050000000 1.0
C      1  0.5611140000000  0.4405740000000  0.4520670000000 1.0
C      1  0.4200720000000  0.5504910000000  0.4762910000000 1.0
C      1  0.5269090000000  0.5567500000000  0.5840300000000 1.0
C      1  0.5653820000000  0.5646650000000  0.4519300000000 1.0
C      1  0.5317540000000  0.5152690000000  0.3814110000000 1.0
C      1  0.3890860000000  0.5050860000000  0.5237810000000 1.0
C      1  0.5778690000000  0.5187050000000  0.5843000000000 1.0
C      1  0.5395250000000  0.4823550000000  0.3849590000000 1.0
C      1  0.3886100000000  0.4760090000000  0.5207850000000 1.0
C      1  0.5824210000000  0.4902010000000  0.5793550000000 1.0
C      1  0.4163020000000  0.5833990000000  0.4686170000000 1.0
C      1  0.5435010000000  0.5829620000000  0.5888830000000 1.0
C      1  0.5401950000000  0.5808400000000  0.4420290000000 1.0
C      1  0.4134850000000  0.4230320000000  0.4940390000000 1.0
C      1  0.5362810000000  0.4236970000000  0.5810660000000 1.0
C      1  0.5368910000000  0.4249290000000  0.4409840000000 1.0
C      1  0.4657210000000  0.4803030000000  0.5749890000000 1.0
C      1  0.5785540000000  0.4825380000000  0.4969310000000 1.0
C      1  0.4639180000000  0.4692700000000  0.4238960000000 1.0
C      1  0.4489000000000  0.5238060000000  0.5599180000000 1.0
C      1  0.5893920000000  0.5203220000000  0.4897910000000 1.0
C      1  0.4588300000000  0.5148500000000  0.4330070000000 1.0
C      1  0.5374640000000  0.4241900000000  0.5411090000000 1.0
C      1  0.5137730000000  0.4385930000000  0.4349420000000 1.0
C      1  0.4310090000000  0.4241750000000  0.5221990000000 1.0
C      1  0.5540050000000  0.5899190000000  0.5609530000000 1.0
C      1  0.5148090000000  0.5663970000000  0.4401760000000 1.0
C      1  0.4412210000000  0.5682520000000  0.5168530000000 1.0
C      1  0.4846720000000  0.5295360000000  0.6019160000000 1.0
C      1  0.5952970000000  0.5409670000000  0.4636020000000 1.0
C      1  0.4259020000000  0.5233170000000  0.4323260000000 1.0
C      1  0.4780020000000  0.4666100000000  0.6036090000000 1.0
C      1  0.5887290000000  0.4771950000000  0.4646740000000 1.0
C      1  0.4320920000000  0.4561080000000  0.4274730000000 1.0
C      1  0.5980350000000  0.5712230000000  0.4477610000000 1.0
C      1  0.4153480000000  0.5625560000000  0.4440280000000 1.0
C      1  0.4986140000000  0.5586020000000  0.5995390000000 1.0
C      1  0.5892800000000  0.4302900000000  0.4606390000000 1.0
C      1  0.4225260000000  0.4289970000000  0.4464270000000 1.0
C      1  0.4900420000000  0.4376050000000  0.6174850000000 1.0
C      1  0.5347460000000  0.4821030000000  0.5487600000000 1.0
C      1  0.5400890000000  0.4915980000000  0.4478010000000 1.0
C      1  0.4524130000000  0.4873200000000  0.4925490000000 1.0
C      1  0.5254150000000  0.5092560000000  0.5574630000000 1.0
C      1  0.5388020000000  0.5215480000000  0.4513960000000 1.0
C      1  0.4516930000000  0.5174350000000  0.5019070000000 1.0
C      1  0.4820390000000  0.5303690000000  0.5101990000000 1.0
C      1  0.5126150000000  0.5432390000000  0.5196240000000 1.0
C      1  0.5173570000000  0.5346370000000  0.4743160000000 1.0
C      1  0.4798450000000  0.4594090000000  0.5064980000000 1.0
C      1  0.5210550000000  0.4700000000000  0.5245550000000 1.0
C      1  0.5153170000000  0.4589350000000  0.4779820000000 1.0
C      1  0.6058060000000  0.4541040000000  0.5029710000000 1.0
C      1  0.4676640000000  0.4490170000000  0.3898540000000 1.0
C      1  0.4298020000000  0.4586150000000  0.5863990000000 1.0
C      1  0.6053530000000  0.5469120000000  0.5150370000000 1.0
C      1  0.4596020000000  0.5395510000000  0.4015730000000 1.0
C      1  0.4367980000000  0.5487310000000  0.5872740000000 1.0
C      1  0.5825430000000  0.4397650000000  0.5205550000000 1.0
C      1  0.4939900000000  0.4385230000000  0.3951310000000 1.0
C      1  0.4139890000000  0.4449430000000  0.5649350000000 1.0
C      1  0.5851540000000  0.5535670000000  0.5396640000000 1.0
C      1  0.4888340000000  0.5520020000000  0.4062420000000 1.0
C      1  0.4208610000000  0.5554870000000  0.5614200000000 1.0
C      1  0.5404580000000  0.5325100000000  0.4069170000000 1.0
C      1  0.3980410000000  0.5207100000000  0.5021450000000 1.0
C      1  0.5507400000000  0.5247700000000  0.5848460000000 1.0
C      1  0.5605600000000  0.4800660000000  0.4115840000000 1.0
C      1  0.4038630000000  0.4685930000000  0.4984040000000 1.0
C      1  0.5603840000000  0.4721050000000  0.5885860000000 1.0
C      1  0.4628580000000  0.4812960000000  0.3944720000000 1.0
C      1  0.4357400000000  0.4887370000000  0.5886500000000 1.0
C      1  0.6109320000000  0.4850700000000  0.5069980000000 1.0
C      1  0.4590550000000  0.5088340000000  0.3995300000000 1.0
C      1  0.4357640000000  0.5171460000000  0.5881250000000 1.0
C      1  0.6154830000000  0.5154340000000  0.5103700000000 1.0
C      1  0.3946590000000  0.4611520000000  0.5474570000000 1.0
C      1  0.5597950000000  0.4364300000000  0.5716330000000 1.0
C      1  0.5165880000000  0.4578280000000  0.3953660000000 1.0
C      1  0.3969030000000  0.5770970000000  0.5572680000000 1.0
C      1  0.5931860000000  0.5356560000000  0.5654610000000 1.0
C      1  0.5108030000000  0.5428280000000  0.3836520000000 1.0
C      1  0.5230500000000  0.5151220000000  0.5092610000000 1.0
C      1  0.4906900000000  0.5168970000000  0.4804890000000 1.0
C      1  0.4865160000000  0.5033210000000  0.5284290000000 1.0
C      1  0.5289750000000  0.4898730000000  0.5052210000000 1.0
C      1  0.4938370000000  0.4836510000000  0.4871670000000 1.0
C      1  0.4924810000000  0.4749360000000  0.5309490000000 1.0
C      1  0.4608230000000  0.5911440000000  0.5013300000000 1.0
C      1  0.5073520000000  0.6076550000000  0.5423820000000 1.0
C      1  0.5368180000000  0.6249950000000  0.4742150000000 1.0
C      1  0.4537300000000  0.3862020000000  0.4905640000000 1.0
C      1  0.5192740000000  0.3987560000000  0.5277580000000 1.0
C      1  0.5057000000000  0.3972850000000  0.4660290000000 1.0
C      1  0.5771610000000  0.5194390000000  0.5209230000000 1.0
C      1  0.4924720000000  0.5135520000000  0.4281780000000 1.0
C      1  0.4247510000000  0.5310120000000  0.5411220000000 1.0
C      1  0.5802160000000  0.4704580000000  0.5289780000000 1.0
C      1  0.4954350000000  0.4813650000000  0.4197660000000 1.0
C      1  0.4432130000000  0.4715660000000  0.5510410000000 1.0
C      1  0.5398850000000  0.5400230000000  0.5573130000000 1.0
C      1  0.5196280000000  0.5342940000000  0.4299490000000 1.0
C      1  0.4260960000000  0.5390710000000  0.5080460000000 1.0
C      1  0.5593500000000  0.4664250000000  0.5557060000000 1.0
C      1  0.5287060000000  0.4747850000000  0.4222410000000 1.0
C      1  0.4345880000000  0.4646370000000  0.5030590000000 1.0
C      1  0.4853770000000  0.4152700000000  0.4503460000000 1.0
C      1  0.4430030000000  0.4074380000000  0.5676580000000 1.0
C      1  0.5469880000000  0.3987870000000  0.5120150000000 1.0
C      1  0.4700040000000  0.5922850000000  0.4289360000000 1.0
C      1  0.4548670000000  0.5916510000000  0.5550080000000 1.0
C      1  0.5555120000000  0.5820550000000  0.5155220000000 1.0
C      1  0.4765030000000  0.5114740000000  0.5661220000000 1.0
C      1  0.5591400000000  0.5087190000000  0.4872450000000 1.0
C      1  0.4507650000000  0.4854150000000  0.4471930000000 1.0
C      1  0.4979460000000  0.3924590000000  0.4918450000000 1.0
C      1  0.4992500000000  0.6054130000000  0.5189540000000 1.0
END
