TITL C-3289332-8317-414 -0.000427955061627913 125000 -916.403675769385 0 0 156 (C1) n - 1
REM
REM in /nfs/bkarasulu/CARBON/AIRSS/Generating-Clusters/AIREBO/with-SteepDescent/Higher-Symm/SD-CG/HFTN-CG
REM
REM
REM
REM
REM
REM ./C.cell (b20cbc046b6831c77cfcea5457e17084)
REM
REM compiler GCC version 9.2.1 20190827 (Red Hat 9.2.1-1)
REM options -cpp -mtune=generic -march=x86-64 -g -O0 -fpre-include=/usr/include/finclude/math-vector-fortran.h
REM seed 842241169 1409111540 -1931399771 1898466251 -65499583 -2111605531 -178241186 -1297111148 -1290528077 185653558 1264184597 -2133156514 -909703210 2019935991 -320034423 -433890791 674621474 370682351 526979423 1305892105 1371365222 313076368 995150258 -745398793 -957445630 -562899872 -2048407366 1230532676 1318003839 -670859002 -107708350 -1773636218 910915302
REM
CELL 1.54180   50.00000   50.00000   50.00000   90.00000   90.00000   90.00000
LATT -1
SFAC C  
C      1  0.5627400000000  0.5429100000000  0.5804650000000 1.0
C      1  0.5858810000000  0.5745530000000  0.5463130000000 1.0
C      1  0.5427030000000  0.5855030000000  0.5643820000000 1.0
C      1  0.4282660000000  0.4536520000000  0.5767140000000 1.0
C      1  0.4437030000000  0.5373130000000  0.4218610000000 1.0
C      1  0.5534530000000  0.4618800000000  0.4175010000000 1.0
C      1  0.4104100000000  0.4374390000000  0.5334350000000 1.0
C      1  0.4269720000000  0.5729610000000  0.4515470000000 1.0
C      1  0.5877100000000  0.4366970000000  0.4459470000000 1.0
C      1  0.4489290000000  0.4154170000000  0.5585560000000 1.0
C      1  0.4589120000000  0.5822400000000  0.4160000000000 1.0
C      1  0.5440760000000  0.4166520000000  0.4303350000000 1.0
C      1  0.5450010000000  0.5668810000000  0.5872240000000 1.0
C      1  0.5673850000000  0.5946120000000  0.5540130000000 1.0
C      1  0.5861780000000  0.5487040000000  0.5630560000000 1.0
C      1  0.4398240000000  0.4282960000000  0.5820330000000 1.0
C      1  0.5459920000000  0.4358430000000  0.4094370000000 1.0
C      1  0.4650630000000  0.5546710000000  0.4190800000000 1.0
C      1  0.4365680000000  0.4229370000000  0.5324790000000 1.0
C      1  0.5672310000000  0.4155440000000  0.4495900000000 1.0
C      1  0.4462600000000  0.5928800000000  0.4391340000000 1.0
C      1  0.4022450000000  0.4499190000000  0.5608090000000 1.0
C      1  0.5762500000000  0.4632090000000  0.4363550000000 1.0
C      1  0.4184270000000  0.5508410000000  0.4319840000000 1.0
C      1  0.5117380000000  0.4097870000000  0.5267800000000 1.0
C      1  0.5215340000000  0.5014040000000  0.4134450000000 1.0
C      1  0.4094120000000  0.5292750000000  0.5030000000000 1.0
C      1  0.4991910000000  0.5855720000000  0.5288650000000 1.0
C      1  0.4920970000000  0.4111920000000  0.4775350000000 1.0
C      1  0.5094670000000  0.5947180000000  0.4719530000000 1.0
C      1  0.4645020000000  0.4861110000000  0.4177760000000 1.0
C      1  0.4699820000000  0.4973190000000  0.5900800000000 1.0
C      1  0.5245450000000  0.4882090000000  0.5921310000000 1.0
C      1  0.5917640000000  0.4805030000000  0.5044090000000 1.0
C      1  0.5871140000000  0.5290330000000  0.4846080000000 1.0
C      1  0.3959750000000  0.4756690000000  0.4920180000000 1.0
C      1  0.4070760000000  0.5100770000000  0.5223250000000 1.0
C      1  0.5026640000000  0.5216700000000  0.4127860000000 1.0
C      1  0.5293800000000  0.4092920000000  0.5053910000000 1.0
C      1  0.5876940000000  0.5013980000000  0.5223170000000 1.0
C      1  0.4046500000000  0.4966250000000  0.4706740000000 1.0
C      1  0.5937550000000  0.5094940000000  0.4656610000000 1.0
C      1  0.4848640000000  0.4667160000000  0.4138360000000 1.0
C      1  0.5074860000000  0.4654660000000  0.5927630000000 1.0
C      1  0.4882370000000  0.5180680000000  0.5934560000000 1.0
C      1  0.4797010000000  0.5891410000000  0.5095130000000 1.0
C      1  0.5306710000000  0.5922510000000  0.4932300000000 1.0
C      1  0.4742870000000  0.4058510000000  0.4986410000000 1.0
C      1  0.5641670000000  0.4632150000000  0.5763730000000 1.0
C      1  0.5809670000000  0.5621740000000  0.4555160000000 1.0
C      1  0.4572710000000  0.5810710000000  0.5622010000000 1.0
C      1  0.4374570000000  0.5412080000000  0.5838380000000 1.0
C      1  0.4315610000000  0.4498720000000  0.4201450000000 1.0
C      1  0.5608900000000  0.5394840000000  0.4173080000000 1.0
C      1  0.4139270000000  0.4338360000000  0.4604570000000 1.0
C      1  0.4177420000000  0.5602340000000  0.5432910000000 1.0
C      1  0.5819540000000  0.4431940000000  0.5359890000000 1.0
C      1  0.5470280000000  0.4210650000000  0.5612600000000 1.0
C      1  0.5486290000000  0.5862950000000  0.4303920000000 1.0
C      1  0.4572840000000  0.4185650000000  0.4478110000000 1.0
C      1  0.4591810000000  0.5582110000000  0.5805390000000 1.0
C      1  0.5717840000000  0.5874980000000  0.4466280000000 1.0
C      1  0.5846560000000  0.4620750000000  0.5560600000000 1.0
C      1  0.5511800000000  0.4395150000000  0.5843390000000 1.0
C      1  0.4526850000000  0.4304160000000  0.4198140000000 1.0
C      1  0.5427650000000  0.5600000000000  0.4166900000000 1.0
C      1  0.4366830000000  0.4174890000000  0.4667820000000 1.0
C      1  0.5665180000000  0.4189580000000  0.5417300000000 1.0
C      1  0.4410850000000  0.5778410000000  0.5400600000000 1.0
C      1  0.4206030000000  0.5384710000000  0.5603480000000 1.0
C      1  0.5856460000000  0.5446560000000  0.4336510000000 1.0
C      1  0.4087550000000  0.4378410000000  0.4325670000000 1.0
C      1  0.5430310000000  0.4975150000000  0.4792480000000 1.0
C      1  0.4794580000000  0.5444870000000  0.5115380000000 1.0
C      1  0.5025030000000  0.4721870000000  0.5414110000000 1.0
C      1  0.4509950000000  0.5015610000000  0.4813670000000 1.0
C      1  0.4524500000000  0.5078090000000  0.5220000000000 1.0
C      1  0.5480630000000  0.5039800000000  0.5268520000000 1.0
C      1  0.5352580000000  0.4477740000000  0.4965920000000 1.0
C      1  0.5269990000000  0.5493360000000  0.4958770000000 1.0
C      1  0.4841900000000  0.4598140000000  0.5068500000000 1.0
C      1  0.4931920000000  0.5180990000000  0.5536380000000 1.0
C      1  0.4956980000000  0.4743340000000  0.4629810000000 1.0
C      1  0.4975850000000  0.5249770000000  0.4610860000000 1.0
C      1  0.4986140000000  0.5433100000000  0.4883110000000 1.0
C      1  0.5466790000000  0.4780690000000  0.5048810000000 1.0
C      1  0.4653470000000  0.5029490000000  0.5508720000000 1.0
C      1  0.5041780000000  0.4490090000000  0.4817370000000 1.0
C      1  0.5128070000000  0.4494540000000  0.5220810000000 1.0
C      1  0.4965280000000  0.5467120000000  0.5379570000000 1.0
C      1  0.4500270000000  0.5323080000000  0.4985440000000 1.0
C      1  0.5488040000000  0.5233060000000  0.4981790000000 1.0
C      1  0.4562310000000  0.4792670000000  0.5064990000000 1.0
C      1  0.5213570000000  0.4995560000000  0.5488230000000 1.0
C      1  0.4775090000000  0.5003640000000  0.4612230000000 1.0
C      1  0.5174640000000  0.4992980000000  0.4611430000000 1.0
C      1  0.4436980000000  0.5099500000000  0.5761450000000 1.0
C      1  0.5721740000000  0.4564460000000  0.5092270000000 1.0
C      1  0.5203500000000  0.5759540000000  0.4455590000000 1.0
C      1  0.5440530000000  0.4845960000000  0.5692720000000 1.0
C      1  0.5530360000000  0.5083550000000  0.4242020000000 1.0
C      1  0.4403200000000  0.4760720000000  0.4296250000000 1.0
C      1  0.4267180000000  0.5522590000000  0.5132160000000 1.0
C      1  0.4132970000000  0.4584200000000  0.4732130000000 1.0
C      1  0.5625070000000  0.5473380000000  0.4782620000000 1.0
C      1  0.4846840000000  0.4350490000000  0.4575950000000 1.0
C      1  0.4874120000000  0.5735380000000  0.5567570000000 1.0
C      1  0.5192610000000  0.4298630000000  0.5491530000000 1.0
C      1  0.5198000000000  0.4422710000000  0.5810320000000 1.0
C      1  0.4562330000000  0.5691430000000  0.5127600000000 1.0
C      1  0.5827610000000  0.5153500000000  0.4400100000000 1.0
C      1  0.4844900000000  0.5427120000000  0.5754470000000 1.0
C      1  0.5133520000000  0.5527470000000  0.4215540000000 1.0
C      1  0.4800310000000  0.4416800000000  0.4250380000000 1.0
C      1  0.5552140000000  0.4252880000000  0.5124990000000 1.0
C      1  0.4463500000000  0.4145020000000  0.4927290000000 1.0
C      1  0.5393380000000  0.5684810000000  0.4715840000000 1.0
C      1  0.4328180000000  0.4829060000000  0.4594180000000 1.0
C      1  0.5716630000000  0.4899430000000  0.5469410000000 1.0
C      1  0.4274470000000  0.5131460000000  0.5444380000000 1.0
C      1  0.4300580000000  0.5340160000000  0.4591030000000 1.0
C      1  0.4571310000000  0.4396140000000  0.5111250000000 1.0
C      1  0.5191150000000  0.4575930000000  0.4456940000000 1.0
C      1  0.5651960000000  0.4785750000000  0.4646050000000 1.0
C      1  0.5641870000000  0.5288850000000  0.5434640000000 1.0
C      1  0.4168870000000  0.4746840000000  0.5450060000000 1.0
C      1  0.5416610000000  0.5563250000000  0.5252690000000 1.0
C      1  0.5587040000000  0.4402370000000  0.4731310000000 1.0
C      1  0.4618930000000  0.5854470000000  0.4658650000000 1.0
C      1  0.4875720000000  0.5482070000000  0.4381940000000 1.0
C      1  0.4773730000000  0.4589140000000  0.5560000000000 1.0
C      1  0.5232830000000  0.5427570000000  0.5842910000000 1.0
C      1  0.5312570000000  0.4305040000000  0.4573920000000 1.0
C      1  0.4342700000000  0.4608300000000  0.5212080000000 1.0
C      1  0.4521380000000  0.5140670000000  0.4434620000000 1.0
C      1  0.4843070000000  0.5616880000000  0.4655410000000 1.0
C      1  0.5239720000000  0.5586900000000  0.5542120000000 1.0
C      1  0.4735960000000  0.4262790000000  0.5471710000000 1.0
C      1  0.5742930000000  0.5534300000000  0.5254490000000 1.0
C      1  0.4463040000000  0.5566540000000  0.4750900000000 1.0
C      1  0.5889490000000  0.4558010000000  0.4731640000000 1.0
C      1  0.5418710000000  0.4826120000000  0.4421670000000 1.0
C      1  0.4481120000000  0.4746360000000  0.5586090000000 1.0
C      1  0.5400570000000  0.5235830000000  0.5639720000000 1.0
C      1  0.5195220000000  0.4114140000000  0.4795180000000 1.0
C      1  0.4840640000000  0.5972240000000  0.4833010000000 1.0
C      1  0.4760400000000  0.5140140000000  0.4192660000000 1.0
C      1  0.4804560000000  0.4713720000000  0.5852310000000 1.0
C      1  0.4011960000000  0.4830800000000  0.5179590000000 1.0
C      1  0.5888630000000  0.5271800000000  0.5121900000000 1.0
C      1  0.4089830000000  0.5227690000000  0.4765480000000 1.0
C      1  0.6022190000000  0.4854860000000  0.4775010000000 1.0
C      1  0.5113170000000  0.4753390000000  0.4177130000000 1.0
C      1  0.4841350000000  0.4103770000000  0.5251380000000 1.0
C      1  0.5249180000000  0.5830150000000  0.5188230000000 1.0
C      1  0.5157420000000  0.5136430000000  0.5970360000000 1.0
END
