TITL C-3289321-8710-86 0.000899667187426898 125000 -345.205027337035 0 0 69 (C1) n - 1
REM
REM in /nfs/bkarasulu/CARBON/AIRSS/Generating-Clusters/AIREBO/with-SteepDescent/Higher-Symm/SD-CG/HFTN-CG
REM
REM
REM
REM
REM
REM ./C.cell (b20cbc046b6831c77cfcea5457e17084)
REM
REM compiler GCC version 9.2.1 20190827 (Red Hat 9.2.1-1)
REM options -cpp -mtune=generic -march=x86-64 -g -O0 -fpre-include=/usr/include/finclude/math-vector-fortran.h
REM seed 221174585 681073528 -180555556 972267294 -248475189 38402458 -1843421576 1409332849 -1994834139 423057331 264936603 63313502 -488033290 -1011496062 1617458088 102760538 1237188557 730371775 1969083238 -515429664 1424912985 2098026524 -64230308 -1441373769 -948541486 -1921202260 1441639220 -1807749876 -629657943 909942664 -1036471144 -375304997 337247198
REM
CELL 1.54180   50.00000   50.00000   50.00000   90.00000   90.00000   90.00000
LATT -1
SFAC C  
C      1  0.5581460000000  0.5108960000000  0.5447660000000 1.0
C      1  0.4799940000000  0.4460780000000  0.5459330000000 1.0
C      1  0.4619410000000  0.5443470000000  0.5439550000000 1.0
C      1  0.4480320000000  0.5445450000000  0.4901100000000 1.0
C      1  0.5579560000000  0.5259410000000  0.4864340000000 1.0
C      1  0.4961360000000  0.4252750000000  0.4862000000000 1.0
C      1  0.4855670000000  0.4895670000000  0.5750020000000 1.0
C      1  0.4884030000000  0.5211910000000  0.5816680000000 1.0
C      1  0.5146030000000  0.5019600000000  0.5763060000000 1.0
C      1  0.5639860000000  0.4100450000000  0.5069720000000 1.0
C      1  0.3916950000000  0.4993540000000  0.4910240000000 1.0
C      1  0.5533940000000  0.5990470000000  0.5164100000000 1.0
C      1  0.4303930000000  0.5349990000000  0.5105680000000 1.0
C      1  0.5633100000000  0.5438980000000  0.5077760000000 1.0
C      1  0.5085620000000  0.4182250000000  0.5109660000000 1.0
C      1  0.5326720000000  0.4747150000000  0.4873770000000 1.0
C      1  0.4626850000000  0.4791800000000  0.4946070000000 1.0
C      1  0.5063980000000  0.5487450000000  0.4869350000000 1.0
C      1  0.5484360000000  0.4302170000000  0.5087790000000 1.0
C      1  0.4154380000000  0.4986060000000  0.5003590000000 1.0
C      1  0.5402030000000  0.5772390000000  0.5147190000000 1.0
C      1  0.4668560000000  0.5246810000000  0.4730940000000 1.0
C      1  0.5280390000000  0.5200260000000  0.4724690000000 1.0
C      1  0.5009590000000  0.4569710000000  0.4748680000000 1.0
C      1  0.5211670000000  0.5517620000000  0.5132580000000 1.0
C      1  0.5315050000000  0.4573150000000  0.5115770000000 1.0
C      1  0.4429080000000  0.4948860000000  0.5121140000000 1.0
C      1  0.4201290000000  0.5098270000000  0.4534500000000 1.0
C      1  0.5555720000000  0.5581800000000  0.4474280000000 1.0
C      1  0.5193300000000  0.4121620000000  0.4528530000000 1.0
C      1  0.4884740000000  0.5660540000000  0.4733290000000 1.0
C      1  0.5537430000000  0.4804510000000  0.4679470000000 1.0
C      1  0.4577080000000  0.4582730000000  0.4759090000000 1.0
C      1  0.5430190000000  0.4885860000000  0.4430680000000 1.0
C      1  0.4677670000000  0.4636790000000  0.4501000000000 1.0
C      1  0.4841100000000  0.5565470000000  0.4469620000000 1.0
C      1  0.4465040000000  0.5154240000000  0.4493530000000 1.0
C      1  0.5383280000000  0.5370340000000  0.4462440000000 1.0
C      1  0.5119810000000  0.4382190000000  0.4496070000000 1.0
C      1  0.4418000000000  0.4957620000000  0.5457250000000 1.0
C      1  0.5281100000000  0.5559940000000  0.5462730000000 1.0
C      1  0.5379350000000  0.4467280000000  0.5432480000000 1.0
C      1  0.4663130000000  0.4335820000000  0.4895940000000 1.0
C      1  0.4659370000000  0.5686340000000  0.4922300000000 1.0
C      1  0.5668350000000  0.4974200000000  0.4882760000000 1.0
C      1  0.4407160000000  0.5264430000000  0.5364810000000 1.0
C      1  0.5530940000000  0.5403970000000  0.5344130000000 1.0
C      1  0.5097640000000  0.4335910000000  0.5352420000000 1.0
C      1  0.4795420000000  0.4485380000000  0.5138830000000 1.0
C      1  0.4785260000000  0.5494840000000  0.5154640000000 1.0
C      1  0.5474940000000  0.4995150000000  0.5145470000000 1.0
C      1  0.4614920000000  0.5120510000000  0.4241660000000 1.0
C      1  0.5265090000000  0.5266020000000  0.4212580000000 1.0
C      1  0.5140640000000  0.4547050000000  0.4253170000000 1.0
C      1  0.4891690000000  0.5218720000000  0.4986770000000 1.0
C      1  0.5171140000000  0.5024560000000  0.4994600000000 1.0
C      1  0.4956480000000  0.4762160000000  0.5024120000000 1.0
C      1  0.4979800000000  0.4754070000000  0.4462960000000 1.0
C      1  0.4850380000000  0.5239780000000  0.4442860000000 1.0
C      1  0.5136610000000  0.5056190000000  0.4452250000000 1.0
C      1  0.4734860000000  0.5045320000000  0.5233840000000 1.0
C      1  0.5175100000000  0.5227580000000  0.5267570000000 1.0
C      1  0.5106250000000  0.4734900000000  0.5328260000000 1.0
C      1  0.5265420000000  0.4989870000000  0.5487240000000 1.0
C      1  0.4805010000000  0.4800820000000  0.5459590000000 1.0
C      1  0.4916210000000  0.5184100000000  0.5480190000000 1.0
C      1  0.4503760000000  0.4643590000000  0.5472420000000 1.0
C      1  0.4955260000000  0.5512890000000  0.5438370000000 1.0
C      1  0.5510250000000  0.4769530000000  0.5402820000000 1.0
END
