TITL C-3289320-4661-101 -0.00230508913521237 125000 -506.9539671653 0 0 94 (C1) n - 1
REM
REM in /nfs/bkarasulu/CARBON/AIRSS/Generating-Clusters/AIREBO/with-SteepDescent/Higher-Symm/SD-CG/HFTN-CG
REM
REM
REM
REM
REM
REM ./C.cell (b20cbc046b6831c77cfcea5457e17084)
REM
REM compiler GCC version 9.2.1 20190827 (Red Hat 9.2.1-1)
REM options -cpp -mtune=generic -march=x86-64 -g -O0 -fpre-include=/usr/include/finclude/math-vector-fortran.h
REM seed 1647114386 1616525000 -1053357725 1746190549 479555629 1754727403 916672871 1602940990 916556923 -338505653 -1796362263 1634153840 -104024506 833033196 742895847 1475026355 1779692037 -1505320205 -963353378 -12810813 362024319 -1502883676 519141992 1116887410 -724693622 -1493978945 1157049528 -1565936863 -370331687 -856827679 -25815632 222273652 -987184459
REM
CELL 1.54180   50.00000   50.00000   50.00000   90.00000   90.00000   90.00000
LATT -1
SFAC C  
C      1  0.4896700000000  0.4254450000000  0.5370030000000 1.0
C      1  0.4275560000000  0.4770240000000  0.4714640000000 1.0
C      1  0.4892900000000  0.5026360000000  0.4288970000000 1.0
C      1  0.5021630000000  0.4917140000000  0.4528570000000 1.0
C      1  0.5048670000000  0.4958180000000  0.5836950000000 1.0
C      1  0.5073230000000  0.5511450000000  0.5388870000000 1.0
C      1  0.5515610000000  0.5301010000000  0.5387030000000 1.0
C      1  0.5777500000000  0.5137480000000  0.5244470000000 1.0
C      1  0.5414990000000  0.4696720000000  0.5824870000000 1.0
C      1  0.4221720000000  0.4565520000000  0.5558700000000 1.0
C      1  0.4470810000000  0.4442270000000  0.5095590000000 1.0
C      1  0.4637030000000  0.4873110000000  0.5566600000000 1.0
C      1  0.5359370000000  0.5386450000000  0.4824840000000 1.0
C      1  0.4403060000000  0.4892250000000  0.5194490000000 1.0
C      1  0.4906580000000  0.5333120000000  0.4309780000000 1.0
C      1  0.5530770000000  0.4489900000000  0.5412980000000 1.0
C      1  0.5457360000000  0.4338080000000  0.4824040000000 1.0
C      1  0.4669650000000  0.5265780000000  0.4966070000000 1.0
C      1  0.5490850000000  0.5009860000000  0.4927350000000 1.0
C      1  0.4961830000000  0.5023000000000  0.4845440000000 1.0
C      1  0.5633730000000  0.4578050000000  0.4909140000000 1.0
C      1  0.5816430000000  0.5071510000000  0.4853530000000 1.0
C      1  0.4182190000000  0.5132670000000  0.5459510000000 1.0
C      1  0.5360120000000  0.5036170000000  0.5240760000000 1.0
C      1  0.5780250000000  0.4783070000000  0.4723150000000 1.0
C      1  0.4669450000000  0.5664430000000  0.4660820000000 1.0
C      1  0.5073170000000  0.4526670000000  0.5137610000000 1.0
C      1  0.4620950000000  0.4397970000000  0.4571820000000 1.0
C      1  0.5018640000000  0.5204880000000  0.5525480000000 1.0
C      1  0.4160310000000  0.4871770000000  0.4989400000000 1.0
C      1  0.4119790000000  0.5378320000000  0.4950230000000 1.0
C      1  0.4799910000000  0.4596210000000  0.4782370000000 1.0
C      1  0.5573460000000  0.5491710000000  0.4582360000000 1.0
C      1  0.5357030000000  0.4738270000000  0.4811320000000 1.0
C      1  0.5257040000000  0.4457040000000  0.5381740000000 1.0
C      1  0.4562980000000  0.5650440000000  0.4977880000000 1.0
C      1  0.5202300000000  0.5800200000000  0.4815950000000 1.0
C      1  0.5367450000000  0.5588350000000  0.5374990000000 1.0
C      1  0.4231900000000  0.4415140000000  0.5333140000000 1.0
C      1  0.4900060000000  0.4274220000000  0.4826450000000 1.0
C      1  0.4706340000000  0.4803030000000  0.4313620000000 1.0
C      1  0.4743230000000  0.4491150000000  0.5212880000000 1.0
C      1  0.5405140000000  0.4324350000000  0.4556340000000 1.0
C      1  0.5109630000000  0.4894000000000  0.5421870000000 1.0
C      1  0.5130370000000  0.5491240000000  0.5053610000000 1.0
C      1  0.5492960000000  0.5250460000000  0.5701390000000 1.0
C      1  0.4599730000000  0.4803040000000  0.4617370000000 1.0
C      1  0.5829400000000  0.5350670000000  0.4737850000000 1.0
C      1  0.5673080000000  0.5629870000000  0.4868500000000 1.0
C      1  0.4803230000000  0.4791430000000  0.5315500000000 1.0
C      1  0.4489510000000  0.5105880000000  0.4726070000000 1.0
C      1  0.5601700000000  0.5367350000000  0.5064730000000 1.0
C      1  0.5339020000000  0.4861420000000  0.4150810000000 1.0
C      1  0.5634960000000  0.4871410000000  0.5366040000000 1.0
C      1  0.4984190000000  0.4140900000000  0.5099910000000 1.0
C      1  0.5609200000000  0.4671420000000  0.5639330000000 1.0
C      1  0.4381140000000  0.5408740000000  0.4836610000000 1.0
C      1  0.4447670000000  0.5658110000000  0.5253090000000 1.0
C      1  0.5336870000000  0.4798010000000  0.4483350000000 1.0
C      1  0.5242030000000  0.5191660000000  0.5781490000000 1.0
C      1  0.5058340000000  0.4370010000000  0.5597080000000 1.0
C      1  0.5444430000000  0.5809910000000  0.4965340000000 1.0
C      1  0.6035960000000  0.5057870000000  0.5112000000000 1.0
C      1  0.5352120000000  0.5106210000000  0.4632170000000 1.0
C      1  0.5672770000000  0.4775260000000  0.4466810000000 1.0
C      1  0.4297000000000  0.5413830000000  0.5306570000000 1.0
C      1  0.4697020000000  0.4934960000000  0.5039790000000 1.0
C      1  0.4894750000000  0.5692440000000  0.4913550000000 1.0
C      1  0.5128850000000  0.4681330000000  0.5686920000000 1.0
C      1  0.4384070000000  0.5282730000000  0.4384750000000 1.0
C      1  0.5118230000000  0.5526560000000  0.4630310000000 1.0
C      1  0.5236590000000  0.5263760000000  0.4353500000000 1.0
C      1  0.5338470000000  0.5112290000000  0.4107450000000 1.0
C      1  0.4792130000000  0.5249460000000  0.5280570000000 1.0
C      1  0.4416150000000  0.4486790000000  0.4777300000000 1.0
C      1  0.5019150000000  0.4234240000000  0.4575410000000 1.0
C      1  0.4882390000000  0.5330340000000  0.4708800000000 1.0
C      1  0.4506630000000  0.5168100000000  0.5331320000000 1.0
C      1  0.5434870000000  0.5815080000000  0.5246760000000 1.0
C      1  0.5082020000000  0.5185640000000  0.5114710000000 1.0
C      1  0.4782330000000  0.5050540000000  0.5726590000000 1.0
C      1  0.5138350000000  0.5582220000000  0.4309290000000 1.0
C      1  0.5073070000000  0.4712850000000  0.4902360000000 1.0
C      1  0.4335860000000  0.4848680000000  0.5523150000000 1.0
C      1  0.4820590000000  0.4536310000000  0.4387860000000 1.0
C      1  0.4152460000000  0.4562860000000  0.5065640000000 1.0
C      1  0.4867980000000  0.5721470000000  0.5483120000000 1.0
C      1  0.4652720000000  0.5414810000000  0.4472680000000 1.0
C      1  0.5156140000000  0.4513410000000  0.4437780000000 1.0
C      1  0.4290470000000  0.5011920000000  0.4475360000000 1.0
C      1  0.4604990000000  0.5776370000000  0.5439050000000 1.0
C      1  0.5698010000000  0.4588990000000  0.5189740000000 1.0
C      1  0.4104790000000  0.5152120000000  0.5136940000000 1.0
C      1  0.5257950000000  0.4277060000000  0.5001040000000 1.0
END
