TITL C-3289330-4660-311 0.0014013527928783 125000 -514.300374101179 0 0 92 (C1) n - 1
REM
REM in /nfs/bkarasulu/CARBON/AIRSS/Generating-Clusters/AIREBO/with-SteepDescent/Higher-Symm/SD-CG/HFTN-CG
REM
REM
REM
REM
REM
REM ./C.cell (b20cbc046b6831c77cfcea5457e17084)
REM
REM compiler GCC version 9.2.1 20190827 (Red Hat 9.2.1-1)
REM options -cpp -mtune=generic -march=x86-64 -g -O0 -fpre-include=/usr/include/finclude/math-vector-fortran.h
REM seed 220211375 -533032434 167595529 368236847 -687333815 -1308060650 -464292326 298041654 843573018 -322860247 799981672 1075697139 1096758772 -2120564400 905206664 1521917913 -1650868266 -2044086778 -1210720490 395898744 1573516489 844585067 977862709 -422888578 -319127439 -1719274913 -285433346 1886308650 1460607630 104936631 575697888 -1928016695 1893978185
REM
CELL 1.54180   50.00000   50.00000   50.00000   90.00000   90.00000   90.00000
LATT -1
SFAC C  
C      1  0.4823530000000  0.4343540000000  0.5091480000000 1.0
C      1  0.4645940000000  0.5519700000000  0.5216240000000 1.0
C      1  0.5647430000000  0.5209680000000  0.5070430000000 1.0
C      1  0.4913880000000  0.5686280000000  0.5088920000000 1.0
C      1  0.4598270000000  0.4428730000000  0.4875520000000 1.0
C      1  0.5649020000000  0.5004490000000  0.4837600000000 1.0
C      1  0.5190370000000  0.5628190000000  0.4891650000000 1.0
C      1  0.5307660000000  0.4556530000000  0.4794660000000 1.0
C      1  0.4398560000000  0.5025750000000  0.4857610000000 1.0
C      1  0.5155850000000  0.4349230000000  0.5017560000000 1.0
C      1  0.5497530000000  0.5496090000000  0.4954090000000 1.0
C      1  0.4457550000000  0.5291630000000  0.5048470000000 1.0
C      1  0.4437710000000  0.5439220000000  0.4616380000000 1.0
C      1  0.5643930000000  0.5268360000000  0.4527300000000 1.0
C      1  0.4993570000000  0.4290010000000  0.4517120000000 1.0
C      1  0.4505810000000  0.4303950000000  0.5329540000000 1.0
C      1  0.5587350000000  0.4734330000000  0.5353660000000 1.0
C      1  0.4991830000000  0.5756680000000  0.5388670000000 1.0
C      1  0.5504380000000  0.4410090000000  0.5414660000000 1.0
C      1  0.4210430000000  0.4959720000000  0.5362510000000 1.0
C      1  0.5057510000000  0.5643760000000  0.5597260000000 1.0
C      1  0.5440970000000  0.5482050000000  0.4618810000000 1.0
C      1  0.4386410000000  0.5193050000000  0.4497390000000 1.0
C      1  0.5147110000000  0.4194320000000  0.4714940000000 1.0
C      1  0.5559960000000  0.5583610000000  0.5441730000000 1.0
C      1  0.5333190000000  0.4169790000000  0.5245550000000 1.0
C      1  0.4047180000000  0.5183890000000  0.5267840000000 1.0
C      1  0.5442050000000  0.4180380000000  0.4796430000000 1.0
C      1  0.5277520000000  0.5946710000000  0.4842010000000 1.0
C      1  0.4161540000000  0.4856480000000  0.4939440000000 1.0
C      1  0.4306170000000  0.4296260000000  0.4840980000000 1.0
C      1  0.4698570000000  0.5819890000000  0.4665880000000 1.0
C      1  0.5830670000000  0.4771940000000  0.4935030000000 1.0
C      1  0.4432330000000  0.5716410000000  0.5039280000000 1.0
C      1  0.4591570000000  0.4046840000000  0.5288460000000 1.0
C      1  0.5951710000000  0.5315130000000  0.5107430000000 1.0
C      1  0.5100770000000  0.5251240000000  0.5155690000000 1.0
C      1  0.5109160000000  0.4787980000000  0.5170790000000 1.0
C      1  0.4673060000000  0.4995480000000  0.5203880000000 1.0
C      1  0.5143640000000  0.4796970000000  0.4877160000000 1.0
C      1  0.5162450000000  0.5290420000000  0.4864140000000 1.0
C      1  0.4723370000000  0.5049330000000  0.4876880000000 1.0
C      1  0.4872960000000  0.4823970000000  0.4761890000000 1.0
C      1  0.4859000000000  0.5290710000000  0.4787590000000 1.0
C      1  0.5312850000000  0.5033160000000  0.4809180000000 1.0
C      1  0.4836450000000  0.5258440000000  0.5197360000000 1.0
C      1  0.4829490000000  0.4753580000000  0.5253230000000 1.0
C      1  0.5223880000000  0.5036520000000  0.5268020000000 1.0
C      1  0.4344250000000  0.4464500000000  0.5127370000000 1.0
C      1  0.4825950000000  0.5914610000000  0.4886560000000 1.0
C      1  0.5708990000000  0.4591260000000  0.5100620000000 1.0
C      1  0.4279640000000  0.5565000000000  0.4823370000000 1.0
C      1  0.4876130000000  0.4024590000000  0.5197340000000 1.0
C      1  0.5937770000000  0.5590990000000  0.5152820000000 1.0
C      1  0.5658320000000  0.5643850000000  0.5185770000000 1.0
C      1  0.5141120000000  0.3965570000000  0.5277040000000 1.0
C      1  0.4153200000000  0.5358530000000  0.5063470000000 1.0
C      1  0.5548040000000  0.4409000000000  0.4967940000000 1.0
C      1  0.5042150000000  0.6095960000000  0.4851550000000 1.0
C      1  0.4204740000000  0.4728140000000  0.5184410000000 1.0
C      1  0.5239080000000  0.4554260000000  0.5277850000000 1.0
C      1  0.4489190000000  0.5050030000000  0.5453050000000 1.0
C      1  0.5460760000000  0.5349300000000  0.5535360000000 1.0
C      1  0.5103310000000  0.5555500000000  0.4570930000000 1.0
C      1  0.4511470000000  0.4884290000000  0.4581630000000 1.0
C      1  0.5398140000000  0.4656990000000  0.4525040000000 1.0
C      1  0.4766070000000  0.5510570000000  0.4564140000000 1.0
C      1  0.5556250000000  0.4939670000000  0.4529820000000 1.0
C      1  0.4691890000000  0.4608380000000  0.4642870000000 1.0
C      1  0.4750480000000  0.4483110000000  0.5393500000000 1.0
C      1  0.5520030000000  0.5067800000000  0.5352710000000 1.0
C      1  0.4619610000000  0.5359540000000  0.5515160000000 1.0
C      1  0.4847030000000  0.5320160000000  0.5699840000000 1.0
C      1  0.5484160000000  0.4895490000000  0.5643700000000 1.0
C      1  0.4786080000000  0.4656800000000  0.5638670000000 1.0
C      1  0.4892110000000  0.4575520000000  0.4369700000000 1.0
C      1  0.5411520000000  0.5070230000000  0.4275020000000 1.0
C      1  0.4755330000000  0.5309150000000  0.4299640000000 1.0
C      1  0.5213380000000  0.4650910000000  0.4311520000000 1.0
C      1  0.4579950000000  0.5017460000000  0.4292950000000 1.0
C      1  0.5268200000000  0.5346880000000  0.4358980000000 1.0
C      1  0.5183980000000  0.5367240000000  0.5704410000000 1.0
C      1  0.4639720000000  0.4893350000000  0.5684420000000 1.0
C      1  0.5295050000000  0.4615920000000  0.5597270000000 1.0
C      1  0.5041970000000  0.4667970000000  0.5761180000000 1.0
C      1  0.5253340000000  0.4877640000000  0.4145160000000 1.0
C      1  0.5005370000000  0.5265330000000  0.4174740000000 1.0
C      1  0.4808370000000  0.5068920000000  0.5838580000000 1.0
C      1  0.5282770000000  0.5073720000000  0.5800950000000 1.0
C      1  0.4797290000000  0.4837400000000  0.4174600000000 1.0
C      1  0.5010640000000  0.4995300000000  0.4074900000000 1.0
C      1  0.5058980000000  0.4926370000000  0.5891510000000 1.0
END
