TITL C-3289333-7213-250 0.000325650059035266 125000 -377.368825040137 0 0 68 (C1) n - 1
REM
REM in /nfs/bkarasulu/CARBON/AIRSS/Generating-Clusters/AIREBO/with-SteepDescent/Higher-Symm/SD-CG/HFTN-CG
REM
REM
REM
REM
REM
REM ./C.cell (b20cbc046b6831c77cfcea5457e17084)
REM
REM compiler GCC version 9.2.1 20190827 (Red Hat 9.2.1-1)
REM options -cpp -mtune=generic -march=x86-64 -g -O0 -fpre-include=/usr/include/finclude/math-vector-fortran.h
REM seed 1080975988 -2108225519 -1691116101 204006869 1285373025 -10844850 -1777059889 -1976281055 129935491 1551257097 1823889130 1066445550 1843409924 540648676 -1782477642 -1477179948 1049304960 1215095262 -1011923255 -1169601585 -1482907889 1123148765 -422160763 -532001779 -1473501623 68091437 -800587045 -842733471 -428563117 1430962486 -1050784670 1409736356 -1325497713
REM
CELL 1.54180   50.00000   50.00000   50.00000   90.00000   90.00000   90.00000
LATT -1
SFAC C  
C      1  0.4768110000000  0.4794340000000  0.5501880000000 1.0
C      1  0.4695670000000  0.5223030000000  0.4614140000000 1.0
C      1  0.5316680000000  0.4744390000000  0.5648110000000 1.0
C      1  0.5323270000000  0.5273210000000  0.4349290000000 1.0
C      1  0.4618170000000  0.4653620000000  0.4445500000000 1.0
C      1  0.4589740000000  0.5445880000000  0.5535320000000 1.0
C      1  0.5359020000000  0.4665020000000  0.4619460000000 1.0
C      1  0.5318180000000  0.5412080000000  0.5485110000000 1.0
C      1  0.5111300000000  0.5138630000000  0.4912080000000 1.0
C      1  0.5145150000000  0.4720730000000  0.5097440000000 1.0
C      1  0.4812080000000  0.5113850000000  0.4873280000000 1.0
C      1  0.4889430000000  0.4796680000000  0.5184250000000 1.0
C      1  0.4844890000000  0.4395340000000  0.4991290000000 1.0
C      1  0.4792110000000  0.5672410000000  0.4985100000000 1.0
C      1  0.5144870000000  0.4337500000000  0.4985190000000 1.0
C      1  0.5075830000000  0.5604670000000  0.5038350000000 1.0
C      1  0.4499010000000  0.4633310000000  0.5221290000000 1.0
C      1  0.4421190000000  0.5448110000000  0.4795980000000 1.0
C      1  0.5616890000000  0.4593070000000  0.5216060000000 1.0
C      1  0.5506210000000  0.5397380000000  0.4812270000000 1.0
C      1  0.5182440000000  0.5004020000000  0.4267640000000 1.0
C      1  0.5141510000000  0.4979480000000  0.5734960000000 1.0
C      1  0.4915080000000  0.4988730000000  0.4205630000000 1.0
C      1  0.4841830000000  0.4942490000000  0.5754290000000 1.0
C      1  0.4754810000000  0.5197850000000  0.4293110000000 1.0
C      1  0.4764150000000  0.4803240000000  0.5988940000000 1.0
C      1  0.5419270000000  0.5416840000000  0.4124790000000 1.0
C      1  0.5488840000000  0.4650290000000  0.5848650000000 1.0
C      1  0.5126760000000  0.5457430000000  0.4539390000000 1.0
C      1  0.5173420000000  0.4518490000000  0.5478980000000 1.0
C      1  0.4847080000000  0.5501070000000  0.4528910000000 1.0
C      1  0.4893300000000  0.4508490000000  0.5460720000000 1.0
C      1  0.4138740000000  0.5102540000000  0.4812160000000 1.0
C      1  0.4145370000000  0.4889650000000  0.4947970000000 1.0
C      1  0.5757770000000  0.5098090000000  0.4826150000000 1.0
C      1  0.5866720000000  0.4858190000000  0.4887300000000 1.0
C      1  0.5621370000000  0.5417050000000  0.5336220000000 1.0
C      1  0.5603900000000  0.4480620000000  0.4753780000000 1.0
C      1  0.4363330000000  0.5523320000000  0.5305380000000 1.0
C      1  0.4392630000000  0.4540600000000  0.4666080000000 1.0
C      1  0.5205790000000  0.5421730000000  0.4833410000000 1.0
C      1  0.5319080000000  0.4490700000000  0.5212500000000 1.0
C      1  0.4660720000000  0.5598860000000  0.4745480000000 1.0
C      1  0.4711130000000  0.4443330000000  0.5236690000000 1.0
C      1  0.5566480000000  0.5199150000000  0.4562890000000 1.0
C      1  0.5462090000000  0.4841130000000  0.5361620000000 1.0
C      1  0.4388030000000  0.5160990000000  0.4618540000000 1.0
C      1  0.4545930000000  0.4942880000000  0.5324930000000 1.0
C      1  0.4389490000000  0.4701790000000  0.4932000000000 1.0
C      1  0.4415930000000  0.5391130000000  0.5072600000000 1.0
C      1  0.5739510000000  0.4616450000000  0.4965190000000 1.0
C      1  0.5614240000000  0.5255200000000  0.5072290000000 1.0
C      1  0.4367080000000  0.4881470000000  0.4458750000000 1.0
C      1  0.4396620000000  0.5171320000000  0.5491480000000 1.0
C      1  0.5614920000000  0.4871160000000  0.4531780000000 1.0
C      1  0.5519990000000  0.5135900000000  0.5469950000000 1.0
C      1  0.5379030000000  0.5043070000000  0.5109170000000 1.0
C      1  0.5268320000000  0.4862470000000  0.4844870000000 1.0
C      1  0.4646330000000  0.5181890000000  0.5134280000000 1.0
C      1  0.4704960000000  0.4828800000000  0.4941540000000 1.0
C      1  0.4784750000000  0.4591540000000  0.4719960000000 1.0
C      1  0.4772420000000  0.5471390000000  0.5260730000000 1.0
C      1  0.5104160000000  0.4472830000000  0.4701950000000 1.0
C      1  0.5101050000000  0.5526290000000  0.5328860000000 1.0
C      1  0.5298910000000  0.4763680000000  0.4307390000000 1.0
C      1  0.5244160000000  0.5233740000000  0.5741150000000 1.0
C      1  0.4791250000000  0.4733780000000  0.4204410000000 1.0
C      1  0.4701530000000  0.5225600000000  0.5743210000000 1.0
END
