TITL C-3289335-9438-372 0.000992590486904872 125000 -354.217893351235 0 0 64 (C1) n - 1
REM
REM in /nfs/bkarasulu/CARBON/AIRSS/Generating-Clusters/AIREBO/with-SteepDescent/Higher-Symm/SD-CG/HFTN-CG
REM
REM
REM
REM
REM
REM ./C.cell (b20cbc046b6831c77cfcea5457e17084)
REM
REM compiler GCC version 9.2.1 20190827 (Red Hat 9.2.1-1)
REM options -cpp -mtune=generic -march=x86-64 -g -O0 -fpre-include=/usr/include/finclude/math-vector-fortran.h
REM seed -1350538533 1341702087 1801724282 1638918705 -217958609 -848823455 622095675 1935472419 982516200 -583633683 1645311277 1337785428 -893468628 -1678077076 -880290579 1916752873 1701453170 -381164498 2093173372 -1821527356 -1229449755 -1573881830 1246693066 -206332360 270256852 1142886682 1840103640 -389686222 802030215 1997949054 1042229081 1173173410 1047559960
REM
CELL 1.54180   50.00000   50.00000   50.00000   90.00000   90.00000   90.00000
LATT -1
SFAC C  
C      1  0.4592020000000  0.4386930000000  0.5306350000000 1.0
C      1  0.5262500000000  0.4566500000000  0.4644780000000 1.0
C      1  0.4878700000000  0.4267360000000  0.5337660000000 1.0
C      1  0.5138950000000  0.4303240000000  0.4624740000000 1.0
C      1  0.5091960000000  0.4522400000000  0.5409030000000 1.0
C      1  0.4873200000000  0.4497100000000  0.4586770000000 1.0
C      1  0.5564620000000  0.5258980000000  0.5271640000000 1.0
C      1  0.4404120000000  0.5211330000000  0.4725130000000 1.0
C      1  0.4860620000000  0.4678030000000  0.5214350000000 1.0
C      1  0.5172450000000  0.4700240000000  0.4879180000000 1.0
C      1  0.5331580000000  0.4862610000000  0.5206850000000 1.0
C      1  0.4643180000000  0.4833580000000  0.4814330000000 1.0
C      1  0.4991280000000  0.5206590000000  0.4761920000000 1.0
C      1  0.4980490000000  0.5235440000000  0.5236930000000 1.0
C      1  0.4736980000000  0.5562220000000  0.4559670000000 1.0
C      1  0.5130600000000  0.5527780000000  0.5600370000000 1.0
C      1  0.4687020000000  0.5355830000000  0.5360900000000 1.0
C      1  0.5257390000000  0.5274210000000  0.4561200000000 1.0
C      1  0.5116140000000  0.4773150000000  0.5640900000000 1.0
C      1  0.4892140000000  0.4774670000000  0.4387680000000 1.0
C      1  0.5023960000000  0.5271820000000  0.5557420000000 1.0
C      1  0.4879980000000  0.5329120000000  0.4480070000000 1.0
C      1  0.5032850000000  0.4944850000000  0.5162870000000 1.0
C      1  0.4943990000000  0.4928340000000  0.4862490000000 1.0
C      1  0.4689940000000  0.5694610000000  0.5377920000000 1.0
C      1  0.5418850000000  0.5536120000000  0.4610280000000 1.0
C      1  0.5171020000000  0.5664870000000  0.5351690000000 1.0
C      1  0.4943850000000  0.5740440000000  0.4652430000000 1.0
C      1  0.5383200000000  0.4262400000000  0.5037790000000 1.0
C      1  0.4514690000000  0.4355150000000  0.4995520000000 1.0
C      1  0.4652800000000  0.5100370000000  0.5526260000000 1.0
C      1  0.5399930000000  0.5042020000000  0.4399840000000 1.0
C      1  0.4424800000000  0.5063530000000  0.4476500000000 1.0
C      1  0.5542810000000  0.5126990000000  0.5528060000000 1.0
C      1  0.4644890000000  0.4331920000000  0.4451340000000 1.0
C      1  0.5286600000000  0.4325820000000  0.5591660000000 1.0
C      1  0.5520120000000  0.4625070000000  0.4551940000000 1.0
C      1  0.4593150000000  0.4669590000000  0.5386420000000 1.0
C      1  0.4608110000000  0.4854380000000  0.4508500000000 1.0
C      1  0.5375280000000  0.4904720000000  0.5510180000000 1.0
C      1  0.4919180000000  0.5680960000000  0.5197340000000 1.0
C      1  0.5175590000000  0.5612810000000  0.4756920000000 1.0
C      1  0.4478690000000  0.4914360000000  0.5416880000000 1.0
C      1  0.5578960000000  0.4898540000000  0.4557110000000 1.0
C      1  0.5293720000000  0.4547610000000  0.5136520000000 1.0
C      1  0.4778290000000  0.4552160000000  0.4909030000000 1.0
C      1  0.5245030000000  0.4137300000000  0.4828080000000 1.0
C      1  0.4835850000000  0.4239260000000  0.5029550000000 1.0
C      1  0.5632550000000  0.5688770000000  0.5006640000000 1.0
C      1  0.4361110000000  0.5607610000000  0.5008160000000 1.0
C      1  0.4425870000000  0.5016800000000  0.4934590000000 1.0
C      1  0.5542420000000  0.5051700000000  0.5068270000000 1.0
C      1  0.4326940000000  0.4993070000000  0.5192490000000 1.0
C      1  0.5645550000000  0.5002170000000  0.4813940000000 1.0
C      1  0.4908970000000  0.5006960000000  0.5639980000000 1.0
C      1  0.5058410000000  0.5048990000000  0.4401750000000 1.0
C      1  0.5649340000000  0.5629410000000  0.4737150000000 1.0
C      1  0.4434490000000  0.5563970000000  0.5263240000000 1.0
C      1  0.4852450000000  0.5464630000000  0.4935420000000 1.0
C      1  0.5175130000000  0.5426190000000  0.5035670000000 1.0
C      1  0.5153850000000  0.4665580000000  0.5899880000000 1.0
C      1  0.4890510000000  0.4674930000000  0.4095900000000 1.0
C      1  0.5439230000000  0.5530890000000  0.5191270000000 1.0
C      1  0.4541110000000  0.5475010000000  0.4794640000000 1.0
END
