TITL C-3289325-7307-661 -0.00116593476545869 125000 -109.153117609023 0 0 24 (C1) n - 1
REM
REM in /nfs/bkarasulu/CARBON/AIRSS/Generating-Clusters/AIREBO/with-SteepDescent/Higher-Symm/SD-CG/HFTN-CG
REM
REM
REM
REM
REM
REM ./C.cell (b20cbc046b6831c77cfcea5457e17084)
REM
REM compiler GCC version 9.2.1 20190827 (Red Hat 9.2.1-1)
REM options -cpp -mtune=generic -march=x86-64 -g -O0 -fpre-include=/usr/include/finclude/math-vector-fortran.h
REM seed 883007179 -357813266 74277413 1781900933 -1242387499 2006874638 2028541733 878082604 -1113919516 847242203 920206138 -1263538744 39771045 -28075345 -1596924620 -1819535583 1332208598 -599769903 -320981850 988828458 1069023603 -121279387 1626523712 1389832487 -50400432 1527059440 994248137 431926753 906683983 -286143886 1931518410 -2142499636 1452771780
REM
CELL 1.54180   50.00000   50.00000   50.00000   90.00000   90.00000   90.00000
LATT -1
SFAC C  
C      1  0.4911710000000  0.4615740000000  0.5300660000000 1.0
C      1  0.4653730000000  0.4637290000000  0.5052170000000 1.0
C      1  0.4778530000000  0.4636730000000  0.4727210000000 1.0
C      1  0.5282280000000  0.4716060000000  0.4847850000000 1.0
C      1  0.5229150000000  0.4602700000000  0.5168660000000 1.0
C      1  0.4457050000000  0.5054920000000  0.4844760000000 1.0
C      1  0.5109890000000  0.4950700000000  0.4184340000000 1.0
C      1  0.5477040000000  0.5230710000000  0.4746190000000 1.0
C      1  0.5439420000000  0.5083660000000  0.5452700000000 1.0
C      1  0.4678240000000  0.4985260000000  0.5519880000000 1.0
C      1  0.4467480000000  0.4886380000000  0.5084150000000 1.0
C      1  0.4825380000000  0.4897810000000  0.4586070000000 1.0
C      1  0.5288940000000  0.4958050000000  0.4651290000000 1.0
C      1  0.5362290000000  0.4910810000000  0.5186000000000 1.0
C      1  0.4923320000000  0.4854580000000  0.5496610000000 1.0
C      1  0.5235930000000  0.5107650000000  0.4952080000000 1.0
C      1  0.5114020000000  0.5052980000000  0.5365990000000 1.0
C      1  0.4633830000000  0.5067000000000  0.5250000000000 1.0
C      1  0.4735150000000  0.5101370000000  0.4771880000000 1.0
C      1  0.5070710000000  0.4942560000000  0.4454060000000 1.0
C      1  0.4915600000000  0.5063160000000  0.5057660000000 1.0
C      1  0.5040470000000  0.5628020000000  0.5117380000000 1.0
C      1  0.5064650000000  0.5386890000000  0.5043480000000 1.0
C      1  0.4973110000000  0.4735190000000  0.4988200000000 1.0
END
