TITL C-3289328-6581-356 -2.26152906706248e-05 125000 -942.637522871204 0 0 177 (C1) n - 1
REM
REM in /nfs/bkarasulu/CARBON/AIRSS/Generating-Clusters/AIREBO/with-SteepDescent/Higher-Symm/SD-CG/HFTN-CG
REM
REM
REM
REM
REM
REM ./C.cell (b20cbc046b6831c77cfcea5457e17084)
REM
REM compiler GCC version 9.2.1 20190827 (Red Hat 9.2.1-1)
REM options -cpp -mtune=generic -march=x86-64 -g -O0 -fpre-include=/usr/include/finclude/math-vector-fortran.h
REM seed -1875831041 -1566545185 1929935615 -137594788 -527749742 1263724598 160177380 280404740 -1138581872 163116550 -210375172 1940819238 -1606519858 -849543739 1798880624 -1541211260 1571012454 -2129080612 1077348110 -1331521419 1647268679 274998861 969173321 -284683946 -156679910 534839425 1678914169 1458245596 423259181 -811588096 1044723438 -1964538231 -1112542580
REM
CELL 1.54180   50.00000   50.00000   50.00000   90.00000   90.00000   90.00000
LATT -1
SFAC C  
C      1  0.5389120000000  0.5877530000000  0.5205920000000 1.0
C      1  0.5472750000000  0.5972010000000  0.4883590000000 1.0
C      1  0.4643740000000  0.3917330000000  0.4721910000000 1.0
C      1  0.4707090000000  0.3991200000000  0.5436320000000 1.0
C      1  0.5415670000000  0.4206220000000  0.4471200000000 1.0
C      1  0.5371880000000  0.4175080000000  0.5507600000000 1.0
C      1  0.4175610000000  0.5116550000000  0.4775400000000 1.0
C      1  0.4211690000000  0.5008350000000  0.5246680000000 1.0
C      1  0.4361900000000  0.3933390000000  0.4676290000000 1.0
C      1  0.4433910000000  0.3929210000000  0.5454850000000 1.0
C      1  0.5002160000000  0.4035140000000  0.5459840000000 1.0
C      1  0.4934150000000  0.4080580000000  0.4653630000000 1.0
C      1  0.4681610000000  0.5871330000000  0.4845450000000 1.0
C      1  0.4646280000000  0.5966040000000  0.5130420000000 1.0
C      1  0.4388950000000  0.4729650000000  0.4105830000000 1.0
C      1  0.4281240000000  0.4807290000000  0.5892540000000 1.0
C      1  0.4683010000000  0.5479240000000  0.6060850000000 1.0
C      1  0.4733170000000  0.5422230000000  0.3992490000000 1.0
C      1  0.5798130000000  0.5428450000000  0.4828140000000 1.0
C      1  0.5781580000000  0.5346980000000  0.5142540000000 1.0
C      1  0.4986870000000  0.4704730000000  0.5553160000000 1.0
C      1  0.5040950000000  0.4753160000000  0.4481590000000 1.0
C      1  0.3977130000000  0.5032740000000  0.4594860000000 1.0
C      1  0.3910780000000  0.4970370000000  0.5355920000000 1.0
C      1  0.5098100000000  0.4450570000000  0.5175150000000 1.0
C      1  0.5234600000000  0.4486780000000  0.4883640000000 1.0
C      1  0.4694750000000  0.4150930000000  0.4942840000000 1.0
C      1  0.4740050000000  0.4234830000000  0.5236440000000 1.0
C      1  0.5014910000000  0.4969270000000  0.5360120000000 1.0
C      1  0.5077500000000  0.5050030000000  0.4461400000000 1.0
C      1  0.5636030000000  0.4730120000000  0.4210100000000 1.0
C      1  0.5521510000000  0.4748900000000  0.5745580000000 1.0
C      1  0.5239300000000  0.4487390000000  0.5484110000000 1.0
C      1  0.5251280000000  0.4495270000000  0.4544020000000 1.0
C      1  0.5848130000000  0.4675610000000  0.5685380000000 1.0
C      1  0.5956380000000  0.4752670000000  0.4180840000000 1.0
C      1  0.6055680000000  0.4560160000000  0.5201190000000 1.0
C      1  0.5998910000000  0.4611040000000  0.4657180000000 1.0
C      1  0.5702140000000  0.5011360000000  0.5844230000000 1.0
C      1  0.5675560000000  0.5063660000000  0.4157280000000 1.0
C      1  0.5228070000000  0.5740510000000  0.4297270000000 1.0
C      1  0.5227250000000  0.5656800000000  0.5817940000000 1.0
C      1  0.4990090000000  0.4670400000000  0.4789930000000 1.0
C      1  0.4823310000000  0.4650140000000  0.5192310000000 1.0
C      1  0.5133000000000  0.4053820000000  0.5211130000000 1.0
C      1  0.5174230000000  0.4093130000000  0.4894070000000 1.0
C      1  0.5639250000000  0.4542530000000  0.4817700000000 1.0
C      1  0.5591840000000  0.4476420000000  0.5151750000000 1.0
C      1  0.4595350000000  0.4841480000000  0.4797640000000 1.0
C      1  0.4654120000000  0.4937520000000  0.5125640000000 1.0
C      1  0.5079040000000  0.5739080000000  0.5182100000000 1.0
C      1  0.5146420000000  0.5877830000000  0.4899760000000 1.0
C      1  0.5421240000000  0.4897700000000  0.4594470000000 1.0
C      1  0.5520200000000  0.4931950000000  0.5340430000000 1.0
C      1  0.4584250000000  0.5798850000000  0.4454570000000 1.0
C      1  0.4489300000000  0.5825570000000  0.5546200000000 1.0
C      1  0.5027920000000  0.4674040000000  0.6022990000000 1.0
C      1  0.5146270000000  0.4643110000000  0.4021440000000 1.0
C      1  0.4918600000000  0.5155060000000  0.6020510000000 1.0
C      1  0.4897270000000  0.5187900000000  0.3882690000000 1.0
C      1  0.4858730000000  0.4654120000000  0.3910960000000 1.0
C      1  0.4843950000000  0.4875730000000  0.6119430000000 1.0
C      1  0.6037220000000  0.5400720000000  0.4668700000000 1.0
C      1  0.6013960000000  0.5356060000000  0.5319400000000 1.0
C      1  0.4337860000000  0.5418160000000  0.5652690000000 1.0
C      1  0.4276120000000  0.5371750000000  0.4487740000000 1.0
C      1  0.6194870000000  0.5073790000000  0.5087940000000 1.0
C      1  0.6094690000000  0.5031560000000  0.4806560000000 1.0
C      1  0.5279860000000  0.5089820000000  0.4201850000000 1.0
C      1  0.5288410000000  0.5090030000000  0.5747990000000 1.0
C      1  0.5270800000000  0.4957280000000  0.5174120000000 1.0
C      1  0.5214990000000  0.4914630000000  0.4841430000000 1.0
C      1  0.4233890000000  0.4159780000000  0.4796870000000 1.0
C      1  0.4254450000000  0.4106210000000  0.5327520000000 1.0
C      1  0.4442570000000  0.4407750000000  0.4473210000000 1.0
C      1  0.4439390000000  0.4522600000000  0.5557290000000 1.0
C      1  0.4977960000000  0.4372800000000  0.5956410000000 1.0
C      1  0.4968010000000  0.4448330000000  0.4233300000000 1.0
C      1  0.4197750000000  0.4404360000000  0.5402430000000 1.0
C      1  0.4170840000000  0.4412290000000  0.4626410000000 1.0
C      1  0.5287740000000  0.5492880000000  0.5460760000000 1.0
C      1  0.5259700000000  0.5625650000000  0.4614430000000 1.0
C      1  0.4718410000000  0.4535720000000  0.4826460000000 1.0
C      1  0.4539640000000  0.4478700000000  0.5110010000000 1.0
C      1  0.5047950000000  0.5290490000000  0.5736680000000 1.0
C      1  0.5154560000000  0.5394130000000  0.4116300000000 1.0
C      1  0.5482690000000  0.5515310000000  0.4305980000000 1.0
C      1  0.5477950000000  0.5441370000000  0.5738040000000 1.0
C      1  0.5621910000000  0.5135210000000  0.4845170000000 1.0
C      1  0.5720810000000  0.5033890000000  0.5154430000000 1.0
C      1  0.4919190000000  0.5447920000000  0.5106630000000 1.0
C      1  0.4995980000000  0.5376410000000  0.4777160000000 1.0
C      1  0.5637570000000  0.5753080000000  0.5373860000000 1.0
C      1  0.5628410000000  0.5690830000000  0.4754950000000 1.0
C      1  0.4677380000000  0.4902610000000  0.4055810000000 1.0
C      1  0.4569280000000  0.4979580000000  0.5947480000000 1.0
C      1  0.4408430000000  0.5877410000000  0.4696250000000 1.0
C      1  0.4442980000000  0.5859690000000  0.5279810000000 1.0
C      1  0.4231480000000  0.5142100000000  0.5808920000000 1.0
C      1  0.4296790000000  0.5172540000000  0.4263040000000 1.0
C      1  0.4416910000000  0.5355140000000  0.4796970000000 1.0
C      1  0.4421800000000  0.5182250000000  0.5083320000000 1.0
C      1  0.4678000000000  0.4303480000000  0.4635630000000 1.0
C      1  0.4742910000000  0.4489240000000  0.5453910000000 1.0
C      1  0.5324700000000  0.5243900000000  0.5092560000000 1.0
C      1  0.5305400000000  0.5234730000000  0.4769570000000 1.0
C      1  0.4563610000000  0.5494030000000  0.4457190000000 1.0
C      1  0.4618600000000  0.5449100000000  0.5507170000000 1.0
C      1  0.4313670000000  0.4696910000000  0.5156050000000 1.0
C      1  0.4283520000000  0.4867120000000  0.4880230000000 1.0
C      1  0.5454140000000  0.4258130000000  0.4792010000000 1.0
C      1  0.5384440000000  0.4267360000000  0.5184760000000 1.0
C      1  0.4515530000000  0.5201350000000  0.4071540000000 1.0
C      1  0.4486350000000  0.5309470000000  0.5943100000000 1.0
C      1  0.5885920000000  0.4379030000000  0.5086080000000 1.0
C      1  0.5921400000000  0.4354960000000  0.4788400000000 1.0
C      1  0.4406230000000  0.4517440000000  0.5871190000000 1.0
C      1  0.4463640000000  0.4462380000000  0.4162410000000 1.0
C      1  0.4180880000000  0.5548220000000  0.5435880000000 1.0
C      1  0.4085560000000  0.5543420000000  0.4677020000000 1.0
C      1  0.5648350000000  0.5699720000000  0.4464740000000 1.0
C      1  0.5697880000000  0.5673360000000  0.5633500000000 1.0
C      1  0.4924460000000  0.5575500000000  0.5874960000000 1.0
C      1  0.4942820000000  0.5653650000000  0.4127130000000 1.0
C      1  0.4922540000000  0.5112480000000  0.5065890000000 1.0
C      1  0.4780420000000  0.5114150000000  0.4756980000000 1.0
C      1  0.5079050000000  0.4229560000000  0.4419960000000 1.0
C      1  0.5097530000000  0.4261620000000  0.5695350000000 1.0
C      1  0.6091390000000  0.5109170000000  0.4502300000000 1.0
C      1  0.6117270000000  0.5048910000000  0.5418300000000 1.0
C      1  0.4970960000000  0.5906590000000  0.5527520000000 1.0
C      1  0.5000900000000  0.6017320000000  0.4474470000000 1.0
C      1  0.5352280000000  0.4812060000000  0.4091550000000 1.0
C      1  0.5208190000000  0.4787760000000  0.5797660000000 1.0
C      1  0.5586840000000  0.5231460000000  0.5973140000000 1.0
C      1  0.5482010000000  0.5308650000000  0.4037900000000 1.0
C      1  0.4249230000000  0.4879350000000  0.4346740000000 1.0
C      1  0.4241370000000  0.4902020000000  0.5568320000000 1.0
C      1  0.4754290000000  0.5130740000000  0.5705480000000 1.0
C      1  0.4878960000000  0.5124560000000  0.4216270000000 1.0
C      1  0.4699790000000  0.5542900000000  0.4758760000000 1.0
C      1  0.4585680000000  0.5452950000000  0.5181860000000 1.0
C      1  0.4003920000000  0.4675940000000  0.5467880000000 1.0
C      1  0.4018240000000  0.4702860000000  0.4523090000000 1.0
C      1  0.5837030000000  0.5116170000000  0.5584300000000 1.0
C      1  0.5799940000000  0.5197320000000  0.4421180000000 1.0
C      1  0.4883370000000  0.5982440000000  0.5259660000000 1.0
C      1  0.4933640000000  0.5993250000000  0.4750820000000 1.0
C      1  0.4556290000000  0.4838390000000  0.5510130000000 1.0
C      1  0.4511270000000  0.4733050000000  0.4486490000000 1.0
C      1  0.5344880000000  0.5602380000000  0.4920450000000 1.0
C      1  0.5499540000000  0.5493620000000  0.5203090000000 1.0
C      1  0.5084360000000  0.5390320000000  0.4448990000000 1.0
C      1  0.5034190000000  0.5306820000000  0.5397250000000 1.0
C      1  0.4723430000000  0.5229580000000  0.4472000000000 1.0
C      1  0.4650660000000  0.5124680000000  0.5409570000000 1.0
C      1  0.4772300000000  0.4712440000000  0.4321300000000 1.0
C      1  0.4723010000000  0.4737110000000  0.5765230000000 1.0
C      1  0.5553370000000  0.4637590000000  0.4502600000000 1.0
C      1  0.5537660000000  0.4641010000000  0.5423540000000 1.0
C      1  0.4817510000000  0.5877610000000  0.4317820000000 1.0
C      1  0.4775260000000  0.5700830000000  0.5637580000000 1.0
C      1  0.4705380000000  0.4404000000000  0.4035610000000 1.0
C      1  0.4703010000000  0.4465690000000  0.5920950000000 1.0
C      1  0.4221510000000  0.5715560000000  0.4837900000000 1.0
C      1  0.4299490000000  0.5629750000000  0.5127470000000 1.0
C      1  0.5462620000000  0.5208540000000  0.4462950000000 1.0
C      1  0.5504190000000  0.5168750000000  0.5536340000000 1.0
C      1  0.6136030000000  0.4885660000000  0.4294020000000 1.0
C      1  0.6059660000000  0.4786430000000  0.5610440000000 1.0
C      1  0.5810450000000  0.4845100000000  0.4816370000000 1.0
C      1  0.5960060000000  0.4834550000000  0.5122760000000 1.0
C      1  0.4011060000000  0.4541910000000  0.5153770000000 1.0
C      1  0.4066940000000  0.4627370000000  0.4851070000000 1.0
C      1  0.5273120000000  0.5824520000000  0.5522190000000 1.0
C      1  0.5324960000000  0.5947590000000  0.4550890000000 1.0
C      1  0.4319760000000  0.4224240000000  0.5058470000000 1.0
END
