TITL C-3289333-7213-242 9.45101833319314e-05 125000 -1030.91073730467 0 0 187 (C1) n - 1
REM
REM in /nfs/bkarasulu/CARBON/AIRSS/Generating-Clusters/AIREBO/with-SteepDescent/Higher-Symm/SD-CG/HFTN-CG
REM
REM
REM
REM
REM
REM ./C.cell (b20cbc046b6831c77cfcea5457e17084)
REM
REM compiler GCC version 9.2.1 20190827 (Red Hat 9.2.1-1)
REM options -cpp -mtune=generic -march=x86-64 -g -O0 -fpre-include=/usr/include/finclude/math-vector-fortran.h
REM seed -1168652366 393638315 -589477436 -245248572 850114718 2133577939 -840325710 1186702863 -1189917938 -1943784067 -827619593 1428780670 -119830427 374149472 904177244 693504133 -1082081441 -642795086 1972287234 -2108727032 1828064666 750035639 1660802786 -365489562 -2040810873 524670168 1232854977 -1358867167 1114422130 831808788 -1037321262 -2053789558 -1339985187
REM
CELL 1.54180   50.00000   50.00000   50.00000   90.00000   90.00000   90.00000
LATT -1
SFAC C  
C      1  0.5305390000000  0.5247980000000  0.5375130000000 1.0
C      1  0.5502340000000  0.5159280000000  0.4767780000000 1.0
C      1  0.4970800000000  0.5227160000000  0.4482560000000 1.0
C      1  0.4443630000000  0.5211300000000  0.4837520000000 1.0
C      1  0.4648990000000  0.5249390000000  0.5389570000000 1.0
C      1  0.5350830000000  0.4930650000000  0.5356490000000 1.0
C      1  0.5490010000000  0.4821090000000  0.4801260000000 1.0
C      1  0.4938190000000  0.4891520000000  0.4487840000000 1.0
C      1  0.4439720000000  0.4749410000000  0.4859330000000 1.0
C      1  0.4697710000000  0.4722620000000  0.5419940000000 1.0
C      1  0.5522950000000  0.5487800000000  0.4854230000000 1.0
C      1  0.5085390000000  0.5545130000000  0.4500530000000 1.0
C      1  0.4510410000000  0.5491800000000  0.4713390000000 1.0
C      1  0.4625130000000  0.5548530000000  0.5322920000000 1.0
C      1  0.5263050000000  0.5590830000000  0.5404230000000 1.0
C      1  0.5513480000000  0.4485990000000  0.4854910000000 1.0
C      1  0.5167240000000  0.4462100000000  0.4621320000000 1.0
C      1  0.4521270000000  0.4454460000000  0.4736230000000 1.0
C      1  0.4686820000000  0.4415350000000  0.5340190000000 1.0
C      1  0.5314230000000  0.4355920000000  0.5444690000000 1.0
C      1  0.5635030000000  0.4518570000000  0.4472100000000 1.0
C      1  0.4736570000000  0.4474790000000  0.4401410000000 1.0
C      1  0.4285150000000  0.4437750000000  0.5052910000000 1.0
C      1  0.4907640000000  0.4500890000000  0.5699320000000 1.0
C      1  0.5666080000000  0.4542540000000  0.5416090000000 1.0
C      1  0.5564530000000  0.5524930000000  0.4460450000000 1.0
C      1  0.4707670000000  0.5533860000000  0.4370660000000 1.0
C      1  0.4277040000000  0.5514590000000  0.5035810000000 1.0
C      1  0.4899600000000  0.5502110000000  0.5616960000000 1.0
C      1  0.5787680000000  0.5444540000000  0.5507170000000 1.0
C      1  0.5366710000000  0.5765660000000  0.4324320000000 1.0
C      1  0.4454930000000  0.5699450000000  0.4316410000000 1.0
C      1  0.4276170000000  0.5736360000000  0.5272690000000 1.0
C      1  0.5062790000000  0.5722170000000  0.5766750000000 1.0
C      1  0.5844260000000  0.5681240000000  0.5269410000000 1.0
C      1  0.5408310000000  0.4294570000000  0.4351200000000 1.0
C      1  0.4464930000000  0.4326240000000  0.4358530000000 1.0
C      1  0.4342540000000  0.4215990000000  0.5276260000000 1.0
C      1  0.5054520000000  0.4297860000000  0.5887220000000 1.0
C      1  0.5745960000000  0.4241580000000  0.5279270000000 1.0
C      1  0.4282640000000  0.4775630000000  0.4197720000000 1.0
C      1  0.4048190000000  0.4685770000000  0.5436890000000 1.0
C      1  0.5129240000000  0.4735000000000  0.6108020000000 1.0
C      1  0.6077610000000  0.4704010000000  0.5206580000000 1.0
C      1  0.5486250000000  0.4738320000000  0.4061160000000 1.0
C      1  0.4304940000000  0.5231450000000  0.4165810000000 1.0
C      1  0.4017020000000  0.5238600000000  0.5428220000000 1.0
C      1  0.5062950000000  0.5215230000000  0.6035670000000 1.0
C      1  0.6097640000000  0.5203970000000  0.5210210000000 1.0
C      1  0.5483210000000  0.5298540000000  0.4057350000000 1.0
C      1  0.4107470000000  0.5198680000000  0.4428740000000 1.0
C      1  0.4239850000000  0.5211200000000  0.5645240000000 1.0
C      1  0.5358520000000  0.5136590000000  0.5898000000000 1.0
C      1  0.6016490000000  0.5130180000000  0.4912880000000 1.0
C      1  0.5198660000000  0.5223350000000  0.4021980000000 1.0
C      1  0.4115270000000  0.4870720000000  0.4457240000000 1.0
C      1  0.4264350000000  0.4714250000000  0.5656050000000 1.0
C      1  0.5377560000000  0.4814930000000  0.5927580000000 1.0
C      1  0.6079340000000  0.4808570000000  0.4899140000000 1.0
C      1  0.5189950000000  0.4758990000000  0.4034350000000 1.0
C      1  0.4679730000000  0.4781640000000  0.4389920000000 1.0
C      1  0.4299400000000  0.4745450000000  0.5130900000000 1.0
C      1  0.4892230000000  0.4839720000000  0.5673130000000 1.0
C      1  0.5610620000000  0.4832440000000  0.5259790000000 1.0
C      1  0.5355010000000  0.4664880000000  0.4531110000000 1.0
C      1  0.4648290000000  0.5229600000000  0.4374330000000 1.0
C      1  0.4263500000000  0.5198480000000  0.5106090000000 1.0
C      1  0.4823780000000  0.5172130000000  0.5636710000000 1.0
C      1  0.5625750000000  0.5292660000000  0.5270270000000 1.0
C      1  0.5498940000000  0.5221230000000  0.4448820000000 1.0
C      1  0.4817590000000  0.5590840000000  0.4683010000000 1.0
C      1  0.4594290000000  0.5634910000000  0.5010180000000 1.0
C      1  0.4956480000000  0.5570070000000  0.5288580000000 1.0
C      1  0.5474660000000  0.5555210000000  0.5184030000000 1.0
C      1  0.5227100000000  0.5647150000000  0.4792480000000 1.0
C      1  0.4853280000000  0.4451760000000  0.4720200000000 1.0
C      1  0.4623530000000  0.4404420000000  0.5043780000000 1.0
C      1  0.5019290000000  0.4457960000000  0.5380900000000 1.0
C      1  0.5423350000000  0.4489080000000  0.5182780000000 1.0
C      1  0.5225190000000  0.4308730000000  0.4889720000000 1.0
C      1  0.4591240000000  0.5511630000000  0.5718800000000 1.0
C      1  0.5608720000000  0.5563060000000  0.5751320000000 1.0
C      1  0.5806460000000  0.5528360000000  0.4670700000000 1.0
C      1  0.4940490000000  0.5573530000000  0.4172110000000 1.0
C      1  0.4122480000000  0.5558260000000  0.4772950000000 1.0
C      1  0.4613330000000  0.4407280000000  0.5731530000000 1.0
C      1  0.5540330000000  0.4395290000000  0.5695580000000 1.0
C      1  0.5793310000000  0.4392250000000  0.4737350000000 1.0
C      1  0.4920430000000  0.4409160000000  0.4158370000000 1.0
C      1  0.4126700000000  0.4468230000000  0.4784670000000 1.0
C      1  0.4872180000000  0.3977900000000  0.5489870000000 1.0
C      1  0.5217500000000  0.3973210000000  0.5505600000000 1.0
C      1  0.5431700000000  0.4077000000000  0.4830350000000 1.0
C      1  0.4844880000000  0.4063790000000  0.4559330000000 1.0
C      1  0.4580660000000  0.4063280000000  0.4779320000000 1.0
C      1  0.4703650000000  0.6001630000000  0.5514270000000 1.0
C      1  0.5447310000000  0.5986980000000  0.5505390000000 1.0
C      1  0.5471900000000  0.5881860000000  0.4817980000000 1.0
C      1  0.4805710000000  0.5973440000000  0.4567270000000 1.0
C      1  0.4560150000000  0.5900690000000  0.4798950000000 1.0
C      1  0.4392830000000  0.5116950000000  0.5388090000000 1.0
C      1  0.5143090000000  0.5180020000000  0.5647290000000 1.0
C      1  0.5715610000000  0.5148720000000  0.5038680000000 1.0
C      1  0.5235020000000  0.5131370000000  0.4320260000000 1.0
C      1  0.4400590000000  0.5137900000000  0.4541560000000 1.0
C      1  0.4420330000000  0.4824590000000  0.5407760000000 1.0
C      1  0.5227600000000  0.4855240000000  0.5648400000000 1.0
C      1  0.5766920000000  0.4828510000000  0.4988570000000 1.0
C      1  0.5212450000000  0.4830000000000  0.4336400000000 1.0
C      1  0.4427520000000  0.4832420000000  0.4565010000000 1.0
C      1  0.4957750000000  0.5350320000000  0.3986260000000 1.0
C      1  0.3974060000000  0.5344060000000  0.4659590000000 1.0
C      1  0.4443500000000  0.5299510000000  0.5826150000000 1.0
C      1  0.5619890000000  0.5268170000000  0.5822750000000 1.0
C      1  0.5984350000000  0.5278410000000  0.4647740000000 1.0
C      1  0.4949830000000  0.4626410000000  0.3986870000000 1.0
C      1  0.4024140000000  0.4732160000000  0.4738150000000 1.0
C      1  0.4446080000000  0.4604250000000  0.5843090000000 1.0
C      1  0.5625580000000  0.4659610000000  0.5831010000000 1.0
C      1  0.5959900000000  0.4649690000000  0.4655620000000 1.0
C      1  0.4581120000000  0.4032360000000  0.4381720000000 1.0
C      1  0.4532990000000  0.4017180000000  0.5076400000000 1.0
C      1  0.4958470000000  0.4004180000000  0.5808770000000 1.0
C      1  0.5492570000000  0.4016750000000  0.5320840000000 1.0
C      1  0.5361550000000  0.4024880000000  0.4541550000000 1.0
C      1  0.4543820000000  0.5996140000000  0.4385310000000 1.0
C      1  0.4437520000000  0.5986570000000  0.5104830000000 1.0
C      1  0.4961440000000  0.5988400000000  0.5618720000000 1.0
C      1  0.5601370000000  0.5916480000000  0.5284130000000 1.0
C      1  0.5336590000000  0.5995290000000  0.4567320000000 1.0
C      1  0.4319460000000  0.5753170000000  0.4609320000000 1.0
C      1  0.4500950000000  0.5758540000000  0.5528430000000 1.0
C      1  0.5374160000000  0.5724650000000  0.5668970000000 1.0
C      1  0.5746200000000  0.5727270000000  0.4946520000000 1.0
C      1  0.5036980000000  0.5846450000000  0.4350450000000 1.0
C      1  0.4319230000000  0.4227970000000  0.4636990000000 1.0
C      1  0.4586780000000  0.4164370000000  0.5507650000000 1.0
C      1  0.5305240000000  0.4184940000000  0.5733170000000 1.0
C      1  0.5724300000000  0.4162910000000  0.4953510000000 1.0
C      1  0.5072500000000  0.4258300000000  0.4394100000000 1.0
C      1  0.4715040000000  0.4785460000000  0.3945280000000 1.0
C      1  0.3914280000000  0.4920190000000  0.4929760000000 1.0
C      1  0.4569700000000  0.4781710000000  0.6028500000000 1.0
C      1  0.5810790000000  0.4789130000000  0.5602650000000 1.0
C      1  0.5772120000000  0.4829490000000  0.4439270000000 1.0
C      1  0.4730860000000  0.5195190000000  0.3960860000000 1.0
C      1  0.3818140000000  0.5165610000000  0.4817350000000 1.0
C      1  0.4580880000000  0.5112050000000  0.5980980000000 1.0
C      1  0.5816780000000  0.5120020000000  0.5607180000000 1.0
C      1  0.5959950000000  0.5106970000000  0.4425320000000 1.0
C      1  0.4402100000000  0.6210890000000  0.4348190000000 1.0
C      1  0.4589600000000  0.6138100000000  0.5281970000000 1.0
C      1  0.5198740000000  0.6139090000000  0.5544270000000 1.0
C      1  0.5580640000000  0.6072580000000  0.5059610000000 1.0
C      1  0.5098800000000  0.6141690000000  0.4607350000000 1.0
C      1  0.4460750000000  0.3811040000000  0.4319170000000 1.0
C      1  0.4698690000000  0.3866460000000  0.5237980000000 1.0
C      1  0.5095680000000  0.3735620000000  0.5716160000000 1.0
C      1  0.5470690000000  0.3879600000000  0.5075720000000 1.0
C      1  0.5121300000000  0.3881530000000  0.4509070000000 1.0
C      1  0.6021730000000  0.4440350000000  0.5268060000000 1.0
C      1  0.5543420000000  0.4467030000000  0.4090860000000 1.0
C      1  0.4305480000000  0.4502390000000  0.4161610000000 1.0
C      1  0.4076660000000  0.4398350000000  0.5386660000000 1.0
C      1  0.5090350000000  0.4462810000000  0.6144080000000 1.0
C      1  0.6104760000000  0.5474110000000  0.5268010000000 1.0
C      1  0.5504170000000  0.5577510000000  0.4076150000000 1.0
C      1  0.4336700000000  0.5501420000000  0.4101130000000 1.0
C      1  0.4030250000000  0.5513010000000  0.5347950000000 1.0
C      1  0.5012090000000  0.5487450000000  0.6000170000000 1.0
C      1  0.5091970000000  0.4856380000000  0.4789520000000 1.0
C      1  0.4775560000000  0.4759530000000  0.4844360000000 1.0
C      1  0.4832700000000  0.4835020000000  0.5170930000000 1.0
C      1  0.5097270000000  0.4745600000000  0.5287400000000 1.0
C      1  0.5256930000000  0.4739400000000  0.5019780000000 1.0
C      1  0.4987440000000  0.5168030000000  0.4795830000000 1.0
C      1  0.4699240000000  0.5087980000000  0.4892210000000 1.0
C      1  0.4807570000000  0.5133170000000  0.5175570000000 1.0
C      1  0.5042550000000  0.5282930000000  0.5174480000000 1.0
C      1  0.5257030000000  0.5216660000000  0.4972180000000 1.0
C      1  0.5618070000000  0.5019220000000  0.4201950000000 1.0
C      1  0.4873490000000  0.4932020000000  0.5999950000000 1.0
C      1  0.4544010000000  0.4989450000000  0.4157080000000 1.0
C      1  0.6039160000000  0.4954460000000  0.5410310000000 1.0
C      1  0.4057920000000  0.4960580000000  0.5236130000000 1.0
C      1  0.4939230000000  0.5690850000000  0.4974240000000 1.0
C      1  0.4961830000000  0.4370950000000  0.5052390000000 1.0
END
