TITL C-3289331-6719-710 -0.00038974405060039 125000 -1013.7863254398 0 0 198 (C1) n - 1
REM
REM in /nfs/bkarasulu/CARBON/AIRSS/Generating-Clusters/AIREBO/with-SteepDescent/Higher-Symm/SD-CG/HFTN-CG
REM
REM
REM
REM
REM
REM ./C.cell (b20cbc046b6831c77cfcea5457e17084)
REM
REM compiler GCC version 9.2.1 20190827 (Red Hat 9.2.1-1)
REM options -cpp -mtune=generic -march=x86-64 -g -O0 -fpre-include=/usr/include/finclude/math-vector-fortran.h
REM seed 248199201 -1731668345 1294186630 -1245340195 -1915976308 1854907897 -717953 1580695533 2035023202 122492157 2078280832 987556552 -1571742002 -2021045510 894935965 921313164 -70464937 -161654647 -891264583 -535446939 1154130822 593040172 -1212234002 -2056747261 -518258712 -489763103 1936992058 -657092274 -746755516 -1151325666 1898941421 -870857115 -1064232883
REM
CELL 1.54180   50.00000   50.00000   50.00000   90.00000   90.00000   90.00000
LATT -1
SFAC C  
C      1  0.4533300000000  0.4661680000000  0.3887560000000 1.0
C      1  0.5434650000000  0.5294660000000  0.6050840000000 1.0
C      1  0.5069410000000  0.6151800000000  0.4942800000000 1.0
C      1  0.4928630000000  0.3977620000000  0.5038780000000 1.0
C      1  0.5774200000000  0.4285520000000  0.4635560000000 1.0
C      1  0.4231350000000  0.5739530000000  0.5361360000000 1.0
C      1  0.5906930000000  0.5525960000000  0.5470050000000 1.0
C      1  0.4101640000000  0.4471960000000  0.4547220000000 1.0
C      1  0.4446810000000  0.5380120000000  0.5313130000000 1.0
C      1  0.5596670000000  0.4661950000000  0.4730250000000 1.0
C      1  0.4404080000000  0.5956900000000  0.5451440000000 1.0
C      1  0.5601870000000  0.4012690000000  0.4527060000000 1.0
C      1  0.4168650000000  0.4739110000000  0.4738880000000 1.0
C      1  0.5818520000000  0.5269610000000  0.5264930000000 1.0
C      1  0.4449020000000  0.4260920000000  0.4727530000000 1.0
C      1  0.5525890000000  0.5740330000000  0.5295320000000 1.0
C      1  0.4350890000000  0.5600440000000  0.4437520000000 1.0
C      1  0.5664450000000  0.4387510000000  0.5569880000000 1.0
C      1  0.5724160000000  0.4246730000000  0.5266120000000 1.0
C      1  0.4311500000000  0.5725800000000  0.4751160000000 1.0
C      1  0.5253590000000  0.5464930000000  0.6052970000000 1.0
C      1  0.4685820000000  0.4471000000000  0.3929320000000 1.0
C      1  0.4714530000000  0.4841590000000  0.4334660000000 1.0
C      1  0.5243910000000  0.5094640000000  0.5576370000000 1.0
C      1  0.4024880000000  0.4901880000000  0.4302880000000 1.0
C      1  0.5968240000000  0.5097580000000  0.5688930000000 1.0
C      1  0.5056580000000  0.5292040000000  0.5751290000000 1.0
C      1  0.4948860000000  0.4639710000000  0.4178770000000 1.0
C      1  0.4767080000000  0.4605490000000  0.5059480000000 1.0
C      1  0.5247770000000  0.5417640000000  0.4940080000000 1.0
C      1  0.4441980000000  0.4646960000000  0.4275970000000 1.0
C      1  0.5518530000000  0.5284530000000  0.5552400000000 1.0
C      1  0.4770800000000  0.5638190000000  0.5569930000000 1.0
C      1  0.5207680000000  0.4340360000000  0.4436360000000 1.0
C      1  0.4893050000000  0.5206010000000  0.3802360000000 1.0
C      1  0.5102830000000  0.4786170000000  0.6209530000000 1.0
C      1  0.4678810000000  0.5571280000000  0.4135850000000 1.0
C      1  0.5333780000000  0.4412800000000  0.5851790000000 1.0
C      1  0.4008290000000  0.5052200000000  0.5800140000000 1.0
C      1  0.5978270000000  0.4975930000000  0.4194910000000 1.0
C      1  0.4439260000000  0.4409220000000  0.5429110000000 1.0
C      1  0.5556590000000  0.5606600000000  0.4578530000000 1.0
C      1  0.4624450000000  0.4907530000000  0.4785920000000 1.0
C      1  0.5439470000000  0.5150730000000  0.5241820000000 1.0
C      1  0.4937260000000  0.5726340000000  0.5343030000000 1.0
C      1  0.5045290000000  0.4286670000000  0.4677610000000 1.0
C      1  0.4770900000000  0.5793130000000  0.5104780000000 1.0
C      1  0.5236450000000  0.4198020000000  0.4898560000000 1.0
C      1  0.4495940000000  0.5048490000000  0.4493490000000 1.0
C      1  0.5499160000000  0.4899560000000  0.5464140000000 1.0
C      1  0.5775940000000  0.4573860000000  0.4455080000000 1.0
C      1  0.4246960000000  0.5459640000000  0.5553900000000 1.0
C      1  0.4465400000000  0.6145230000000  0.5247140000000 1.0
C      1  0.5536250000000  0.3832980000000  0.4735070000000 1.0
C      1  0.5531890000000  0.4851200000000  0.3928540000000 1.0
C      1  0.4466000000000  0.5153180000000  0.6060780000000 1.0
C      1  0.4890790000000  0.4915420000000  0.5430180000000 1.0
C      1  0.5123450000000  0.5101960000000  0.4552870000000 1.0
C      1  0.4046540000000  0.5281290000000  0.5344860000000 1.0
C      1  0.5989850000000  0.4733670000000  0.4665630000000 1.0
C      1  0.4194410000000  0.4322110000000  0.5028300000000 1.0
C      1  0.5778570000000  0.5732420000000  0.4986320000000 1.0
C      1  0.5333240000000  0.4671140000000  0.4953010000000 1.0
C      1  0.4810200000000  0.5295800000000  0.5116590000000 1.0
C      1  0.6054100000000  0.4949040000000  0.5162910000000 1.0
C      1  0.3962090000000  0.5072820000000  0.4837100000000 1.0
C      1  0.5791770000000  0.4382140000000  0.4961530000000 1.0
C      1  0.4243690000000  0.5617540000000  0.5042960000000 1.0
C      1  0.4997640000000  0.4352290000000  0.5803000000000 1.0
C      1  0.5006790000000  0.5638030000000  0.4195780000000 1.0
C      1  0.5266060000000  0.6022490000000  0.5083760000000 1.0
C      1  0.4645230000000  0.4017430000000  0.4861550000000 1.0
C      1  0.5408180000000  0.4537610000000  0.3888100000000 1.0
C      1  0.4528550000000  0.5462990000000  0.6161680000000 1.0
C      1  0.5411950000000  0.5790290000000  0.4421390000000 1.0
C      1  0.4587410000000  0.4217290000000  0.5578700000000 1.0
C      1  0.5421910000000  0.4026490000000  0.4313460000000 1.0
C      1  0.4590780000000  0.5976510000000  0.5678240000000 1.0
C      1  0.5160770000000  0.4789020000000  0.5165290000000 1.0
C      1  0.4867950000000  0.5214100000000  0.4835250000000 1.0
C      1  0.4773930000000  0.5338650000000  0.5611380000000 1.0
C      1  0.5194970000000  0.4649230000000  0.4419110000000 1.0
C      1  0.5478770000000  0.5880220000000  0.4923360000000 1.0
C      1  0.4472840000000  0.4148680000000  0.5109670000000 1.0
C      1  0.4507600000000  0.5330170000000  0.4303000000000 1.0
C      1  0.5504950000000  0.4657040000000  0.5702590000000 1.0
C      1  0.4650430000000  0.5145770000000  0.5360030000000 1.0
C      1  0.5319520000000  0.4847940000000  0.4665330000000 1.0
C      1  0.5142820000000  0.4693930000000  0.5488850000000 1.0
C      1  0.4857950000000  0.5312550000000  0.4524660000000 1.0
C      1  0.5549430000000  0.5077310000000  0.4766310000000 1.0
C      1  0.4453090000000  0.4909630000000  0.5248120000000 1.0
C      1  0.4759390000000  0.5027560000000  0.5723100000000 1.0
C      1  0.5255100000000  0.4940610000000  0.4282440000000 1.0
C      1  0.5598050000000  0.5572760000000  0.5558820000000 1.0
C      1  0.4401040000000  0.4383540000000  0.4431860000000 1.0
C      1  0.4425500000000  0.4916320000000  0.4069050000000 1.0
C      1  0.5547130000000  0.5086950000000  0.5828320000000 1.0
C      1  0.5200950000000  0.5087330000000  0.5007130000000 1.0
C      1  0.4897400000000  0.4912110000000  0.4988960000000 1.0
C      1  0.5324160000000  0.5754190000000  0.5635260000000 1.0
C      1  0.4660520000000  0.4207560000000  0.4377030000000 1.0
C      1  0.4647110000000  0.5515650000000  0.4698220000000 1.0
C      1  0.5353580000000  0.4479480000000  0.5325910000000 1.0
C      1  0.4234810000000  0.4717650000000  0.5071750000000 1.0
C      1  0.5755160000000  0.5292020000000  0.4931500000000 1.0
C      1  0.4795680000000  0.5867020000000  0.4273970000000 1.0
C      1  0.5212460000000  0.4125580000000  0.5716050000000 1.0
C      1  0.4897050000000  0.5315460000000  0.4186800000000 1.0
C      1  0.5114090000000  0.4671350000000  0.5827890000000 1.0
C      1  0.3945090000000  0.4636920000000  0.4318210000000 1.0
C      1  0.6062060000000  0.5354700000000  0.5683310000000 1.0
C      1  0.5533520000000  0.5508350000000  0.5059590000000 1.0
C      1  0.4463260000000  0.4510680000000  0.4939830000000 1.0
C      1  0.5128310000000  0.5495190000000  0.5240130000000 1.0
C      1  0.4892380000000  0.4554600000000  0.4747500000000 1.0
C      1  0.4663040000000  0.5659890000000  0.6096750000000 1.0
C      1  0.5188810000000  0.4452250000000  0.4027320000000 1.0
C      1  0.4154270000000  0.5350090000000  0.4456820000000 1.0
C      1  0.5855510000000  0.4641000000000  0.5530260000000 1.0
C      1  0.4889650000000  0.3769680000000  0.5308580000000 1.0
C      1  0.5091780000000  0.6263470000000  0.4652410000000 1.0
C      1  0.4391340000000  0.5300070000000  0.4697020000000 1.0
C      1  0.5635410000000  0.4661660000000  0.5270890000000 1.0
C      1  0.4571950000000  0.5528650000000  0.5034820000000 1.0
C      1  0.5463920000000  0.4399640000000  0.5013340000000 1.0
C      1  0.4801910000000  0.4116940000000  0.4610390000000 1.0
C      1  0.5219410000000  0.5868240000000  0.5350040000000 1.0
C      1  0.5220380000000  0.5956570000000  0.4580030000000 1.0
C      1  0.4782110000000  0.4078200000000  0.5409660000000 1.0
C      1  0.5206580000000  0.5726360000000  0.4803440000000 1.0
C      1  0.4789460000000  0.4273720000000  0.5131550000000 1.0
C      1  0.4030140000000  0.4695280000000  0.5342560000000 1.0
C      1  0.5966170000000  0.5347500000000  0.4670530000000 1.0
C      1  0.5057940000000  0.4909550000000  0.4014200000000 1.0
C      1  0.4968820000000  0.5081360000000  0.5977690000000 1.0
C      1  0.5809420000000  0.5617730000000  0.4694600000000 1.0
C      1  0.4177060000000  0.4415930000000  0.5326010000000 1.0
C      1  0.5226290000000  0.4872120000000  0.3780810000000 1.0
C      1  0.4783150000000  0.5158130000000  0.6183300000000 1.0
C      1  0.5819300000000  0.5000560000000  0.5408600000000 1.0
C      1  0.4171410000000  0.4988860000000  0.4576340000000 1.0
C      1  0.4602590000000  0.5844150000000  0.4622450000000 1.0
C      1  0.5416390000000  0.4148610000000  0.5373360000000 1.0
C      1  0.4899930000000  0.4849350000000  0.4596640000000 1.0
C      1  0.5043090000000  0.5209880000000  0.5349200000000 1.0
C      1  0.4591390000000  0.4837030000000  0.6045170000000 1.0
C      1  0.5416570000000  0.5169890000000  0.3960300000000 1.0
C      1  0.4840280000000  0.4316730000000  0.4166690000000 1.0
C      1  0.5106160000000  0.5622920000000  0.5812610000000 1.0
C      1  0.3969440000000  0.4503410000000  0.4864680000000 1.0
C      1  0.6000590000000  0.5526650000000  0.5141280000000 1.0
C      1  0.5221870000000  0.3948840000000  0.5208630000000 1.0
C      1  0.4785080000000  0.6046050000000  0.4785710000000 1.0
C      1  0.4713250000000  0.4354680000000  0.5794230000000 1.0
C      1  0.5291110000000  0.5643100000000  0.4211040000000 1.0
C      1  0.4858160000000  0.4697890000000  0.6058860000000 1.0
C      1  0.5146220000000  0.5295140000000  0.3956120000000 1.0
C      1  0.4220310000000  0.5025910000000  0.5462590000000 1.0
C      1  0.5774630000000  0.4964430000000  0.4538780000000 1.0
C      1  0.4916410000000  0.5639480000000  0.4864790000000 1.0
C      1  0.5103710000000  0.4327980000000  0.5161390000000 1.0
C      1  0.5494450000000  0.4389210000000  0.4462890000000 1.0
C      1  0.4493370000000  0.5597010000000  0.5727010000000 1.0
C      1  0.5770390000000  0.4858000000000  0.5777790000000 1.0
C      1  0.4238250000000  0.5140320000000  0.4202680000000 1.0
C      1  0.4003350000000  0.5378280000000  0.5011390000000 1.0
C      1  0.6018340000000  0.4634760000000  0.4997580000000 1.0
C      1  0.5755040000000  0.4767650000000  0.4175820000000 1.0
C      1  0.4249820000000  0.5228780000000  0.5805800000000 1.0
C      1  0.4194670000000  0.4064880000000  0.4798670000000 1.0
C      1  0.5754570000000  0.5954990000000  0.5244130000000 1.0
C      1  0.5143850000000  0.4163570000000  0.4173390000000 1.0
C      1  0.4814650000000  0.5793810000000  0.5858300000000 1.0
C      1  0.3907090000000  0.4799970000000  0.5033150000000 1.0
C      1  0.6087040000000  0.5232120000000  0.4976030000000 1.0
C      1  0.4433300000000  0.5086190000000  0.4958040000000 1.0
C      1  0.5603880000000  0.4934380000000  0.5070200000000 1.0
C      1  0.5911770000000  0.5218860000000  0.4382780000000 1.0
C      1  0.4082620000000  0.4790780000000  0.5653050000000 1.0
C      1  0.5661470000000  0.5290750000000  0.4162890000000 1.0
C      1  0.4348030000000  0.4704440000000  0.5848050000000 1.0
C      1  0.4916960000000  0.6039820000000  0.4472320000000 1.0
C      1  0.5079000000000  0.3967610000000  0.5510060000000 1.0
C      1  0.4454240000000  0.4983290000000  0.5701510000000 1.0
C      1  0.5551280000000  0.5003070000000  0.4295620000000 1.0
C      1  0.4153950000000  0.5109300000000  0.5080100000000 1.0
C      1  0.5872450000000  0.4903960000000  0.4917270000000 1.0
C      1  0.4654390000000  0.6080300000000  0.5072810000000 1.0
C      1  0.5357780000000  0.3901070000000  0.4919540000000 1.0
C      1  0.4473310000000  0.5867900000000  0.4306930000000 1.0
C      1  0.5537850000000  0.4111580000000  0.5688790000000 1.0
C      1  0.4745840000000  0.5037200000000  0.4058260000000 1.0
C      1  0.5277010000000  0.4938770000000  0.5960560000000 1.0
C      1  0.5387790000000  0.5379160000000  0.4297250000000 1.0
C      1  0.4626440000000  0.4623690000000  0.5708800000000 1.0
C      1  0.5365600000000  0.5330480000000  0.4633130000000 1.0
C      1  0.4650630000000  0.4669680000000  0.5372600000000 1.0
END
