TITL C-3289322-3858-144 -131.403260849568 125000 -742.425467779212 0 0 139 (C1) n - 1
REM
REM in /nfs/bkarasulu/CARBON/AIRSS/Generating-Clusters/AIREBO/with-SteepDescent/Higher-Symm/SD-CG/HFTN-CG
REM
REM
REM
REM
REM
REM ./C.cell (b20cbc046b6831c77cfcea5457e17084)
REM
REM compiler GCC version 9.2.1 20190827 (Red Hat 9.2.1-1)
REM options -cpp -mtune=generic -march=x86-64 -g -O0 -fpre-include=/usr/include/finclude/math-vector-fortran.h
REM seed 789597481 -327911682 427602846 1057145956 -1840752648 -1062731926 1278085924 -2084184487 -1150895524 -527118454 806387678 452653498 1039488855 246475290 596744339 2031671438 398595756 -903382164 -626031757 1874666380 -1862506992 1310133985 -2028232623 1302718105 848999248 -349673392 1826184931 -148192410 1721964867 314053910 -2059603680 1076706805 172106509
REM
CELL 1.54180   50.00000   50.00000   50.00000   90.00000   90.00000   90.00000
LATT -1
SFAC C  
C      1  0.5235520000000  0.4072250000000  0.4657420000000 1.0
C      1  0.4592200000000  0.5183660000000  0.4956150000000 1.0
C      1  0.4562620000000  0.5830610000000  0.4812150000000 1.0
C      1  0.5239030000000  0.4468530000000  0.5666170000000 1.0
C      1  0.5437890000000  0.4726980000000  0.4777500000000 1.0
C      1  0.5280140000000  0.5098210000000  0.5836140000000 1.0
C      1  0.4784460000000  0.4628480000000  0.5887260000000 1.0
C      1  0.4794550000000  0.4192320000000  0.4527000000000 1.0
C      1  0.5362930000000  0.5435160000000  0.5637480000000 1.0
C      1  0.5000120000000  0.5543370000000  0.5302610000000 1.0
C      1  0.4555340000000  0.4336400000000  0.4537270000000 1.0
C      1  0.4077470000000  0.4776420000000  0.4883990000000 1.0
C      1  0.5023190000000  0.5393900000000  0.4375170000000 1.0
C      1  0.4131380000000  0.5111880000000  0.4492230000000 1.0
C      1  0.3907850000000  0.5326600000000  0.4920840000000 1.0
C      1  0.5893490000000  0.4974610000000  0.5474070000000 1.0
C      1  0.5939190000000  0.4943050000000  0.4731130000000 1.0
C      1  0.5174780000000  0.4838050000000  0.4929850000000 1.0
C      1  0.5613110000000  0.4890930000000  0.5875530000000 1.0
C      1  0.5901190000000  0.5057670000000  0.5049000000000 1.0
C      1  0.5293770000000  0.5385370000000  0.5307290000000 1.0
C      1  0.4883110000000  0.5274470000000  0.5572600000000 1.0
C      1  0.4659130000000  0.4840420000000  0.4408450000000 1.0
C      1  0.5102320000000  0.5162920000000  0.4956380000000 1.0
C      1  0.4750110000000  0.5743930000000  0.5324760000000 1.0
C      1  0.5109060000000  0.5153560000000  0.5396430000000 1.0
C      1  0.5043340000000  0.4744770000000  0.5699850000000 1.0
C      1  0.4464230000000  0.5168630000000  0.5242800000000 1.0
C      1  0.4627740000000  0.5361890000000  0.5432620000000 1.0
C      1  0.5318250000000  0.5046040000000  0.4286340000000 1.0
C      1  0.5607400000000  0.4613030000000  0.4505570000000 1.0
C      1  0.5559860000000  0.5254580000000  0.4314160000000 1.0
C      1  0.4548710000000  0.4841080000000  0.5971590000000 1.0
C      1  0.4214330000000  0.4845080000000  0.4394310000000 1.0
C      1  0.3931520000000  0.5186930000000  0.5149350000000 1.0
C      1  0.4235310000000  0.5767760000000  0.5035240000000 1.0
C      1  0.4961820000000  0.4077500000000  0.4735100000000 1.0
C      1  0.3898620000000  0.4883210000000  0.5126810000000 1.0
C      1  0.5847520000000  0.4542370000000  0.5081130000000 1.0
C      1  0.4969900000000  0.4640050000000  0.5384620000000 1.0
C      1  0.3964270000000  0.4728460000000  0.5417000000000 1.0
C      1  0.4888720000000  0.4865650000000  0.4085100000000 1.0
C      1  0.4074920000000  0.5021030000000  0.5552080000000 1.0
C      1  0.4734930000000  0.5866090000000  0.4528890000000 1.0
C      1  0.5843440000000  0.5511100000000  0.5147550000000 1.0
C      1  0.4144810000000  0.5672800000000  0.4806890000000 1.0
C      1  0.4366310000000  0.5086960000000  0.4736750000000 1.0
C      1  0.5238560000000  0.5130960000000  0.4585330000000 1.0
C      1  0.4945540000000  0.4692890000000  0.5068790000000 1.0
C      1  0.4217610000000  0.4668590000000  0.4617930000000 1.0
C      1  0.5837780000000  0.4820630000000  0.4366080000000 1.0
C      1  0.4908370000000  0.5066440000000  0.4359030000000 1.0
C      1  0.4077270000000  0.5377130000000  0.4651620000000 1.0
C      1  0.4396740000000  0.4871150000000  0.5304230000000 1.0
C      1  0.5426200000000  0.5817620000000  0.4983970000000 1.0
C      1  0.5632440000000  0.5400700000000  0.4917840000000 1.0
C      1  0.5033370000000  0.4585010000000  0.4117280000000 1.0
C      1  0.5316510000000  0.5880220000000  0.5296550000000 1.0
C      1  0.5575640000000  0.5230120000000  0.5806100000000 1.0
C      1  0.5742960000000  0.5443460000000  0.4614100000000 1.0
C      1  0.5176020000000  0.5430650000000  0.4668900000000 1.0
C      1  0.4278800000000  0.5619490000000  0.4529690000000 1.0
C      1  0.4946040000000  0.5919440000000  0.4790100000000 1.0
C      1  0.4708190000000  0.5564850000000  0.4966420000000 1.0
C      1  0.5948810000000  0.4658620000000  0.4712510000000 1.0
C      1  0.5478240000000  0.4217610000000  0.5471520000000 1.0
C      1  0.4896640000000  0.4139580000000  0.5036810000000 1.0
C      1  0.5029260000000  0.5238900000000  0.5938150000000 1.0
C      1  0.4494780000000  0.4560250000000  0.4351740000000 1.0
C      1  0.5310120000000  0.4777040000000  0.5911590000000 1.0
C      1  0.5794780000000  0.5132210000000  0.4487080000000 1.0
C      1  0.6052710000000  0.4772050000000  0.5090920000000 1.0
C      1  0.5340720000000  0.5726710000000  0.4667660000000 1.0
C      1  0.5301770000000  0.4617800000000  0.4077750000000 1.0
C      1  0.4720510000000  0.5357540000000  0.4696940000000 1.0
C      1  0.4374770000000  0.4762400000000  0.4140510000000 1.0
C      1  0.4392740000000  0.5328700000000  0.5750240000000 1.0
C      1  0.4535320000000  0.5121230000000  0.5859460000000 1.0
C      1  0.4573690000000  0.5588510000000  0.4494860000000 1.0
C      1  0.4402740000000  0.4832390000000  0.4965760000000 1.0
C      1  0.5529010000000  0.4650270000000  0.5083100000000 1.0
C      1  0.4991680000000  0.4378280000000  0.4337230000000 1.0
C      1  0.4722280000000  0.4324730000000  0.5280220000000 1.0
C      1  0.4243440000000  0.4354620000000  0.5090110000000 1.0
C      1  0.4822190000000  0.4746930000000  0.4666180000000 1.0
C      1  0.5262770000000  0.4207770000000  0.4406250000000 1.0
C      1  0.4525050000000  0.4601350000000  0.4748230000000 1.0
C      1  0.5037770000000  0.5624640000000  0.4907190000000 1.0
C      1  0.4626950000000  0.5343820000000  0.4309160000000 1.0
C      1  0.4686290000000  0.4534150000000  0.5512540000000 1.0
C      1  0.5742600000000  0.5783040000000  0.5002440000000 1.0
C      1  0.4461940000000  0.5626010000000  0.5193280000000 1.0
C      1  0.4867110000000  0.5305270000000  0.5118250000000 1.0
C      1  0.4843440000000  0.5012710000000  0.5764720000000 1.0
C      1  0.4782490000000  0.5594330000000  0.5628970000000 1.0
C      1  0.4829190000000  0.5010020000000  0.5282590000000 1.0
C      1  0.5343280000000  0.5443590000000  0.4270500000000 1.0
C      1  0.5422770000000  0.4768360000000  0.4266000000000 1.0
C      1  0.4750850000000  0.5947350000000  0.5070120000000 1.0
C      1  0.5967850000000  0.5276090000000  0.4793440000000 1.0
C      1  0.4066540000000  0.4571960000000  0.5140140000000 1.0
C      1  0.5024640000000  0.4495940000000  0.4642650000000 1.0
C      1  0.5819530000000  0.4661550000000  0.5393910000000 1.0
C      1  0.5204940000000  0.5710690000000  0.5516000000000 1.0
C      1  0.5754230000000  0.5259280000000  0.5553910000000 1.0
C      1  0.4305590000000  0.5465010000000  0.5450110000000 1.0
C      1  0.4523930000000  0.4389660000000  0.5014390000000 1.0
C      1  0.5262170000000  0.4953100000000  0.5543790000000 1.0
C      1  0.4074770000000  0.5247850000000  0.5382240000000 1.0
C      1  0.5546860000000  0.4543490000000  0.5541640000000 1.0
C      1  0.5355840000000  0.4404430000000  0.5141670000000 1.0
C      1  0.5498380000000  0.4196370000000  0.4834020000000 1.0
C      1  0.5993280000000  0.5244840000000  0.5299090000000 1.0
C      1  0.5332340000000  0.5502520000000  0.5028800000000 1.0
C      1  0.4590470000000  0.4848720000000  0.3969400000000 1.0
C      1  0.4916040000000  0.5077990000000  0.4684890000000 1.0
C      1  0.5816610000000  0.5551080000000  0.5474120000000 1.0
C      1  0.4522550000000  0.5116290000000  0.4446870000000 1.0
C      1  0.5503160000000  0.4325990000000  0.4361030000000 1.0
C      1  0.5309980000000  0.4456300000000  0.4721950000000 1.0
C      1  0.5522310000000  0.4145240000000  0.5167790000000 1.0
C      1  0.5820970000000  0.4769470000000  0.5718980000000 1.0
C      1  0.4853480000000  0.5342600000000  0.4085040000000 1.0
C      1  0.4968530000000  0.4106800000000  0.5366760000000 1.0
C      1  0.5722950000000  0.4446790000000  0.4778920000000 1.0
C      1  0.5419890000000  0.5145520000000  0.4872750000000 1.0
C      1  0.5078280000000  0.5542480000000  0.5789470000000 1.0
C      1  0.4471090000000  0.4619100000000  0.5740790000000 1.0
C      1  0.5591700000000  0.4984380000000  0.5093020000000 1.0
C      1  0.4670090000000  0.4873820000000  0.5506940000000 1.0
C      1  0.5040480000000  0.5748930000000  0.4509190000000 1.0
C      1  0.5595200000000  0.5671470000000  0.4516460000000 1.0
C      1  0.4260920000000  0.4739280000000  0.5574160000000 1.0
C      1  0.5106260000000  0.5121430000000  0.4030980000000 1.0
C      1  0.5195630000000  0.4172130000000  0.5585720000000 1.0
C      1  0.5114830000000  0.4390670000000  0.5263790000000 1.0
C      1  0.5456480000000  0.4822060000000  0.5367480000000 1.0
C      1  0.4846820000000  0.4439810000000  0.4919590000000 1.0
C      1  0.4727740000000  0.4895990000000  0.5014930000000 1.0
END
