TITL C-3289322-3858-303 0.00454073817947363 125000 -435.98450822785 0 0 80 (C3) n - 1
REM
REM in /nfs/bkarasulu/CARBON/AIRSS/Generating-Clusters/AIREBO/with-SteepDescent/Higher-Symm/SD-CG/HFTN-CG
REM
REM
REM
REM
REM
REM ./C.cell (b20cbc046b6831c77cfcea5457e17084)
REM
REM compiler GCC version 9.2.1 20190827 (Red Hat 9.2.1-1)
REM options -cpp -mtune=generic -march=x86-64 -g -O0 -fpre-include=/usr/include/finclude/math-vector-fortran.h
REM seed 1555443645 1299262444 222594168 -246297914 1478864430 665731327 1083085484 -1743152858 236843605 -1336466995 -2126044004 -1443376381 1932988415 -1792074346 -1472181686 1436955654 595270304 -870157578 -31006493 -843248457 -1361755235 1243123135 577421580 -2040023827 -1429995508 -1843515524 -434605161 -364260545 -998646487 -42992643 -1413053976 -273219296 -900799534
REM
CELL 1.54180   50.00000   50.00000   50.00000   90.00000   90.00000   90.00000
LATT -1
SFAC C  
C      1  0.4830440000000  0.4847900000000  0.5691100000000 1.0
C      1  0.4774720000000  0.5757360000000  0.4873050000000 1.0
C      1  0.5738980000000  0.4828490000000  0.4782950000000 1.0
C      1  0.5128440000000  0.4751230000000  0.4350850000000 1.0
C      1  0.5163730000000  0.5219080000000  0.5748790000000 1.0
C      1  0.4863250000000  0.5217510000000  0.4244670000000 1.0
C      1  0.5240990000000  0.5651180000000  0.5138250000000 1.0
C      1  0.5144330000000  0.4310930000000  0.4840240000000 1.0
C      1  0.4773140000000  0.4253240000000  0.5173540000000 1.0
C      1  0.4341040000000  0.4863780000000  0.5250800000000 1.0
C      1  0.4234860000000  0.5128980000000  0.4784520000000 1.0
C      1  0.5681290000000  0.5161780000000  0.5154140000000 1.0
C      1  0.4832700000000  0.5168400000000  0.5742530000000 1.0
C      1  0.4823830000000  0.4259500000000  0.4842510000000 1.0
C      1  0.5732730000000  0.5159520000000  0.4833640000000 1.0
C      1  0.5148470000000  0.5358210000000  0.4296430000000 1.0
C      1  0.5133840000000  0.4749190000000  0.5660200000000 1.0
C      1  0.4881740000000  0.4878020000000  0.4264550000000 1.0
C      1  0.5243030000000  0.4341830000000  0.5143650000000 1.0
C      1  0.5114200000000  0.5737480000000  0.4891550000000 1.0
C      1  0.4634010000000  0.5705600000000  0.5158280000000 1.0
C      1  0.4254750000000  0.5110480000000  0.5124010000000 1.0
C      1  0.4286620000000  0.4843750000000  0.4643810000000 1.0
C      1  0.5650390000000  0.4858380000000  0.5252840000000 1.0
C      1  0.4580860000000  0.4749200000000  0.5095230000000 1.0
C      1  0.4629200000000  0.5096770000000  0.4461160000000 1.0
C      1  0.5156030000000  0.4639930000000  0.4755190000000 1.0
C      1  0.5418870000000  0.4796520000000  0.4846580000000 1.0
C      1  0.5352290000000  0.5246840000000  0.5165840000000 1.0
C      1  0.4451350000000  0.5363030000000  0.4905270000000 1.0
C      1  0.5195700000000  0.5155450000000  0.5428670000000 1.0
C      1  0.5243020000000  0.4906800000000  0.4590670000000 1.0
C      1  0.4745380000000  0.4836190000000  0.5362100000000 1.0
C      1  0.4836770000000  0.4573360000000  0.5205510000000 1.0
C      1  0.4895460000000  0.5540870000000  0.4639000000000 1.0
C      1  0.5085430000000  0.5411360000000  0.5252830000000 1.0
C      1  0.4538340000000  0.5282420000000  0.5198570000000 1.0
C      1  0.4709800000000  0.4803460000000  0.4548150000000 1.0
C      1  0.5188760000000  0.5453880000000  0.4719610000000 1.0
C      1  0.5432840000000  0.5312860000000  0.4881980000000 1.0
C      1  0.5382460000000  0.4793130000000  0.5135530000000 1.0
C      1  0.4524880000000  0.4713280000000  0.4804350000000 1.0
C      1  0.5199090000000  0.4866500000000  0.5392270000000 1.0
C      1  0.5278940000000  0.5197680000000  0.4534690000000 1.0
C      1  0.4679360000000  0.5120050000000  0.5442640000000 1.0
C      1  0.4794540000000  0.5467340000000  0.5288750000000 1.0
C      1  0.4872170000000  0.4559390000000  0.4689170000000 1.0
C      1  0.5125720000000  0.4609760000000  0.5208900000000 1.0
C      1  0.5162130000000  0.4447610000000  0.5615410000000 1.0
C      1  0.4480730000000  0.5676280000000  0.5419230000000 1.0
C      1  0.5591760000000  0.5090950000000  0.4531880000000 1.0
C      1  0.4843800000000  0.4331200000000  0.4448650000000 1.0
C      1  0.4901270000000  0.5470160000000  0.5601560000000 1.0
C      1  0.5409430000000  0.5511490000000  0.4325760000000 1.0
C      1  0.5661030000000  0.5553370000000  0.4853600000000 1.0
C      1  0.5544610000000  0.4386620000000  0.5171940000000 1.0
C      1  0.4522070000000  0.4400470000000  0.4911080000000 1.0
C      1  0.4438850000000  0.5148430000000  0.5670830000000 1.0
C      1  0.4315950000000  0.4582800000000  0.4490540000000 1.0
C      1  0.5605600000000  0.4830090000000  0.5554420000000 1.0
C      1  0.5242880000000  0.5504130000000  0.5614760000000 1.0
C      1  0.4488090000000  0.4387280000000  0.5252690000000 1.0
C      1  0.5604950000000  0.4749340000000  0.4497900000000 1.0
C      1  0.4747870000000  0.5475530000000  0.4417330000000 1.0
C      1  0.4824500000000  0.4513450000000  0.5629990000000 1.0
C      1  0.5154160000000  0.4461000000000  0.4398900000000 1.0
C      1  0.5478770000000  0.4372040000000  0.4834310000000 1.0
C      1  0.5531230000000  0.5603130000000  0.5163970000000 1.0
C      1  0.4516700000000  0.5584700000000  0.4757680000000 1.0
C      1  0.4389090000000  0.4838060000000  0.5541030000000 1.0
C      1  0.4407520000000  0.5244350000000  0.4526500000000 1.0
C      1  0.5620180000000  0.5167720000000  0.5488580000000 1.0
C      1  0.4560220000000  0.5460420000000  0.5611360000000 1.0
C      1  0.5455850000000  0.4490800000000  0.4539420000000 1.0
C      1  0.5601550000000  0.5432000000000  0.4541610000000 1.0
C      1  0.5448300000000  0.4543920000000  0.5458110000000 1.0
C      1  0.4531800000000  0.4390670000000  0.4570030000000 1.0
C      1  0.4529610000000  0.4536380000000  0.5511230000000 1.0
C      1  0.4450390000000  0.5541840000000  0.4460190000000 1.0
C      1  0.5501430000000  0.5462610000000  0.5465660000000 1.0
END
