TITL C-3289332-8317-386 0.00114723807715101 125000 -641.044900350834 0 0 121 (C1) n - 1
REM
REM in /nfs/bkarasulu/CARBON/AIRSS/Generating-Clusters/AIREBO/with-SteepDescent/Higher-Symm/SD-CG/HFTN-CG
REM
REM
REM
REM
REM
REM ./C.cell (b20cbc046b6831c77cfcea5457e17084)
REM
REM compiler GCC version 9.2.1 20190827 (Red Hat 9.2.1-1)
REM options -cpp -mtune=generic -march=x86-64 -g -O0 -fpre-include=/usr/include/finclude/math-vector-fortran.h
REM seed 1363425267 -1983680546 790778377 -2103098014 1353633175 1597791452 -536304491 446552349 -366507502 198151612 273013555 -634097538 -2081670781 -1296421427 1066774009 1139857464 -131176162 -2124106546 -1320094474 293321134 -736575841 -1558661582 263546551 381039420 -278048188 -130009323 -1600686454 642635722 1238728681 -764737790 395264806 -1638969570 -22678872
REM
CELL 1.54180   50.00000   50.00000   50.00000   90.00000   90.00000   90.00000
LATT -1
SFAC C  
C      1  0.4958200000000  0.4598850000000  0.5819730000000 1.0
C      1  0.5087150000000  0.4190800000000  0.4528650000000 1.0
C      1  0.4815850000000  0.5431280000000  0.4183590000000 1.0
C      1  0.5157850000000  0.5977790000000  0.5406110000000 1.0
C      1  0.5005670000000  0.5073940000000  0.4277260000000 1.0
C      1  0.4956260000000  0.5776140000000  0.5081180000000 1.0
C      1  0.5026660000000  0.4959460000000  0.5624160000000 1.0
C      1  0.4948190000000  0.4281300000000  0.4974450000000 1.0
C      1  0.5560800000000  0.4437240000000  0.5732790000000 1.0
C      1  0.4435420000000  0.4277660000000  0.4345350000000 1.0
C      1  0.5437100000000  0.5522400000000  0.4307800000000 1.0
C      1  0.4649670000000  0.5616980000000  0.5624320000000 1.0
C      1  0.5812110000000  0.5056380000000  0.4925200000000 1.0
C      1  0.4039270000000  0.5146420000000  0.5022310000000 1.0
C      1  0.5897550000000  0.4807480000000  0.5141030000000 1.0
C      1  0.4118890000000  0.4901610000000  0.4810440000000 1.0
C      1  0.4731440000000  0.5092650000000  0.5467740000000 1.0
C      1  0.5419510000000  0.4417140000000  0.5251590000000 1.0
C      1  0.4749930000000  0.4636290000000  0.4463370000000 1.0
C      1  0.5307910000000  0.5555280000000  0.4684240000000 1.0
C      1  0.5271580000000  0.5893590000000  0.5032270000000 1.0
C      1  0.4761170000000  0.4945050000000  0.5836190000000 1.0
C      1  0.5264110000000  0.4196970000000  0.4882970000000 1.0
C      1  0.4667390000000  0.4986030000000  0.4085830000000 1.0
C      1  0.5311300000000  0.5357740000000  0.4910040000000 1.0
C      1  0.4526370000000  0.5019790000000  0.5272510000000 1.0
C      1  0.5363670000000  0.4657170000000  0.5078690000000 1.0
C      1  0.4728460000000  0.4932320000000  0.4629760000000 1.0
C      1  0.5619930000000  0.5148150000000  0.5848900000000 1.0
C      1  0.4365480000000  0.4273650000000  0.5063860000000 1.0
C      1  0.5511270000000  0.4864460000000  0.4301990000000 1.0
C      1  0.4378760000000  0.5775520000000  0.4867780000000 1.0
C      1  0.5657540000000  0.4461650000000  0.4687480000000 1.0
C      1  0.4431830000000  0.5255370000000  0.4439010000000 1.0
C      1  0.5619780000000  0.5554360000000  0.5286060000000 1.0
C      1  0.4346640000000  0.4617310000000  0.5541610000000 1.0
C      1  0.4935370000000  0.4109010000000  0.5259470000000 1.0
C      1  0.4951200000000  0.4802090000000  0.4121020000000 1.0
C      1  0.5021260000000  0.5925500000000  0.4787010000000 1.0
C      1  0.4992280000000  0.5229370000000  0.5828240000000 1.0
C      1  0.4383760000000  0.5559250000000  0.4596660000000 1.0
C      1  0.5629060000000  0.5369830000000  0.5600480000000 1.0
C      1  0.4391850000000  0.4370160000000  0.5329920000000 1.0
C      1  0.5748010000000  0.4646700000000  0.4412280000000 1.0
C      1  0.5507450000000  0.4896390000000  0.5562870000000 1.0
C      1  0.4369610000000  0.4626540000000  0.4673050000000 1.0
C      1  0.5642600000000  0.5208000000000  0.4596550000000 1.0
C      1  0.4396520000000  0.5438680000000  0.5232800000000 1.0
C      1  0.4205230000000  0.5301210000000  0.4679830000000 1.0
C      1  0.5779000000000  0.5267340000000  0.5332030000000 1.0
C      1  0.4210260000000  0.4829860000000  0.5407340000000 1.0
C      1  0.5872030000000  0.4722400000000  0.4713540000000 1.0
C      1  0.5157110000000  0.5767470000000  0.5665380000000 1.0
C      1  0.5054200000000  0.4362470000000  0.5676060000000 1.0
C      1  0.4987630000000  0.4328730000000  0.4265430000000 1.0
C      1  0.4907910000000  0.5651670000000  0.4381780000000 1.0
C      1  0.5398710000000  0.5801520000000  0.4757440000000 1.0
C      1  0.4604120000000  0.5203220000000  0.5738330000000 1.0
C      1  0.5432000000000  0.4193470000000  0.5098660000000 1.0
C      1  0.4571060000000  0.4732880000000  0.4210350000000 1.0
C      1  0.4997370000000  0.5487620000000  0.5210000000000 1.0
C      1  0.5126230000000  0.4686530000000  0.5457240000000 1.0
C      1  0.5096000000000  0.4581480000000  0.4914070000000 1.0
C      1  0.4980040000000  0.5175310000000  0.4600860000000 1.0
C      1  0.5271060000000  0.5107450000000  0.5439480000000 1.0
C      1  0.4731840000000  0.4537170000000  0.5071990000000 1.0
C      1  0.5220830000000  0.4935380000000  0.4609810000000 1.0
C      1  0.4662250000000  0.5423740000000  0.5016360000000 1.0
C      1  0.5407450000000  0.4989320000000  0.5966760000000 1.0
C      1  0.4552160000000  0.4106760000000  0.4923390000000 1.0
C      1  0.5327140000000  0.5057640000000  0.4166190000000 1.0
C      1  0.4633070000000  0.5911970000000  0.5047590000000 1.0
C      1  0.4880700000000  0.4261520000000  0.5481310000000 1.0
C      1  0.5084150000000  0.4585370000000  0.4228080000000 1.0
C      1  0.4849480000000  0.5778440000000  0.4613360000000 1.0
C      1  0.5094160000000  0.5464810000000  0.5735530000000 1.0
C      1  0.3971010000000  0.5458290000000  0.4997160000000 1.0
C      1  0.5996840000000  0.4909800000000  0.5449770000000 1.0
C      1  0.3999430000000  0.4611840000000  0.4821370000000 1.0
C      1  0.5986920000000  0.5100690000000  0.4671420000000 1.0
C      1  0.4584860000000  0.4769520000000  0.4894090000000 1.0
C      1  0.5424820000000  0.5064930000000  0.4803080000000 1.0
C      1  0.4671910000000  0.5084450000000  0.4994260000000 1.0
C      1  0.5333060000000  0.4992580000000  0.5125390000000 1.0
C      1  0.4390600000000  0.4958110000000  0.4600060000000 1.0
C      1  0.5622350000000  0.5315320000000  0.5041180000000 1.0
C      1  0.4219930000000  0.5155780000000  0.5299220000000 1.0
C      1  0.5857780000000  0.4515350000000  0.4969310000000 1.0
C      1  0.5820670000000  0.5009040000000  0.5632230000000 1.0
C      1  0.4212350000000  0.4430150000000  0.4895760000000 1.0
C      1  0.5804370000000  0.4982320000000  0.4419790000000 1.0
C      1  0.4201940000000  0.5605470000000  0.5050120000000 1.0
C      1  0.4994140000000  0.4727810000000  0.4686620000000 1.0
C      1  0.4971770000000  0.5333890000000  0.4907510000000 1.0
C      1  0.4980520000000  0.5201680000000  0.5306890000000 1.0
C      1  0.4985880000000  0.4689540000000  0.5204180000000 1.0
C      1  0.4650310000000  0.5627150000000  0.4768210000000 1.0
C      1  0.5321430000000  0.5435220000000  0.5515710000000 1.0
C      1  0.4688760000000  0.4475820000000  0.5403650000000 1.0
C      1  0.5299070000000  0.4651050000000  0.4440470000000 1.0
C      1  0.4436420000000  0.5579110000000  0.5502370000000 1.0
C      1  0.5657200000000  0.4669680000000  0.5754260000000 1.0
C      1  0.4278970000000  0.4461650000000  0.4421540000000 1.0
C      1  0.5630370000000  0.5465210000000  0.4461030000000 1.0
C      1  0.4828920000000  0.5986960000000  0.5315600000000 1.0
C      1  0.5180850000000  0.4826990000000  0.5893180000000 1.0
C      1  0.4802420000000  0.4160420000000  0.4715560000000 1.0
C      1  0.5125000000000  0.5321900000000  0.4095980000000 1.0
C      1  0.4720190000000  0.4314320000000  0.4446100000000 1.0
C      1  0.5133750000000  0.5422600000000  0.4424630000000 1.0
C      1  0.4900140000000  0.5688310000000  0.5466660000000 1.0
C      1  0.5325890000000  0.4424870000000  0.5543270000000 1.0
C      1  0.5592190000000  0.4799270000000  0.4890700000000 1.0
C      1  0.4358500000000  0.5193750000000  0.4920020000000 1.0
C      1  0.5642370000000  0.4985350000000  0.5276090000000 1.0
C      1  0.4310920000000  0.4835890000000  0.5084270000000 1.0
C      1  0.4615020000000  0.5239950000000  0.4199470000000 1.0
C      1  0.5341500000000  0.5709550000000  0.5309770000000 1.0
C      1  0.4657750000000  0.4670450000000  0.5673770000000 1.0
C      1  0.5361200000000  0.4369390000000  0.4621580000000 1.0
C      1  0.4986920000000  0.4979220000000  0.5082620000000 1.0
END
