TITL C-3289333-7213-393 -0.000436142677945048 125000 -708.499015255185 0 0 129 (C1) n - 1
REM
REM in /nfs/bkarasulu/CARBON/AIRSS/Generating-Clusters/AIREBO/with-SteepDescent/Higher-Symm/SD-CG/HFTN-CG
REM
REM
REM
REM
REM
REM ./C.cell (b20cbc046b6831c77cfcea5457e17084)
REM
REM compiler GCC version 9.2.1 20190827 (Red Hat 9.2.1-1)
REM options -cpp -mtune=generic -march=x86-64 -g -O0 -fpre-include=/usr/include/finclude/math-vector-fortran.h
REM seed 1662613834 1853248041 933284893 254526845 -513125723 1785688158 -378693096 272426151 386497016 893032161 -1754822399 -2079270754 -1589516801 488995010 2064126045 -2063038483 -1712519074 -1644909162 1834625877 -162577684 -443082998 1955130043 804644253 1518213916 27313927 -1399695783 297485224 1824822201 1650996780 46381928 790237086 423139731 -915073126
REM
CELL 1.54180   50.00000   50.00000   50.00000   90.00000   90.00000   90.00000
LATT -1
SFAC C  
C      1  0.4929360000000  0.4717330000000  0.4089750000000 1.0
C      1  0.4754860000000  0.4770940000000  0.5640890000000 1.0
C      1  0.5219350000000  0.4733320000000  0.5233290000000 1.0
C      1  0.4690500000000  0.4290030000000  0.4275250000000 1.0
C      1  0.4444440000000  0.5242560000000  0.4493100000000 1.0
C      1  0.4511550000000  0.5191190000000  0.5201770000000 1.0
C      1  0.4597270000000  0.5446960000000  0.4689550000000 1.0
C      1  0.3978520000000  0.5387270000000  0.4387820000000 1.0
C      1  0.4908200000000  0.5051960000000  0.5402000000000 1.0
C      1  0.5112620000000  0.5938150000000  0.5501960000000 1.0
C      1  0.5051620000000  0.5958870000000  0.4973010000000 1.0
C      1  0.4464180000000  0.4759960000000  0.5816960000000 1.0
C      1  0.4986810000000  0.4130410000000  0.5196250000000 1.0
C      1  0.4091910000000  0.5233170000000  0.4837100000000 1.0
C      1  0.4154940000000  0.5286970000000  0.4571670000000 1.0
C      1  0.4806280000000  0.4385490000000  0.5734480000000 1.0
C      1  0.5396760000000  0.4443500000000  0.5220460000000 1.0
C      1  0.4491630000000  0.4658650000000  0.4556310000000 1.0
C      1  0.4703710000000  0.5641490000000  0.4448630000000 1.0
C      1  0.4501830000000  0.5429520000000  0.5707890000000 1.0
C      1  0.4717940000000  0.4121530000000  0.5277550000000 1.0
C      1  0.4042240000000  0.4659290000000  0.4904210000000 1.0
C      1  0.5612110000000  0.5175710000000  0.4240090000000 1.0
C      1  0.4760560000000  0.4505100000000  0.5428910000000 1.0
C      1  0.5699140000000  0.4184010000000  0.5217480000000 1.0
C      1  0.5622250000000  0.5765190000000  0.4943050000000 1.0
C      1  0.4766740000000  0.5288920000000  0.5563620000000 1.0
C      1  0.5714120000000  0.4667270000000  0.5098000000000 1.0
C      1  0.5423700000000  0.4919880000000  0.5409820000000 1.0
C      1  0.5803090000000  0.4371290000000  0.5349580000000 1.0
C      1  0.5265210000000  0.5358220000000  0.5900620000000 1.0
C      1  0.4865210000000  0.4897550000000  0.5151660000000 1.0
C      1  0.4383490000000  0.4736140000000  0.5280460000000 1.0
C      1  0.4684710000000  0.4140030000000  0.5566660000000 1.0
C      1  0.4524670000000  0.4921560000000  0.4414200000000 1.0
C      1  0.3987470000000  0.4983200000000  0.4898350000000 1.0
C      1  0.5096160000000  0.4821110000000  0.4436370000000 1.0
C      1  0.4665820000000  0.5530380000000  0.5346190000000 1.0
C      1  0.5136200000000  0.5089160000000  0.5945130000000 1.0
C      1  0.4523300000000  0.4275240000000  0.5043780000000 1.0
C      1  0.5813020000000  0.5287520000000  0.4912470000000 1.0
C      1  0.5413730000000  0.5207940000000  0.5685740000000 1.0
C      1  0.5097670000000  0.4521590000000  0.4312300000000 1.0
C      1  0.5653920000000  0.5283460000000  0.5562240000000 1.0
C      1  0.5887160000000  0.5209460000000  0.4401070000000 1.0
C      1  0.5803900000000  0.5564850000000  0.4937860000000 1.0
C      1  0.5902810000000  0.4841170000000  0.4976350000000 1.0
C      1  0.5121520000000  0.4630300000000  0.4797060000000 1.0
C      1  0.4877580000000  0.4795750000000  0.6016760000000 1.0
C      1  0.5329540000000  0.5610840000000  0.4717090000000 1.0
C      1  0.5660990000000  0.5562230000000  0.5551090000000 1.0
C      1  0.4413760000000  0.4865710000000  0.4126820000000 1.0
C      1  0.5345310000000  0.4834950000000  0.4642300000000 1.0
C      1  0.5218900000000  0.4891540000000  0.4127370000000 1.0
C      1  0.4643450000000  0.4369120000000  0.4539320000000 1.0
C      1  0.5203730000000  0.5625220000000  0.5834560000000 1.0
C      1  0.4111760000000  0.5144880000000  0.5557100000000 1.0
C      1  0.4350570000000  0.5322860000000  0.5471630000000 1.0
C      1  0.4709420000000  0.5504270000000  0.5005820000000 1.0
C      1  0.5155510000000  0.4969910000000  0.4997100000000 1.0
C      1  0.5740350000000  0.4683590000000  0.5436690000000 1.0
C      1  0.5373600000000  0.5733190000000  0.5577170000000 1.0
C      1  0.5096500000000  0.5279630000000  0.4434580000000 1.0
C      1  0.5262500000000  0.4446240000000  0.5515460000000 1.0
C      1  0.5992310000000  0.4864300000000  0.4691230000000 1.0
C      1  0.5028800000000  0.5497540000000  0.5504470000000 1.0
C      1  0.5197530000000  0.5137630000000  0.5461290000000 1.0
C      1  0.4805990000000  0.4417780000000  0.4063210000000 1.0
C      1  0.5610540000000  0.4384520000000  0.4731820000000 1.0
C      1  0.4073130000000  0.5125100000000  0.5262920000000 1.0
C      1  0.4579920000000  0.4965060000000  0.5423330000000 1.0
C      1  0.5285960000000  0.5336350000000  0.5256890000000 1.0
C      1  0.5022460000000  0.4330620000000  0.4923760000000 1.0
C      1  0.4908430000000  0.5292780000000  0.4848930000000 1.0
C      1  0.5733210000000  0.5033420000000  0.5368750000000 1.0
C      1  0.5378440000000  0.5393950000000  0.4170990000000 1.0
C      1  0.4844380000000  0.5057340000000  0.5801250000000 1.0
C      1  0.4786090000000  0.5820540000000  0.5105950000000 1.0
C      1  0.5647220000000  0.5175110000000  0.4637670000000 1.0
C      1  0.4233300000000  0.5352420000000  0.5091220000000 1.0
C      1  0.5431460000000  0.5345910000000  0.4807670000000 1.0
C      1  0.5304430000000  0.5223190000000  0.5014560000000 1.0
C      1  0.5675080000000  0.4836340000000  0.4648650000000 1.0
C      1  0.4519420000000  0.4569730000000  0.4873370000000 1.0
C      1  0.5308120000000  0.5785060000000  0.5009370000000 1.0
C      1  0.5603490000000  0.4685790000000  0.4377110000000 1.0
C      1  0.5430990000000  0.4580600000000  0.4930810000000 1.0
C      1  0.4334090000000  0.4974970000000  0.5665410000000 1.0
C      1  0.4548170000000  0.5238560000000  0.4165090000000 1.0
C      1  0.5864440000000  0.5091940000000  0.5100610000000 1.0
C      1  0.6091430000000  0.5043780000000  0.4492930000000 1.0
C      1  0.4709270000000  0.4941070000000  0.4060100000000 1.0
C      1  0.4473430000000  0.5823080000000  0.4972270000000 1.0
C      1  0.5359050000000  0.5121300000000  0.4460620000000 1.0
C      1  0.4964590000000  0.4548160000000  0.5904670000000 1.0
C      1  0.4875350000000  0.5216700000000  0.4116150000000 1.0
C      1  0.5183810000000  0.4149790000000  0.5384820000000 1.0
C      1  0.5240910000000  0.4159640000000  0.4738750000000 1.0
C      1  0.4810750000000  0.5095200000000  0.4427090000000 1.0
C      1  0.5455250000000  0.4189650000000  0.5001760000000 1.0
C      1  0.5170590000000  0.5209060000000  0.4047910000000 1.0
C      1  0.4892570000000  0.5859400000000  0.4723680000000 1.0
C      1  0.4520890000000  0.5540760000000  0.4209390000000 1.0
C      1  0.4618290000000  0.5627350000000  0.5861090000000 1.0
C      1  0.4510430000000  0.4504860000000  0.5275520000000 1.0
C      1  0.4200850000000  0.4564120000000  0.4633550000000 1.0
C      1  0.5076700000000  0.4721300000000  0.5543150000000 1.0
C      1  0.5264410000000  0.4343960000000  0.4456340000000 1.0
C      1  0.5248440000000  0.5634800000000  0.5283560000000 1.0
C      1  0.4597290000000  0.5843130000000  0.4701250000000 1.0
C      1  0.5275140000000  0.4541590000000  0.5835550000000 1.0
C      1  0.4894000000000  0.5704070000000  0.5738610000000 1.0
C      1  0.4378170000000  0.5616280000000  0.5186080000000 1.0
C      1  0.5027140000000  0.5604030000000  0.4793900000000 1.0
C      1  0.4998160000000  0.5013920000000  0.4698910000000 1.0
C      1  0.4959950000000  0.4529500000000  0.5192480000000 1.0
C      1  0.4738840000000  0.4251420000000  0.4781780000000 1.0
C      1  0.4806450000000  0.4726060000000  0.4884580000000 1.0
C      1  0.5172790000000  0.3890880000000  0.4684900000000 1.0
C      1  0.4826280000000  0.5825960000000  0.5428410000000 1.0
C      1  0.5492380000000  0.4738280000000  0.5663030000000 1.0
C      1  0.5319690000000  0.5602320000000  0.4376950000000 1.0
C      1  0.5521230000000  0.4869850000000  0.4178980000000 1.0
C      1  0.5539900000000  0.4423680000000  0.4460000000000 1.0
C      1  0.5310300000000  0.4867030000000  0.5920680000000 1.0
C      1  0.4225800000000  0.4376300000000  0.4913620000000 1.0
C      1  0.5003660000000  0.5579340000000  0.4397670000000 1.0
C      1  0.4684780000000  0.5054230000000  0.4942370000000 1.0
C      1  0.4136060000000  0.4836790000000  0.5160760000000 1.0
END
