TITL C-3289335-9438-399 0.00348539501307618 125000 -151.967253054061 0 0 31 (C3) n - 1
REM
REM in /nfs/bkarasulu/CARBON/AIRSS/Generating-Clusters/AIREBO/with-SteepDescent/Higher-Symm/SD-CG/HFTN-CG
REM
REM
REM
REM
REM
REM ./C.cell (b20cbc046b6831c77cfcea5457e17084)
REM
REM compiler GCC version 9.2.1 20190827 (Red Hat 9.2.1-1)
REM options -cpp -mtune=generic -march=x86-64 -g -O0 -fpre-include=/usr/include/finclude/math-vector-fortran.h
REM seed -1940943050 -676457052 -2142537850 601714382 1672285265 986137883 1302849170 -288251898 -1186273964 1614651306 1535795724 -442006562 -1326159499 -402632829 -130734224 -2126764529 672786378 2097363441 1075883947 2134833747 630941593 493243412 -1073922564 1161925753 -42540299 -988230573 -1329771948 1250679049 -1883449218 -1542511311 -116677224 1132437447 -1970445710
REM
CELL 1.54180   50.00000   50.00000   50.00000   90.00000   90.00000   90.00000
LATT -1
SFAC C  
C      1  0.5903370000000  0.5134440000000  0.5011260000000 1.0
C      1  0.5650980000000  0.4379620000000  0.5144090000000 1.0
C      1  0.4648810000000  0.4141100000000  0.5008230000000 1.0
C      1  0.4121220000000  0.4736590000000  0.5142680000000 1.0
C      1  0.4415750000000  0.5724220000000  0.5010150000000 1.0
C      1  0.5195210000000  0.5882990000000  0.5145660000000 1.0
C      1  0.4147390000000  0.5056380000000  0.5155520000000 1.0
C      1  0.4330160000000  0.5610560000000  0.4722730000000 1.0
C      1  0.5459050000000  0.5700380000000  0.5158060000000 1.0
C      1  0.5847970000000  0.5266320000000  0.4724220000000 1.0
C      1  0.5360900000000  0.4242410000000  0.5155880000000 1.0
C      1  0.4790960000000  0.4124090000000  0.4721250000000 1.0
C      1  0.5612480000000  0.5094150000000  0.4869700000000 1.0
C      1  0.5385190000000  0.4562770000000  0.5112390000000 1.0
C      1  0.4759460000000  0.4413630000000  0.4867650000000 1.0
C      1  0.4412740000000  0.4875320000000  0.5111630000000 1.0
C      1  0.4596560000000  0.5492610000000  0.4868950000000 1.0
C      1  0.5169600000000  0.5561270000000  0.5113550000000 1.0
C      1  0.4801040000000  0.4675280000000  0.4873690000000 1.0
C      1  0.4696840000000  0.4844520000000  0.5116530000000 1.0
C      1  0.4802380000000  0.5325770000000  0.4874590000000 1.0
C      1  0.5000870000000  0.5330610000000  0.5117590000000 1.0
C      1  0.5365080000000  0.4999330000000  0.4874850000000 1.0
C      1  0.5269820000000  0.4824220000000  0.5117200000000 1.0
C      1  0.4975340000000  0.5182520000000  0.5393240000000 1.0
C      1  0.5173980000000  0.5022830000000  0.4678440000000 1.0
C      1  0.5154180000000  0.4919510000000  0.5393080000000 1.0
C      1  0.4917060000000  0.4829670000000  0.4677860000000 1.0
C      1  0.4836990000000  0.4896140000000  0.5392690000000 1.0
C      1  0.4878230000000  0.5148750000000  0.4678230000000 1.0
C      1  0.4989230000000  0.4999870000000  0.5039010000000 1.0
END
