TITL C-3289335-9438-680 0.0207815808470495 125000 -284.858819983777 0 0 49 (C1) n - 1
REM
REM in /nfs/bkarasulu/CARBON/AIRSS/Generating-Clusters/AIREBO/with-SteepDescent/Higher-Symm/SD-CG/HFTN-CG
REM
REM
REM
REM
REM
REM ./C.cell (b20cbc046b6831c77cfcea5457e17084)
REM
REM compiler GCC version 9.2.1 20190827 (Red Hat 9.2.1-1)
REM options -cpp -mtune=generic -march=x86-64 -g -O0 -fpre-include=/usr/include/finclude/math-vector-fortran.h
REM seed -621835033 -2102458100 939391960 -348261139 1228669829 1149643506 -505465322 249937112 1628926464 1637118052 1097589418 1696918214 -1653234799 -1944364984 -1678160022 -273525334 1048096387 1088139755 1510859551 1297663104 -855215181 -1102978763 -220670452 -1640875138 1799720544 -1915529154 -737608716 -633407209 802373339 1554805162 -285967084 -1353414575 -2029833636
REM
CELL 1.54180   50.00000   50.00000   50.00000   90.00000   90.00000   90.00000
LATT -1
SFAC C  
C      1  0.4808770000000  0.4512400000000  0.5692400000000 1.0
C      1  0.5291340000000  0.5213580000000  0.4482390000000 1.0
C      1  0.4235500000000  0.5489480000000  0.4937720000000 1.0
C      1  0.4909130000000  0.5698130000000  0.4263110000000 1.0
C      1  0.4604270000000  0.4531570000000  0.4971110000000 1.0
C      1  0.5440710000000  0.5350610000000  0.4249890000000 1.0
C      1  0.4726590000000  0.4654040000000  0.4736000000000 1.0
C      1  0.5395370000000  0.4236170000000  0.6414900000000 1.0
C      1  0.5046710000000  0.4619510000000  0.5830910000000 1.0
C      1  0.5258660000000  0.4758960000000  0.5616680000000 1.0
C      1  0.5365330000000  0.5360480000000  0.4739600000000 1.0
C      1  0.4608680000000  0.4949500000000  0.4674100000000 1.0
C      1  0.4810810000000  0.4266900000000  0.5558960000000 1.0
C      1  0.5529090000000  0.4229890000000  0.6176340000000 1.0
C      1  0.4771660000000  0.5176590000000  0.4650110000000 1.0
C      1  0.4929400000000  0.5426570000000  0.4197640000000 1.0
C      1  0.4461580000000  0.4694570000000  0.5147790000000 1.0
C      1  0.5528330000000  0.5613340000000  0.4300240000000 1.0
C      1  0.5006910000000  0.4688490000000  0.6126670000000 1.0
C      1  0.4982990000000  0.5222750000000  0.4414870000000 1.0
C      1  0.5040760000000  0.4593560000000  0.4695870000000 1.0
C      1  0.5489070000000  0.5605150000000  0.4716830000000 1.0
C      1  0.5299880000000  0.4941740000000  0.5426750000000 1.0
C      1  0.4042950000000  0.5320340000000  0.4839260000000 1.0
C      1  0.5106840000000  0.5873290000000  0.4337560000000 1.0
C      1  0.5363440000000  0.4516130000000  0.5780490000000 1.0
C      1  0.5331960000000  0.5225850000000  0.4977460000000 1.0
C      1  0.4597120000000  0.4684140000000  0.5630930000000 1.0
C      1  0.5335180000000  0.5293970000000  0.3992770000000 1.0
C      1  0.4675460000000  0.4279810000000  0.5068970000000 1.0
C      1  0.5218750000000  0.4425510000000  0.6504830000000 1.0
C      1  0.4790360000000  0.4712680000000  0.4409550000000 1.0
C      1  0.5377590000000  0.4917250000000  0.4516770000000 1.0
C      1  0.4332830000000  0.4971530000000  0.4645870000000 1.0
C      1  0.4498760000000  0.5505960000000  0.4873530000000 1.0
C      1  0.5757700000000  0.6054820000000  0.4651220000000 1.0
C      1  0.5065600000000  0.5355610000000  0.3958220000000 1.0
C      1  0.5277100000000  0.4716150000000  0.4665300000000 1.0
C      1  0.5328600000000  0.5080820000000  0.5201040000000 1.0
C      1  0.4806600000000  0.4198970000000  0.5294490000000 1.0
C      1  0.5379070000000  0.5842980000000  0.4321370000000 1.0
C      1  0.4501840000000  0.4790990000000  0.5399130000000 1.0
C      1  0.4854430000000  0.4940420000000  0.4333180000000 1.0
C      1  0.5031980000000  0.4568540000000  0.6366760000000 1.0
C      1  0.5466250000000  0.4309450000000  0.5924100000000 1.0
C      1  0.4100330000000  0.5067380000000  0.4749250000000 1.0
C      1  0.4748210000000  0.5386800000000  0.4839260000000 1.0
C      1  0.5631840000000  0.5828910000000  0.4693880000000 1.0
C      1  0.4970230000000  0.5464830000000  0.4970820000000 1.0
END
