TITL C-3289322-3858-579 -56.2975966138587 125000 -1041.21932597731 0 0 200 (C1) n - 1
REM
REM in /nfs/bkarasulu/CARBON/AIRSS/Generating-Clusters/AIREBO/with-SteepDescent/Higher-Symm/SD-CG/HFTN-CG
REM
REM
REM
REM
REM
REM ./C.cell (b20cbc046b6831c77cfcea5457e17084)
REM
REM compiler GCC version 9.2.1 20190827 (Red Hat 9.2.1-1)
REM options -cpp -mtune=generic -march=x86-64 -g -O0 -fpre-include=/usr/include/finclude/math-vector-fortran.h
REM seed 1960094348 -2136466313 -1134372615 862596399 236427825 989730753 -203789288 -1441667577 389565453 896959996 -2076666419 611038295 -304130947 -301108645 -1327587832 -1690734967 663572703 321122921 -323436126 -888436132 -25198520 1146045733 -919392443 -1412736665 1952912372 229323714 -324001292 1117822154 -106821695 -1956340976 1817226180 -424010168 -2037162320
REM
CELL 1.54180   50.00000   50.00000   50.00000   90.00000   90.00000   90.00000
LATT -1
SFAC C  
C      1  0.4006820000000  0.4778250000000  0.4657270000000 1.0
C      1  0.3903570000000  0.5252900000000  0.4729090000000 1.0
C      1  0.3975100000000  0.5431870000000  0.5119450000000 1.0
C      1  0.3989210000000  0.5020870000000  0.5407300000000 1.0
C      1  0.3961920000000  0.4552710000000  0.5163660000000 1.0
C      1  0.5646110000000  0.5254510000000  0.4311210000000 1.0
C      1  0.5584670000000  0.5706480000000  0.5019810000000 1.0
C      1  0.5703430000000  0.5223940000000  0.5872320000000 1.0
C      1  0.5613240000000  0.4213330000000  0.5465960000000 1.0
C      1  0.5681820000000  0.4272350000000  0.4289270000000 1.0
C      1  0.4814320000000  0.4465460000000  0.4051190000000 1.0
C      1  0.4910130000000  0.5695150000000  0.4131190000000 1.0
C      1  0.4801550000000  0.5853060000000  0.5464050000000 1.0
C      1  0.4746870000000  0.4816900000000  0.5989230000000 1.0
C      1  0.4725470000000  0.3982420000000  0.5135960000000 1.0
C      1  0.4731720000000  0.4811370000000  0.4655200000000 1.0
C      1  0.4617290000000  0.5189660000000  0.4694240000000 1.0
C      1  0.4818120000000  0.5379470000000  0.5041240000000 1.0
C      1  0.4831930000000  0.5023740000000  0.5373700000000 1.0
C      1  0.4796340000000  0.4710290000000  0.5130270000000 1.0
C      1  0.4579480000000  0.5171960000000  0.3900370000000 1.0
C      1  0.4475950000000  0.5928240000000  0.4887720000000 1.0
C      1  0.4562650000000  0.5447640000000  0.5882300000000 1.0
C      1  0.4461500000000  0.4297050000000  0.5678130000000 1.0
C      1  0.4538830000000  0.4150450000000  0.4570670000000 1.0
C      1  0.4582200000000  0.5108650000000  0.5929730000000 1.0
C      1  0.4555810000000  0.4151730000000  0.5382820000000 1.0
C      1  0.4655150000000  0.4255480000000  0.4267140000000 1.0
C      1  0.4681000000000  0.5465240000000  0.4040030000000 1.0
C      1  0.4612090000000  0.5949720000000  0.5198550000000 1.0
C      1  0.4869550000000  0.4707370000000  0.4260580000000 1.0
C      1  0.4845250000000  0.5623550000000  0.4449100000000 1.0
C      1  0.4938320000000  0.5543090000000  0.5435360000000 1.0
C      1  0.4953330000000  0.4881180000000  0.5726530000000 1.0
C      1  0.4847800000000  0.4281430000000  0.5029760000000 1.0
C      1  0.5380840000000  0.5042650000000  0.5269020000000 1.0
C      1  0.5514770000000  0.4807630000000  0.5133180000000 1.0
C      1  0.5352120000000  0.4751950000000  0.4874070000000 1.0
C      1  0.5393430000000  0.5046410000000  0.4761710000000 1.0
C      1  0.5353010000000  0.5226490000000  0.5024610000000 1.0
C      1  0.5516740000000  0.4367170000000  0.5785150000000 1.0
C      1  0.5639060000000  0.4174960000000  0.4540720000000 1.0
C      1  0.5583660000000  0.5024770000000  0.4091850000000 1.0
C      1  0.5530310000000  0.5869720000000  0.4740250000000 1.0
C      1  0.5635050000000  0.5540410000000  0.5819560000000 1.0
C      1  0.5704240000000  0.4677490000000  0.4685690000000 1.0
C      1  0.5726220000000  0.5246220000000  0.4625100000000 1.0
C      1  0.5762990000000  0.5438670000000  0.5129750000000 1.0
C      1  0.5753020000000  0.5012810000000  0.5431900000000 1.0
C      1  0.5670680000000  0.4537520000000  0.5201770000000 1.0
C      1  0.5056950000000  0.4624910000000  0.4929140000000 1.0
C      1  0.5019220000000  0.4901760000000  0.4574260000000 1.0
C      1  0.4906470000000  0.5356800000000  0.4735620000000 1.0
C      1  0.4982850000000  0.5147790000000  0.5146590000000 1.0
C      1  0.5051960000000  0.4765780000000  0.5347800000000 1.0
C      1  0.4796690000000  0.4076170000000  0.4757330000000 1.0
C      1  0.4706310000000  0.4876640000000  0.4014630000000 1.0
C      1  0.4696280000000  0.5865910000000  0.4636120000000 1.0
C      1  0.4846610000000  0.5589030000000  0.5759750000000 1.0
C      1  0.4763660000000  0.4304730000000  0.5833960000000 1.0
C      1  0.5543760000000  0.5241080000000  0.5572620000000 1.0
C      1  0.5485690000000  0.4527930000000  0.5487130000000 1.0
C      1  0.5456740000000  0.4471800000000  0.4796550000000 1.0
C      1  0.5426690000000  0.5040730000000  0.4458860000000 1.0
C      1  0.5364340000000  0.5513640000000  0.4904020000000 1.0
C      1  0.5075720000000  0.4536050000000  0.3898520000000 1.0
C      1  0.5180630000000  0.5766370000000  0.4290410000000 1.0
C      1  0.5136660000000  0.5876590000000  0.5517540000000 1.0
C      1  0.5069760000000  0.4785590000000  0.6019700000000 1.0
C      1  0.5064080000000  0.3960250000000  0.5113060000000 1.0
C      1  0.5190890000000  0.5919850000000  0.5184500000000 1.0
C      1  0.5204770000000  0.5086890000000  0.5959400000000 1.0
C      1  0.5155160000000  0.4074560000000  0.5399160000000 1.0
C      1  0.5197010000000  0.4395820000000  0.4138470000000 1.0
C      1  0.5257430000000  0.5506880000000  0.4084100000000 1.0
C      1  0.4107860000000  0.5505160000000  0.4815010000000 1.0
C      1  0.4110810000000  0.5338370000000  0.5416930000000 1.0
C      1  0.4095710000000  0.4700160000000  0.5445550000000 1.0
C      1  0.4046120000000  0.4510610000000  0.4836820000000 1.0
C      1  0.4019480000000  0.5065510000000  0.4520010000000 1.0
C      1  0.4058250000000  0.4312960000000  0.5355200000000 1.0
C      1  0.4075100000000  0.4386710000000  0.4460540000000 1.0
C      1  0.4141210000000  0.5386850000000  0.4201320000000 1.0
C      1  0.4103060000000  0.5804100000000  0.5175180000000 1.0
C      1  0.4157060000000  0.5172570000000  0.5777870000000 1.0
C      1  0.5877320000000  0.4737820000000  0.5380950000000 1.0
C      1  0.5834880000000  0.4465350000000  0.4911810000000 1.0
C      1  0.5895490000000  0.4958670000000  0.4691310000000 1.0
C      1  0.5824370000000  0.5445500000000  0.4830380000000 1.0
C      1  0.5956510000000  0.5238470000000  0.5296150000000 1.0
C      1  0.5815420000000  0.4225450000000  0.4761300000000 1.0
C      1  0.5610000000000  0.4757940000000  0.4069490000000 1.0
C      1  0.5540060000000  0.5706270000000  0.4504420000000 1.0
C      1  0.5676480000000  0.5652830000000  0.5555850000000 1.0
C      1  0.5562940000000  0.4624640000000  0.5930410000000 1.0
C      1  0.4560210000000  0.5749150000000  0.5697370000000 1.0
C      1  0.4546310000000  0.4559310000000  0.5893710000000 1.0
C      1  0.4511950000000  0.3968710000000  0.4871480000000 1.0
C      1  0.4477980000000  0.4663080000000  0.3971540000000 1.0
C      1  0.4530200000000  0.5967700000000  0.4385150000000 1.0
C      1  0.4355870000000  0.5393480000000  0.5646220000000 1.0
C      1  0.4188620000000  0.4416500000000  0.5608610000000 1.0
C      1  0.4295680000000  0.4328080000000  0.4694700000000 1.0
C      1  0.4343110000000  0.5255870000000  0.4083590000000 1.0
C      1  0.4219480000000  0.5810500000000  0.4897100000000 1.0
C      1  0.3874380000000  0.5071780000000  0.4277890000000 1.0
C      1  0.4275450000000  0.5789060000000  0.4330950000000 1.0
C      1  0.4093760000000  0.5674060000000  0.5468790000000 1.0
C      1  0.4086420000000  0.4780700000000  0.5775870000000 1.0
C      1  0.4068800000000  0.4208460000000  0.4991250000000 1.0
C      1  0.4324950000000  0.4798750000000  0.4736270000000 1.0
C      1  0.4326420000000  0.5182680000000  0.4518140000000 1.0
C      1  0.4348980000000  0.5314350000000  0.4960220000000 1.0
C      1  0.4378180000000  0.5147390000000  0.5319240000000 1.0
C      1  0.4377200000000  0.4734540000000  0.5257870000000 1.0
C      1  0.4521230000000  0.5747250000000  0.4127100000000 1.0
C      1  0.4409250000000  0.5798890000000  0.5426760000000 1.0
C      1  0.4364660000000  0.4847150000000  0.5898350000000 1.0
C      1  0.4345310000000  0.4098180000000  0.5120820000000 1.0
C      1  0.4440480000000  0.4494580000000  0.4187340000000 1.0
C      1  0.5491930000000  0.5475470000000  0.5331750000000 1.0
C      1  0.5509800000000  0.4844930000000  0.5601030000000 1.0
C      1  0.5433180000000  0.4317070000000  0.5098460000000 1.0
C      1  0.5474730000000  0.4719400000000  0.4443570000000 1.0
C      1  0.5428570000000  0.5412450000000  0.4606290000000 1.0
C      1  0.4858800000000  0.4086160000000  0.5497310000000 1.0
C      1  0.4987460000000  0.4260350000000  0.4340720000000 1.0
C      1  0.4986300000000  0.5349330000000  0.3945170000000 1.0
C      1  0.4908690000000  0.6047800000000  0.5070480000000 1.0
C      1  0.4891630000000  0.5184680000000  0.6049050000000 1.0
C      1  0.5455290000000  0.4041450000000  0.5277290000000 1.0
C      1  0.5480590000000  0.4492850000000  0.4205570000000 1.0
C      1  0.5542950000000  0.5535070000000  0.4246470000000 1.0
C      1  0.5486720000000  0.5817720000000  0.5317500000000 1.0
C      1  0.5510960000000  0.4961340000000  0.5913190000000 1.0
C      1  0.5208930000000  0.4993620000000  0.5545690000000 1.0
C      1  0.5129650000000  0.4404030000000  0.5177240000000 1.0
C      1  0.5144470000000  0.4638850000000  0.4451590000000 1.0
C      1  0.5108380000000  0.5410130000000  0.4491190000000 1.0
C      1  0.5169780000000  0.5416510000000  0.5238910000000 1.0
C      1  0.4298970000000  0.4635070000000  0.4439030000000 1.0
C      1  0.4238710000000  0.5513910000000  0.4501260000000 1.0
C      1  0.4345710000000  0.5566080000000  0.5187190000000 1.0
C      1  0.4367550000000  0.4999170000000  0.5600720000000 1.0
C      1  0.4337230000000  0.4423250000000  0.5195120000000 1.0
C      1  0.4650550000000  0.4639570000000  0.5420120000000 1.0
C      1  0.4546340000000  0.4540530000000  0.4736330000000 1.0
C      1  0.4545420000000  0.5108660000000  0.4293690000000 1.0
C      1  0.4582090000000  0.5544870000000  0.4870090000000 1.0
C      1  0.4637950000000  0.5273540000000  0.5498840000000 1.0
C      1  0.5239100000000  0.5995810000000  0.4854280000000 1.0
C      1  0.5348210000000  0.5394010000000  0.5930710000000 1.0
C      1  0.5234140000000  0.4205300000000  0.5687100000000 1.0
C      1  0.5353850000000  0.4147820000000  0.4589460000000 1.0
C      1  0.5310510000000  0.5170380000000  0.4084510000000 1.0
C      1  0.5121590000000  0.5047000000000  0.3856820000000 1.0
C      1  0.4935910000000  0.6093090000000  0.4734570000000 1.0
C      1  0.5044930000000  0.5489540000000  0.6017440000000 1.0
C      1  0.5012460000000  0.4166230000000  0.5890680000000 1.0
C      1  0.5039950000000  0.4030910000000  0.4564880000000 1.0
C      1  0.4654560000000  0.5525030000000  0.5270600000000 1.0
C      1  0.4650190000000  0.4882160000000  0.5608140000000 1.0
C      1  0.4605260000000  0.4473560000000  0.5025800000000 1.0
C      1  0.4572260000000  0.4815150000000  0.4385600000000 1.0
C      1  0.4573720000000  0.5494670000000  0.4556210000000 1.0
C      1  0.4896380000000  0.5269560000000  0.5719840000000 1.0
C      1  0.4810190000000  0.4420960000000  0.5531620000000 1.0
C      1  0.4823020000000  0.4429540000000  0.4579750000000 1.0
C      1  0.4859020000000  0.5134270000000  0.4175720000000 1.0
C      1  0.4835540000000  0.5759500000000  0.4927520000000 1.0
C      1  0.5143160000000  0.4395580000000  0.4689330000000 1.0
C      1  0.5118970000000  0.5120750000000  0.4360570000000 1.0
C      1  0.5094870000000  0.5625560000000  0.4824690000000 1.0
C      1  0.5218070000000  0.5324500000000  0.5624180000000 1.0
C      1  0.5144160000000  0.4480440000000  0.5508510000000 1.0
C      1  0.5166610000000  0.5830460000000  0.4566050000000 1.0
C      1  0.5228000000000  0.5659330000000  0.5683840000000 1.0
C      1  0.5179880000000  0.4573920000000  0.5833590000000 1.0
C      1  0.5173900000000  0.4109700000000  0.4875410000000 1.0
C      1  0.5141280000000  0.4788690000000  0.3777730000000 1.0
C      1  0.7020320000000  0.5134890000000  0.5079550000000 1.0
C      1  0.2794180000000  0.4835470000000  0.5147310000000 1.0
C      1  0.6234910000000  0.5143390000000  0.5137640000000 1.0
C      1  0.7284630000000  0.5107980000000  0.5060060000000 1.0
C      1  0.7809210000000  0.5055150000000  0.4987860000000 1.0
C      1  0.4020270000000  0.5018280000000  0.5108910000000 1.0
C      1  0.5935630000000  0.5101580000000  0.5000650000000 1.0
C      1  0.2554310000000  0.4755690000000  0.5216640000000 1.0
C      1  0.8065120000000  0.5030450000000  0.4936810000000 1.0
C      1  0.3546430000000  0.5058950000000  0.5003150000000 1.0
C      1  0.3812400000000  0.5108260000000  0.4950660000000 1.0
C      1  0.5662400000000  0.4993020000000  0.4926390000000 1.0
C      1  0.3292050000000  0.4989210000000  0.5039600000000 1.0
C      1  0.6490060000000  0.5152910000000  0.5119640000000 1.0
C      1  0.6755910000000  0.5138700000000  0.5111670000000 1.0
C      1  0.7547100000000  0.5092780000000  0.5017050000000 1.0
C      1  0.3041860000000  0.4922380000000  0.5101890000000 1.0
C      1  0.4347560000000  0.4980280000000  0.5024630000000 1.0
C      1  0.4679170000000  0.4973530000000  0.4949460000000 1.0
C      1  0.5014860000000  0.4960460000000  0.4892030000000 1.0
END
