TITL C-3289329-2751-364 -0.00124155739703004 125000 -532.315666112387 0 0 98 (C1) n - 1
REM
REM in /nfs/bkarasulu/CARBON/AIRSS/Generating-Clusters/AIREBO/with-SteepDescent/Higher-Symm/SD-CG/HFTN-CG
REM
REM
REM
REM
REM
REM ./C.cell (b20cbc046b6831c77cfcea5457e17084)
REM
REM compiler GCC version 9.2.1 20190827 (Red Hat 9.2.1-1)
REM options -cpp -mtune=generic -march=x86-64 -g -O0 -fpre-include=/usr/include/finclude/math-vector-fortran.h
REM seed 791272942 -2067461120 -638586259 -155994573 2035390895 -1709702445 92316506 1145978585 1757146320 1848747662 -84609137 -625534442 1694499911 -901677395 1395942966 -488426303 -1945875716 -113268154 -341829462 -1264917788 480642719 1094777651 114085567 -92896523 -800946146 -1743905385 -1843299555 -423301324 787160217 -1088562578 -1273329227 -1855526175 1674724408
REM
CELL 1.54180   50.00000   50.00000   50.00000   90.00000   90.00000   90.00000
LATT -1
SFAC C  
C      1  0.5675720000000  0.5735530000000  0.4595440000000 1.0
C      1  0.4469780000000  0.5835150000000  0.4548310000000 1.0
C      1  0.4048130000000  0.4792600000000  0.4651780000000 1.0
C      1  0.4956560000000  0.4047760000000  0.4520920000000 1.0
C      1  0.5928860000000  0.4668350000000  0.4517830000000 1.0
C      1  0.5687200000000  0.5809350000000  0.5488950000000 1.0
C      1  0.4534630000000  0.5870560000000  0.5463640000000 1.0
C      1  0.4024190000000  0.4798460000000  0.5556800000000 1.0
C      1  0.5012720000000  0.3971040000000  0.5394910000000 1.0
C      1  0.5914470000000  0.4655190000000  0.5591700000000 1.0
C      1  0.4635010000000  0.5619520000000  0.4665040000000 1.0
C      1  0.4323390000000  0.4897010000000  0.4744800000000 1.0
C      1  0.4952770000000  0.4333040000000  0.4635770000000 1.0
C      1  0.5667270000000  0.4714530000000  0.4596280000000 1.0
C      1  0.5504440000000  0.5533730000000  0.4703670000000 1.0
C      1  0.4661600000000  0.5639370000000  0.5326700000000 1.0
C      1  0.4259790000000  0.4860700000000  0.5420680000000 1.0
C      1  0.4964100000000  0.4237520000000  0.5301310000000 1.0
C      1  0.5696100000000  0.4706350000000  0.5422520000000 1.0
C      1  0.5527560000000  0.5607740000000  0.5378030000000 1.0
C      1  0.5468630000000  0.4342150000000  0.4889970000000 1.0
C      1  0.5742820000000  0.5203910000000  0.4897030000000 1.0
C      1  0.5022960000000  0.5907020000000  0.4834540000000 1.0
C      1  0.4161590000000  0.5348380000000  0.4870660000000 1.0
C      1  0.4486940000000  0.4197110000000  0.4810110000000 1.0
C      1  0.5569900000000  0.4274890000000  0.5142670000000 1.0
C      1  0.5854590000000  0.5290570000000  0.5135710000000 1.0
C      1  0.5061880000000  0.5790020000000  0.5082490000000 1.0
C      1  0.4268400000000  0.5273430000000  0.5117040000000 1.0
C      1  0.4499990000000  0.4268200000000  0.5083490000000 1.0
C      1  0.5380850000000  0.4916240000000  0.4241720000000 1.0
C      1  0.5199060000000  0.5432990000000  0.4265210000000 1.0
C      1  0.4766620000000  0.5226730000000  0.4301050000000 1.0
C      1  0.4541170000000  0.4796550000000  0.4292580000000 1.0
C      1  0.5082810000000  0.4757700000000  0.4283560000000 1.0
C      1  0.5433730000000  0.5005410000000  0.5723720000000 1.0
C      1  0.5172640000000  0.5462110000000  0.5742940000000 1.0
C      1  0.4675510000000  0.5297540000000  0.5758990000000 1.0
C      1  0.4658940000000  0.4727140000000  0.5702630000000 1.0
C      1  0.5150260000000  0.4559010000000  0.5704240000000 1.0
C      1  0.5609650000000  0.5228210000000  0.4624820000000 1.0
C      1  0.4956760000000  0.5729630000000  0.4634110000000 1.0
C      1  0.4272130000000  0.5220340000000  0.4652940000000 1.0
C      1  0.4613330000000  0.4352130000000  0.4615960000000 1.0
C      1  0.5469860000000  0.4464760000000  0.4613650000000 1.0
C      1  0.5684540000000  0.5306540000000  0.5354560000000 1.0
C      1  0.4991050000000  0.5714690000000  0.5367240000000 1.0
C      1  0.4327860000000  0.5193370000000  0.5399950000000 1.0
C      1  0.4657630000000  0.4325600000000  0.5375380000000 1.0
C      1  0.5504320000000  0.4432620000000  0.5359900000000 1.0
C      1  0.4641210000000  0.4675390000000  0.4843690000000 1.0
C      1  0.5249620000000  0.4595260000000  0.4919570000000 1.0
C      1  0.5500750000000  0.5016910000000  0.4945450000000 1.0
C      1  0.5094380000000  0.5368400000000  0.4773830000000 1.0
C      1  0.4613490000000  0.5067530000000  0.4794110000000 1.0
C      1  0.4528770000000  0.4583350000000  0.5111150000000 1.0
C      1  0.5091070000000  0.4602270000000  0.5197580000000 1.0
C      1  0.5390080000000  0.5070430000000  0.5224440000000 1.0
C      1  0.5072070000000  0.5470310000000  0.5062690000000 1.0
C      1  0.4576160000000  0.5166980000000  0.5090820000000 1.0
C      1  0.5539300000000  0.4984500000000  0.4503100000000 1.0
C      1  0.5211400000000  0.5541650000000  0.4545350000000 1.0
C      1  0.4527610000000  0.5340280000000  0.4502920000000 1.0
C      1  0.4485660000000  0.4662330000000  0.4559750000000 1.0
C      1  0.5195560000000  0.4475020000000  0.4443290000000 1.0
C      1  0.5577340000000  0.5001420000000  0.5459990000000 1.0
C      1  0.5212130000000  0.5604920000000  0.5505190000000 1.0
C      1  0.4521460000000  0.5382010000000  0.5501920000000 1.0
C      1  0.4503100000000  0.4624570000000  0.5447700000000 1.0
C      1  0.5203150000000  0.4441430000000  0.5431410000000 1.0
C      1  0.5302820000000  0.5347840000000  0.5213680000000 1.0
C      1  0.4794530000000  0.5383800000000  0.5164310000000 1.0
C      1  0.4774220000000  0.5005180000000  0.5289500000000 1.0
C      1  0.4805430000000  0.4712130000000  0.5204190000000 1.0
C      1  0.5149640000000  0.4906570000000  0.5201390000000 1.0
C      1  0.5236510000000  0.5099960000000  0.4822340000000 1.0
C      1  0.4782330000000  0.5358700000000  0.4811850000000 1.0
C      1  0.4892230000000  0.4944050000000  0.4699690000000 1.0
C      1  0.4957050000000  0.4635160000000  0.4791740000000 1.0
C      1  0.5552060000000  0.4731650000000  0.4898760000000 1.0
C      1  0.4896970000000  0.4563920000000  0.5795340000000 1.0
C      1  0.5328740000000  0.4755940000000  0.5792090000000 1.0
C      1  0.5351010000000  0.5255950000000  0.5809930000000 1.0
C      1  0.4915140000000  0.5453530000000  0.5854540000000 1.0
C      1  0.4558370000000  0.5002860000000  0.5868910000000 1.0
C      1  0.4775160000000  0.4719190000000  0.4170190000000 1.0
C      1  0.5410160000000  0.4579880000000  0.4201190000000 1.0
C      1  0.5356410000000  0.5228300000000  0.4182300000000 1.0
C      1  0.4944940000000  0.5428630000000  0.4166420000000 1.0
C      1  0.4475980000000  0.5083100000000  0.4277190000000 1.0
C      1  0.5492740000000  0.5571170000000  0.5041460000000 1.0
C      1  0.5730930000000  0.4638810000000  0.5104120000000 1.0
C      1  0.4969370000000  0.4243320000000  0.4963480000000 1.0
C      1  0.4595740000000  0.5686690000000  0.4996270000000 1.0
C      1  0.4282050000000  0.4877090000000  0.5081770000000 1.0
C      1  0.4720400000000  0.5026120000000  0.5568350000000 1.0
C      1  0.4929670000000  0.4993780000000  0.4415700000000 1.0
C      1  0.4952860000000  0.5053640000000  0.5004180000000 1.0
END
