TITL C-3289324-3781-421 -0.0004070797987538 125000 -551.438097750834 0 0 96 (C1) n - 1
REM
REM in /nfs/bkarasulu/CARBON/AIRSS/Generating-Clusters/AIREBO/with-SteepDescent/Higher-Symm/SD-CG/HFTN-CG
REM
REM
REM
REM
REM
REM ./C.cell (b20cbc046b6831c77cfcea5457e17084)
REM
REM compiler GCC version 9.2.1 20190827 (Red Hat 9.2.1-1)
REM options -cpp -mtune=generic -march=x86-64 -g -O0 -fpre-include=/usr/include/finclude/math-vector-fortran.h
REM seed 575467040 -712786966 -975312130 -1551099699 1758530591 -80348096 -1723359325 -274502 1696648548 449007838 -1036426265 904201682 742894191 809581812 394299011 -1717902627 1732438266 1515289627 -1438215774 73989078 -434081942 690998818 -1186272070 651675224 1680442007 -697775307 1320529624 -1173333760 836462433 1622591205 364426960 -1639033879 417133654
REM
CELL 1.54180   50.00000   50.00000   50.00000   90.00000   90.00000   90.00000
LATT -1
SFAC C  
C      1  0.5176230000000  0.5183990000000  0.4680020000000 1.0
C      1  0.5200520000000  0.4541390000000  0.5074030000000 1.0
C      1  0.4678960000000  0.5173760000000  0.5274470000000 1.0
C      1  0.4837580000000  0.5051250000000  0.5510680000000 1.0
C      1  0.4863710000000  0.4753120000000  0.4508750000000 1.0
C      1  0.5166840000000  0.4833440000000  0.5463490000000 1.0
C      1  0.4733710000000  0.4701160000000  0.4806780000000 1.0
C      1  0.4685950000000  0.5442340000000  0.5135390000000 1.0
C      1  0.5115670000000  0.5378670000000  0.4892040000000 1.0
C      1  0.5475400000000  0.5084910000000  0.4719290000000 1.0
C      1  0.5292250000000  0.4841640000000  0.5169840000000 1.0
C      1  0.4532780000000  0.4965020000000  0.4802620000000 1.0
C      1  0.5167170000000  0.4847890000000  0.4629420000000 1.0
C      1  0.5324780000000  0.5356440000000  0.5095310000000 1.0
C      1  0.4606830000000  0.4932910000000  0.5106610000000 1.0
C      1  0.4887230000000  0.4732140000000  0.5416410000000 1.0
C      1  0.4943260000000  0.5203440000000  0.4489830000000 1.0
C      1  0.5152350000000  0.5148950000000  0.5538360000000 1.0
C      1  0.4804290000000  0.5429050000000  0.4863620000000 1.0
C      1  0.4801980000000  0.4675090000000  0.5139060000000 1.0
C      1  0.5049550000000  0.4575210000000  0.4811550000000 1.0
C      1  0.5411530000000  0.4819620000000  0.4881720000000 1.0
C      1  0.5336660000000  0.5135950000000  0.5271810000000 1.0
C      1  0.4667850000000  0.5211670000000  0.4662140000000 1.0
C      1  0.5212110000000  0.5172930000000  0.4155880000000 1.0
C      1  0.5135760000000  0.4216230000000  0.5157660000000 1.0
C      1  0.4096020000000  0.5151770000000  0.5169410000000 1.0
C      1  0.4884560000000  0.5156770000000  0.5830500000000 1.0
C      1  0.4869140000000  0.4815680000000  0.4174570000000 1.0
C      1  0.5139760000000  0.4851740000000  0.5802260000000 1.0
C      1  0.4787900000000  0.4206720000000  0.4812200000000 1.0
C      1  0.4812900000000  0.5663950000000  0.5287840000000 1.0
C      1  0.5078050000000  0.5716610000000  0.4893480000000 1.0
C      1  0.5800180000000  0.5154620000000  0.4792470000000 1.0
C      1  0.5859520000000  0.4845720000000  0.5177460000000 1.0
C      1  0.4211800000000  0.4880160000000  0.4773240000000 1.0
C      1  0.5165880000000  0.4892720000000  0.4290400000000 1.0
C      1  0.5061610000000  0.5745250000000  0.5194200000000 1.0
C      1  0.4268660000000  0.4898420000000  0.5094680000000 1.0
C      1  0.4820170000000  0.4849940000000  0.5908050000000 1.0
C      1  0.4882350000000  0.5139910000000  0.4161410000000 1.0
C      1  0.5220430000000  0.5174900000000  0.5870620000000 1.0
C      1  0.4802250000000  0.5749010000000  0.4747450000000 1.0
C      1  0.4826310000000  0.4340900000000  0.5104550000000 1.0
C      1  0.5100650000000  0.4239760000000  0.4833560000000 1.0
C      1  0.5750350000000  0.4848250000000  0.4884510000000 1.0
C      1  0.5860120000000  0.5151440000000  0.5115160000000 1.0
C      1  0.4046320000000  0.5139860000000  0.4867860000000 1.0
C      1  0.5551300000000  0.5156260000000  0.5522220000000 1.0
C      1  0.5251800000000  0.5578070000000  0.5609070000000 1.0
C      1  0.5549970000000  0.5579310000000  0.5138650000000 1.0
C      1  0.4425900000000  0.5108100000000  0.4446760000000 1.0
C      1  0.4470750000000  0.4857750000000  0.5549160000000 1.0
C      1  0.5590460000000  0.4804420000000  0.4451460000000 1.0
C      1  0.4846940000000  0.5520250000000  0.4425600000000 1.0
C      1  0.4850290000000  0.4474170000000  0.5600620000000 1.0
C      1  0.5223640000000  0.4453950000000  0.4422020000000 1.0
C      1  0.4367970000000  0.5497180000000  0.4775760000000 1.0
C      1  0.4463070000000  0.4474400000000  0.5205130000000 1.0
C      1  0.5539140000000  0.4447600000000  0.4808700000000 1.0
C      1  0.5570180000000  0.4817470000000  0.5556100000000 1.0
C      1  0.5192290000000  0.4457990000000  0.5598030000000 1.0
C      1  0.5524850000000  0.4475510000000  0.5149580000000 1.0
C      1  0.4431590000000  0.4771440000000  0.4399140000000 1.0
C      1  0.4466220000000  0.5197890000000  0.5526560000000 1.0
C      1  0.5620720000000  0.5144100000000  0.4434380000000 1.0
C      1  0.4889850000000  0.4458100000000  0.4350950000000 1.0
C      1  0.4982550000000  0.5589490000000  0.5729390000000 1.0
C      1  0.5185380000000  0.5520720000000  0.4464550000000 1.0
C      1  0.4492710000000  0.4468680000000  0.4865970000000 1.0
C      1  0.4397570000000  0.5492540000000  0.5071160000000 1.0
C      1  0.5535820000000  0.5583410000000  0.4798490000000 1.0
C      1  0.4696210000000  0.5380700000000  0.5699390000000 1.0
C      1  0.5296050000000  0.5665950000000  0.4682210000000 1.0
C      1  0.5686500000000  0.4690020000000  0.5329490000000 1.0
C      1  0.5356220000000  0.5333900000000  0.4334210000000 1.0
C      1  0.5390730000000  0.4657900000000  0.5735190000000 1.0
C      1  0.4614510000000  0.4625580000000  0.4230760000000 1.0
C      1  0.4748570000000  0.5670560000000  0.5552180000000 1.0
C      1  0.4665780000000  0.4372320000000  0.4589480000000 1.0
C      1  0.5326700000000  0.4323040000000  0.5380580000000 1.0
C      1  0.4327230000000  0.4635010000000  0.4633550000000 1.0
C      1  0.4268630000000  0.5338610000000  0.5284320000000 1.0
C      1  0.5691200000000  0.5410180000000  0.4640030000000 1.0
C      1  0.4643740000000  0.4711440000000  0.5729990000000 1.0
C      1  0.5326720000000  0.4333030000000  0.4656090000000 1.0
C      1  0.5695590000000  0.5311400000000  0.5273000000000 1.0
C      1  0.5369800000000  0.4679440000000  0.4329050000000 1.0
C      1  0.5423290000000  0.5371520000000  0.5721430000000 1.0
C      1  0.4625840000000  0.5306240000000  0.4276690000000 1.0
C      1  0.4666680000000  0.4326290000000  0.5380340000000 1.0
C      1  0.4567640000000  0.5609930000000  0.4599140000000 1.0
C      1  0.5290580000000  0.5671680000000  0.5338250000000 1.0
C      1  0.4240370000000  0.5265750000000  0.4673080000000 1.0
C      1  0.4356730000000  0.4710850000000  0.5324130000000 1.0
C      1  0.5697850000000  0.4647540000000  0.4665300000000 1.0
END
