TITL C-3289321-8710-53 0.000933058649702455 125000 -861.589710547394 0 0 167 (C1) n - 1
REM
REM in /nfs/bkarasulu/CARBON/AIRSS/Generating-Clusters/AIREBO/with-SteepDescent/Higher-Symm/SD-CG/HFTN-CG
REM
REM
REM
REM
REM
REM ./C.cell (b20cbc046b6831c77cfcea5457e17084)
REM
REM compiler GCC version 9.2.1 20190827 (Red Hat 9.2.1-1)
REM options -cpp -mtune=generic -march=x86-64 -g -O0 -fpre-include=/usr/include/finclude/math-vector-fortran.h
REM seed 504197163 -853217016 -1068165922 -572026850 1852849978 -56019096 -1868242241 1424572641 1926578094 -1830873274 672278522 54071310 -1083783890 270139518 -2115666306 580254312 -834637655 202266399 927001499 182179908 -1273654292 -1139511347 157390265 87865697 1534100027 1224424199 -1421078340 1430694663 1427975110 -1980944017 645274089 -1225485519 1581934220
REM
CELL 1.54180   50.00000   50.00000   50.00000   90.00000   90.00000   90.00000
LATT -1
SFAC C  
C      1  0.5328270000000  0.5763000000000  0.4149350000000 1.0
C      1  0.4785810000000  0.5638330000000  0.4248270000000 1.0
C      1  0.4198730000000  0.5576090000000  0.4881050000000 1.0
C      1  0.5796340000000  0.5651920000000  0.4902020000000 1.0
C      1  0.4427090000000  0.5130410000000  0.5825690000000 1.0
C      1  0.5476910000000  0.5170470000000  0.5898410000000 1.0
C      1  0.5949590000000  0.5575650000000  0.5163310000000 1.0
C      1  0.4054450000000  0.5586610000000  0.5125610000000 1.0
C      1  0.4026940000000  0.4293280000000  0.4699480000000 1.0
C      1  0.5912160000000  0.4292530000000  0.4654000000000 1.0
C      1  0.4620360000000  0.4232560000000  0.4556520000000 1.0
C      1  0.5273390000000  0.4197780000000  0.4496680000000 1.0
C      1  0.5767990000000  0.5380680000000  0.4464340000000 1.0
C      1  0.4223110000000  0.5342410000000  0.4351400000000 1.0
C      1  0.3938290000000  0.4885320000000  0.5010840000000 1.0
C      1  0.5973170000000  0.4912830000000  0.5007030000000 1.0
C      1  0.4231950000000  0.5034520000000  0.5026750000000 1.0
C      1  0.5763050000000  0.5061950000000  0.5159530000000 1.0
C      1  0.5331560000000  0.4721380000000  0.5994070000000 1.0
C      1  0.4839480000000  0.4765620000000  0.5996260000000 1.0
C      1  0.5284940000000  0.5376460000000  0.5562290000000 1.0
C      1  0.4711940000000  0.5353000000000  0.5609580000000 1.0
C      1  0.4672420000000  0.5235310000000  0.5989560000000 1.0
C      1  0.5230240000000  0.5071070000000  0.6110310000000 1.0
C      1  0.4415060000000  0.5824530000000  0.4793120000000 1.0
C      1  0.5576860000000  0.5886570000000  0.4812820000000 1.0
C      1  0.5285940000000  0.4212410000000  0.5378330000000 1.0
C      1  0.4740910000000  0.4230730000000  0.5414800000000 1.0
C      1  0.4168580000000  0.5010400000000  0.4302430000000 1.0
C      1  0.5845700000000  0.5064420000000  0.4366330000000 1.0
C      1  0.5336280000000  0.4925220000000  0.4264720000000 1.0
C      1  0.4683390000000  0.4890910000000  0.4261750000000 1.0
C      1  0.4724940000000  0.5183860000000  0.5247480000000 1.0
C      1  0.5332570000000  0.5198200000000  0.5276670000000 1.0
C      1  0.4750220000000  0.4998840000000  0.4882270000000 1.0
C      1  0.5326590000000  0.4961600000000  0.4904520000000 1.0
C      1  0.5615570000000  0.4417490000000  0.4768940000000 1.0
C      1  0.4257600000000  0.4400000000000  0.4805770000000 1.0
C      1  0.4096940000000  0.5210410000000  0.4632930000000 1.0
C      1  0.5885430000000  0.5249810000000  0.4722400000000 1.0
C      1  0.5611710000000  0.5598600000000  0.5502970000000 1.0
C      1  0.4456560000000  0.5579370000000  0.5405040000000 1.0
C      1  0.5288190000000  0.5977670000000  0.4657980000000 1.0
C      1  0.4692190000000  0.5946640000000  0.4638360000000 1.0
C      1  0.4741770000000  0.5509470000000  0.5975870000000 1.0
C      1  0.5362920000000  0.5480030000000  0.5981700000000 1.0
C      1  0.4707790000000  0.4695930000000  0.4778200000000 1.0
C      1  0.5369160000000  0.4648890000000  0.4807610000000 1.0
C      1  0.5955940000000  0.4981860000000  0.4740110000000 1.0
C      1  0.3973070000000  0.4942410000000  0.4714400000000 1.0
C      1  0.5739720000000  0.5295920000000  0.5721510000000 1.0
C      1  0.4196830000000  0.5305330000000  0.5671310000000 1.0
C      1  0.4185590000000  0.5445570000000  0.5368810000000 1.0
C      1  0.5860930000000  0.5439780000000  0.5405890000000 1.0
C      1  0.3955610000000  0.4674920000000  0.5199810000000 1.0
C      1  0.6030700000000  0.4623270000000  0.5089940000000 1.0
C      1  0.5295870000000  0.5718140000000  0.5543090000000 1.0
C      1  0.4781430000000  0.5655590000000  0.5470810000000 1.0
C      1  0.4656110000000  0.4276560000000  0.5099290000000 1.0
C      1  0.5327610000000  0.4284730000000  0.5054310000000 1.0
C      1  0.4701360000000  0.5927460000000  0.5319980000000 1.0
C      1  0.5280650000000  0.5949510000000  0.5336160000000 1.0
C      1  0.5357240000000  0.4413050000000  0.4335600000000 1.0
C      1  0.4513860000000  0.4422810000000  0.4394670000000 1.0
C      1  0.5488230000000  0.4569330000000  0.5116090000000 1.0
C      1  0.4524580000000  0.4580600000000  0.5040430000000 1.0
C      1  0.5287490000000  0.5050930000000  0.5642600000000 1.0
C      1  0.4524500000000  0.5090360000000  0.5502320000000 1.0
C      1  0.4506260000000  0.4253260000000  0.4811850000000 1.0
C      1  0.5389650000000  0.4195200000000  0.4754020000000 1.0
C      1  0.5816970000000  0.5119560000000  0.5462870000000 1.0
C      1  0.4265450000000  0.5139010000000  0.5315450000000 1.0
C      1  0.4317780000000  0.5277040000000  0.4838530000000 1.0
C      1  0.5683850000000  0.5341370000000  0.4977610000000 1.0
C      1  0.5667330000000  0.4908320000000  0.4188610000000 1.0
C      1  0.4360310000000  0.4816520000000  0.4185140000000 1.0
C      1  0.5535640000000  0.4538410000000  0.5814610000000 1.0
C      1  0.4591810000000  0.4643170000000  0.5879580000000 1.0
C      1  0.4230080000000  0.4500870000000  0.5190600000000 1.0
C      1  0.5763130000000  0.4476320000000  0.5197990000000 1.0
C      1  0.5373850000000  0.4471540000000  0.5555270000000 1.0
C      1  0.4699040000000  0.4476350000000  0.5607200000000 1.0
C      1  0.5760140000000  0.4793450000000  0.4559450000000 1.0
C      1  0.4269400000000  0.4855990000000  0.4571590000000 1.0
C      1  0.4316280000000  0.5579020000000  0.4562000000000 1.0
C      1  0.5723480000000  0.5679480000000  0.4570880000000 1.0
C      1  0.5908700000000  0.4587270000000  0.4784770000000 1.0
C      1  0.4276850000000  0.4734160000000  0.4867580000000 1.0
C      1  0.4553980000000  0.4701150000000  0.4512560000000 1.0
C      1  0.5449020000000  0.4686630000000  0.4479200000000 1.0
C      1  0.4689350000000  0.5149060000000  0.4483010000000 1.0
C      1  0.5349950000000  0.5143170000000  0.4525360000000 1.0
C      1  0.4659800000000  0.4859640000000  0.5179970000000 1.0
C      1  0.5473630000000  0.4903870000000  0.5195080000000 1.0
C      1  0.4327450000000  0.4645110000000  0.5655000000000 1.0
C      1  0.5786180000000  0.4828570000000  0.5583490000000 1.0
C      1  0.4646930000000  0.5476580000000  0.5139700000000 1.0
C      1  0.5490520000000  0.5473120000000  0.5224350000000 1.0
C      1  0.4117240000000  0.4576000000000  0.5471770000000 1.0
C      1  0.5943090000000  0.4632780000000  0.5420190000000 1.0
C      1  0.5362280000000  0.5572100000000  0.4922770000000 1.0
C      1  0.4732950000000  0.5585850000000  0.4829160000000 1.0
C      1  0.4712710000000  0.5397840000000  0.4013710000000 1.0
C      1  0.5344260000000  0.5457580000000  0.4080720000000 1.0
C      1  0.4666050000000  0.5857910000000  0.5022140000000 1.0
C      1  0.5326510000000  0.5888060000000  0.5043160000000 1.0
C      1  0.5312580000000  0.4973940000000  0.3777940000000 1.0
C      1  0.4676200000000  0.4885050000000  0.3739240000000 1.0
C      1  0.4610500000000  0.5274250000000  0.4768990000000 1.0
C      1  0.5414040000000  0.5258380000000  0.4802200000000 1.0
C      1  0.4593220000000  0.4766380000000  0.5499560000000 1.0
C      1  0.5464420000000  0.4794610000000  0.5516920000000 1.0
C      1  0.4561860000000  0.5643380000000  0.5730200000000 1.0
C      1  0.5494450000000  0.5674310000000  0.5815670000000 1.0
C      1  0.5619060000000  0.4862130000000  0.5879370000000 1.0
C      1  0.4340410000000  0.4853500000000  0.5912590000000 1.0
C      1  0.5398180000000  0.5136320000000  0.4003430000000 1.0
C      1  0.4574600000000  0.5026740000000  0.3968740000000 1.0
C      1  0.5452150000000  0.5785180000000  0.4448180000000 1.0
C      1  0.4634310000000  0.5652800000000  0.4510600000000 1.0
C      1  0.4508110000000  0.5246510000000  0.4219590000000 1.0
C      1  0.5519180000000  0.5278460000000  0.4287790000000 1.0
C      1  0.4936380000000  0.4165760000000  0.4464190000000 1.0
C      1  0.4971090000000  0.4540900000000  0.3987660000000 1.0
C      1  0.5042940000000  0.5362430000000  0.4940090000000 1.0
C      1  0.4994390000000  0.3978820000000  0.6075320000000 1.0
C      1  0.4925580000000  0.5947710000000  0.5834180000000 1.0
C      1  0.5001320000000  0.4848070000000  0.3831710000000 1.0
C      1  0.5062640000000  0.5386970000000  0.4408070000000 1.0
C      1  0.4994310000000  0.4242320000000  0.5106630000000 1.0
C      1  0.5141970000000  0.5650510000000  0.4483610000000 1.0
C      1  0.4864950000000  0.4049300000000  0.3965250000000 1.0
C      1  0.4936640000000  0.4257400000000  0.4135870000000 1.0
C      1  0.5032300000000  0.5865660000000  0.4243530000000 1.0
C      1  0.5072200000000  0.4231050000000  0.5807710000000 1.0
C      1  0.5073170000000  0.4745090000000  0.5774900000000 1.0
C      1  0.5045100000000  0.5091300000000  0.4850950000000 1.0
C      1  0.5011260000000  0.4894540000000  0.4168410000000 1.0
C      1  0.5023240000000  0.3910080000000  0.5163770000000 1.0
C      1  0.5018140000000  0.4493210000000  0.5295560000000 1.0
C      1  0.4979010000000  0.4752350000000  0.5145740000000 1.0
C      1  0.5114530000000  0.4591090000000  0.4281840000000 1.0
C      1  0.5039540000000  0.4752360000000  0.4538640000000 1.0
C      1  0.5026480000000  0.5527000000000  0.4035390000000 1.0
C      1  0.4971800000000  0.5496770000000  0.5238060000000 1.0
C      1  0.5013880000000  0.5649950000000  0.5720430000000 1.0
C      1  0.5060930000000  0.5670380000000  0.4794930000000 1.0
C      1  0.5032190000000  0.4611800000000  0.4836240000000 1.0
C      1  0.5040260000000  0.4306700000000  0.6107060000000 1.0
C      1  0.4921680000000  0.5179250000000  0.3848810000000 1.0
C      1  0.5017540000000  0.5071300000000  0.4526210000000 1.0
C      1  0.4982230000000  0.5996690000000  0.4739070000000 1.0
C      1  0.5001060000000  0.4053230000000  0.5458270000000 1.0
C      1  0.5073060000000  0.5550800000000  0.6040280000000 1.0
C      1  0.4942640000000  0.5071040000000  0.5966290000000 1.0
C      1  0.5068340000000  0.4579100000000  0.6137300000000 1.0
C      1  0.5036900000000  0.5213660000000  0.4153270000000 1.0
C      1  0.5001050000000  0.4288120000000  0.4774870000000 1.0
C      1  0.4983500000000  0.3946770000000  0.4720050000000 1.0
C      1  0.4996810000000  0.5310390000000  0.5730340000000 1.0
C      1  0.5019810000000  0.5176470000000  0.5344810000000 1.0
C      1  0.4982430000000  0.6270080000000  0.4840530000000 1.0
C      1  0.5038420000000  0.4464440000000  0.5609330000000 1.0
C      1  0.5001170000000  0.5803140000000  0.5093840000000 1.0
C      1  0.5017380000000  0.3781580000000  0.4927010000000 1.0
C      1  0.5075720000000  0.4861830000000  0.5455440000000 1.0
C      1  0.5012170000000  0.3920970000000  0.5753680000000 1.0
END
