TITL C-3289334-2237-119 0.00351803333837815 125000 -854.656790597188 0 0 156 (C1) n - 1
REM
REM in /nfs/bkarasulu/CARBON/AIRSS/Generating-Clusters/AIREBO/with-SteepDescent/Higher-Symm/SD-CG/HFTN-CG
REM
REM
REM
REM
REM
REM ./C.cell (b20cbc046b6831c77cfcea5457e17084)
REM
REM compiler GCC version 9.2.1 20190827 (Red Hat 9.2.1-1)
REM options -cpp -mtune=generic -march=x86-64 -g -O0 -fpre-include=/usr/include/finclude/math-vector-fortran.h
REM seed 1836149041 -1909110375 -229745322 -715738402 -164833745 -24618847 1265417746 -947607694 -300513914 -1649214527 -1695554756 -1405321638 1020004398 1566136062 -2033674177 -516895985 -191835125 -2069107815 2050318500 1663440811 2003040947 -861639358 119176312 625898241 -1000752822 248367203 969785710 813738766 1341995866 -165166666 68444734 -51996544 -1078533467
REM
CELL 1.54180   50.00000   50.00000   50.00000   90.00000   90.00000   90.00000
LATT -1
SFAC C  
C      1  0.5474960000000  0.5156700000000  0.4154570000000 1.0
C      1  0.4126360000000  0.5419670000000  0.5193370000000 1.0
C      1  0.5075270000000  0.4066520000000  0.5475950000000 1.0
C      1  0.5334670000000  0.4868490000000  0.6005960000000 1.0
C      1  0.4613840000000  0.4903360000000  0.4023980000000 1.0
C      1  0.4532520000000  0.5048700000000  0.5882310000000 1.0
C      1  0.4042470000000  0.4644680000000  0.4955150000000 1.0
C      1  0.5939860000000  0.4616270000000  0.5012620000000 1.0
C      1  0.5948640000000  0.5417750000000  0.4773590000000 1.0
C      1  0.5059450000000  0.5908960000000  0.4592780000000 1.0
C      1  0.4747190000000  0.5929430000000  0.5426470000000 1.0
C      1  0.4958950000000  0.4043110000000  0.4643330000000 1.0
C      1  0.4652180000000  0.5206550000000  0.4093280000000 1.0
C      1  0.5952810000000  0.5375550000000  0.5051980000000 1.0
C      1  0.4771510000000  0.4084020000000  0.5474560000000 1.0
C      1  0.4551300000000  0.4771740000000  0.5940610000000 1.0
C      1  0.5437080000000  0.4831320000000  0.4062870000000 1.0
C      1  0.5484960000000  0.5080370000000  0.5894420000000 1.0
C      1  0.5908880000000  0.4636990000000  0.4727190000000 1.0
C      1  0.4057320000000  0.4604010000000  0.5292460000000 1.0
C      1  0.4123320000000  0.5441560000000  0.4870860000000 1.0
C      1  0.4771760000000  0.5886150000000  0.4599020000000 1.0
C      1  0.5008320000000  0.5991660000000  0.5379370000000 1.0
C      1  0.5247340000000  0.4115280000000  0.4673040000000 1.0
C      1  0.5234440000000  0.4096000000000  0.5182520000000 1.0
C      1  0.5202570000000  0.5313620000000  0.4086750000000 1.0
C      1  0.4049340000000  0.5155490000000  0.5320030000000 1.0
C      1  0.5203930000000  0.6001800000000  0.4836480000000 1.0
C      1  0.4619030000000  0.5843000000000  0.5164030000000 1.0
C      1  0.4713020000000  0.4131170000000  0.4844530000000 1.0
C      1  0.5112650000000  0.4735270000000  0.5887590000000 1.0
C      1  0.4836770000000  0.4679370000000  0.4149460000000 1.0
C      1  0.4756460000000  0.5282820000000  0.5865300000000 1.0
C      1  0.4135480000000  0.4842110000000  0.4694230000000 1.0
C      1  0.5839260000000  0.4809120000000  0.5174050000000 1.0
C      1  0.5995700000000  0.5190990000000  0.4605880000000 1.0
C      1  0.4709650000000  0.4150890000000  0.5184510000000 1.0
C      1  0.4976330000000  0.5166330000000  0.4149630000000 1.0
C      1  0.5923630000000  0.5106140000000  0.5258930000000 1.0
C      1  0.4643200000000  0.5931860000000  0.4849250000000 1.0
C      1  0.5202700000000  0.5878930000000  0.5157210000000 1.0
C      1  0.5375730000000  0.4004630000000  0.4948980000000 1.0
C      1  0.4822590000000  0.4680290000000  0.5973160000000 1.0
C      1  0.5142740000000  0.4758130000000  0.4108790000000 1.0
C      1  0.5329760000000  0.5327320000000  0.5827110000000 1.0
C      1  0.5899570000000  0.4929280000000  0.4694110000000 1.0
C      1  0.4076140000000  0.4915950000000  0.5158500000000 1.0
C      1  0.4188910000000  0.5162530000000  0.4770590000000 1.0
C      1  0.4821230000000  0.5499910000000  0.4511840000000 1.0
C      1  0.4409550000000  0.4783970000000  0.5518620000000 1.0
C      1  0.5513630000000  0.4613480000000  0.4780710000000 1.0
C      1  0.4716840000000  0.4528200000000  0.5510490000000 1.0
C      1  0.5277580000000  0.4391260000000  0.4507620000000 1.0
C      1  0.5185790000000  0.5491510000000  0.5463390000000 1.0
C      1  0.4499010000000  0.5248550000000  0.4378090000000 1.0
C      1  0.5561150000000  0.5137390000000  0.5562400000000 1.0
C      1  0.5512790000000  0.4834860000000  0.4449050000000 1.0
C      1  0.5582550000000  0.5454660000000  0.5177050000000 1.0
C      1  0.4542240000000  0.5499540000000  0.4795650000000 1.0
C      1  0.4317290000000  0.4458730000000  0.5188320000000 1.0
C      1  0.5229200000000  0.5637970000000  0.4476750000000 1.0
C      1  0.5484180000000  0.4806650000000  0.5542980000000 1.0
C      1  0.4269260000000  0.4476860000000  0.4773000000000 1.0
C      1  0.5207960000000  0.4379410000000  0.5461840000000 1.0
C      1  0.4767130000000  0.4264900000000  0.4471490000000 1.0
C      1  0.4921090000000  0.5587550000000  0.5532680000000 1.0
C      1  0.5497160000000  0.5232060000000  0.4485520000000 1.0
C      1  0.4469380000000  0.5221180000000  0.5596080000000 1.0
C      1  0.4430140000000  0.4740160000000  0.4248890000000 1.0
C      1  0.4458690000000  0.5482460000000  0.5228260000000 1.0
C      1  0.5505980000000  0.5644140000000  0.4834130000000 1.0
C      1  0.5514140000000  0.4546340000000  0.5084080000000 1.0
C      1  0.5162630000000  0.4322640000000  0.4221240000000 1.0
C      1  0.4222890000000  0.5144420000000  0.4450520000000 1.0
C      1  0.4408130000000  0.4191520000000  0.5091510000000 1.0
C      1  0.5161950000000  0.5511690000000  0.5951680000000 1.0
C      1  0.4899700000000  0.5653950000000  0.4237680000000 1.0
C      1  0.4857480000000  0.4424710000000  0.5802240000000 1.0
C      1  0.4140720000000  0.4857260000000  0.5713520000000 1.0
C      1  0.5775760000000  0.4908960000000  0.4245200000000 1.0
C      1  0.5897820000000  0.5091350000000  0.5574190000000 1.0
C      1  0.4352480000000  0.5768690000000  0.4882340000000 1.0
C      1  0.5526650000000  0.5931300000000  0.5232550000000 1.0
C      1  0.5667300000000  0.4093530000000  0.4941070000000 1.0
C      1  0.4893560000000  0.4385990000000  0.4222290000000 1.0
C      1  0.5800230000000  0.5161430000000  0.4384820000000 1.0
C      1  0.5718890000000  0.4307190000000  0.5125560000000 1.0
C      1  0.4900030000000  0.5520820000000  0.5845620000000 1.0
C      1  0.5167870000000  0.5584050000000  0.4152360000000 1.0
C      1  0.5141260000000  0.4326110000000  0.5769910000000 1.0
C      1  0.6064330000000  0.5068620000000  0.5768960000000 1.0
C      1  0.4183840000000  0.4860090000000  0.4371040000000 1.0
C      1  0.4168210000000  0.5113780000000  0.5573900000000 1.0
C      1  0.5512530000000  0.5944670000000  0.4922080000000 1.0
C      1  0.4292650000000  0.5780310000000  0.5190340000000 1.0
C      1  0.4392050000000  0.4165330000000  0.4788270000000 1.0
C      1  0.4822090000000  0.5167090000000  0.4452650000000 1.0
C      1  0.4391970000000  0.4792840000000  0.5185140000000 1.0
C      1  0.5192400000000  0.4500650000000  0.4818270000000 1.0
C      1  0.4709670000000  0.4849480000000  0.5584110000000 1.0
C      1  0.5227890000000  0.4702210000000  0.4429520000000 1.0
C      1  0.5226920000000  0.5193110000000  0.5533710000000 1.0
C      1  0.4520100000000  0.5187890000000  0.4712610000000 1.0
C      1  0.5625760000000  0.5153280000000  0.5101900000000 1.0
C      1  0.5583760000000  0.4919170000000  0.4724760000000 1.0
C      1  0.5290160000000  0.5551820000000  0.5191730000000 1.0
C      1  0.4872800000000  0.5569170000000  0.4820730000000 1.0
C      1  0.4650120000000  0.4483330000000  0.5216490000000 1.0
C      1  0.5182840000000  0.5308890000000  0.4549540000000 1.0
C      1  0.5505120000000  0.4854020000000  0.5218550000000 1.0
C      1  0.4868520000000  0.4413470000000  0.4761770000000 1.0
C      1  0.5182490000000  0.4679400000000  0.5590170000000 1.0
C      1  0.4713480000000  0.4848290000000  0.4405360000000 1.0
C      1  0.4801410000000  0.5146280000000  0.5570400000000 1.0
C      1  0.5564940000000  0.5310210000000  0.4806330000000 1.0
C      1  0.4539730000000  0.5154600000000  0.5270020000000 1.0
C      1  0.4429750000000  0.4771030000000  0.4847930000000 1.0
C      1  0.4764220000000  0.5563170000000  0.5267040000000 1.0
C      1  0.5188690000000  0.5604060000000  0.4812630000000 1.0
C      1  0.5241290000000  0.4410270000000  0.5142460000000 1.0
C      1  0.4553730000000  0.5684030000000  0.4433640000000 1.0
C      1  0.4385190000000  0.4543190000000  0.5750750000000 1.0
C      1  0.5681430000000  0.4468170000000  0.4538570000000 1.0
C      1  0.4583480000000  0.4270800000000  0.5689620000000 1.0
C      1  0.5580770000000  0.4180960000000  0.4656730000000 1.0
C      1  0.5645480000000  0.5770280000000  0.5413500000000 1.0
C      1  0.4626730000000  0.5535090000000  0.4136380000000 1.0
C      1  0.5640020000000  0.5468710000000  0.5566830000000 1.0
C      1  0.5635420000000  0.4610840000000  0.4231440000000 1.0
C      1  0.5873270000000  0.5546460000000  0.5327070000000 1.0
C      1  0.4275310000000  0.5609570000000  0.4616000000000 1.0
C      1  0.4080600000000  0.4572800000000  0.5595870000000 1.0
C      1  0.5561270000000  0.5621400000000  0.4420700000000 1.0
C      1  0.5587450000000  0.4529330000000  0.5664650000000 1.0
C      1  0.4221410000000  0.4354860000000  0.4489130000000 1.0
C      1  0.5381800000000  0.4051220000000  0.5610240000000 1.0
C      1  0.4487710000000  0.4210210000000  0.4401530000000 1.0
C      1  0.4630960000000  0.5721840000000  0.5629720000000 1.0
C      1  0.5605100000000  0.5469640000000  0.4185860000000 1.0
C      1  0.4410930000000  0.5546500000000  0.5619980000000 1.0
C      1  0.4374370000000  0.4450870000000  0.4229750000000 1.0
C      1  0.4175230000000  0.5627700000000  0.5458090000000 1.0
C      1  0.5771050000000  0.5608380000000  0.4645520000000 1.0
C      1  0.5550510000000  0.4263860000000  0.5632760000000 1.0
C      1  0.5129820000000  0.4828980000000  0.4880850000000 1.0
C      1  0.4812310000000  0.5331270000000  0.5037950000000 1.0
C      1  0.4978570000000  0.4807350000000  0.5397080000000 1.0
C      1  0.4953190000000  0.5182180000000  0.4766310000000 1.0
C      1  0.4979120000000  0.5193110000000  0.5300210000000 1.0
C      1  0.5176720000000  0.4940050000000  0.5186530000000 1.0
C      1  0.5197370000000  0.5322950000000  0.4957260000000 1.0
C      1  0.4974920000000  0.4814920000000  0.4594920000000 1.0
C      1  0.5336770000000  0.5061040000000  0.4844480000000 1.0
C      1  0.4717130000000  0.4875690000000  0.5189750000000 1.0
C      1  0.4726010000000  0.4930330000000  0.4796090000000 1.0
C      1  0.4789250000000  0.4639620000000  0.4961240000000 1.0
END
