TITL C-3289329-2751-552 0.00206500615760531 125000 -774.526250007914 0 0 141 (C1) n - 1
REM
REM in /nfs/bkarasulu/CARBON/AIRSS/Generating-Clusters/AIREBO/with-SteepDescent/Higher-Symm/SD-CG/HFTN-CG
REM
REM
REM
REM
REM
REM ./C.cell (b20cbc046b6831c77cfcea5457e17084)
REM
REM compiler GCC version 9.2.1 20190827 (Red Hat 9.2.1-1)
REM options -cpp -mtune=generic -march=x86-64 -g -O0 -fpre-include=/usr/include/finclude/math-vector-fortran.h
REM seed -270726327 -858798815 -477195185 1792998696 -1634833486 153603421 -2072404965 -687505572 1799225015 -1698917147 -2011589651 -856477776 -2115114366 1093447354 -1111073170 -816800125 -1244670203 1039153810 1921688876 77896330 -1016900125 -1347284744 2028347415 -1699907735 -1966386763 682743326 1363497698 -1946755010 2038694420 -1901643427 -256123394 604449032 1317975405
REM
CELL 1.54180   50.00000   50.00000   50.00000   90.00000   90.00000   90.00000
LATT -1
SFAC C  
C      1  0.4987410000000  0.5379160000000  0.5085500000000 1.0
C      1  0.5019350000000  0.4950090000000  0.4643400000000 1.0
C      1  0.5041680000000  0.4845880000000  0.5191970000000 1.0
C      1  0.4658920000000  0.4588190000000  0.5712690000000 1.0
C      1  0.4758100000000  0.5619890000000  0.5014100000000 1.0
C      1  0.4820550000000  0.4758880000000  0.4444360000000 1.0
C      1  0.5497730000000  0.4193130000000  0.5031150000000 1.0
C      1  0.5551060000000  0.5443720000000  0.5784070000000 1.0
C      1  0.5511650000000  0.5512700000000  0.4229390000000 1.0
C      1  0.4148190000000  0.4353340000000  0.4868900000000 1.0
C      1  0.4127870000000  0.5194330000000  0.5599180000000 1.0
C      1  0.4098430000000  0.5391280000000  0.4509930000000 1.0
C      1  0.5120030000000  0.6004490000000  0.4992060000000 1.0
C      1  0.5044070000000  0.4546480000000  0.4104870000000 1.0
C      1  0.5009530000000  0.4396820000000  0.5924220000000 1.0
C      1  0.4724360000000  0.4638800000000  0.4991280000000 1.0
C      1  0.4728570000000  0.4978640000000  0.5197060000000 1.0
C      1  0.4719930000000  0.5208320000000  0.4692320000000 1.0
C      1  0.4951890000000  0.5601990000000  0.4244930000000 1.0
C      1  0.5028860000000  0.3977640000000  0.4920530000000 1.0
C      1  0.5037270000000  0.5415690000000  0.5858680000000 1.0
C      1  0.4629930000000  0.4270870000000  0.4590520000000 1.0
C      1  0.4601950000000  0.5007190000000  0.5822090000000 1.0
C      1  0.4483820000000  0.5726930000000  0.4555460000000 1.0
C      1  0.4421850000000  0.4217470000000  0.4861800000000 1.0
C      1  0.4409500000000  0.5260980000000  0.5703070000000 1.0
C      1  0.4353300000000  0.5487880000000  0.4382370000000 1.0
C      1  0.5919560000000  0.5446960000000  0.4798560000000 1.0
C      1  0.5865840000000  0.4635290000000  0.4685010000000 1.0
C      1  0.5788240000000  0.4881640000000  0.5492070000000 1.0
C      1  0.5379500000000  0.5555810000000  0.5077400000000 1.0
C      1  0.5319050000000  0.4941350000000  0.4483050000000 1.0
C      1  0.5264330000000  0.4630050000000  0.5331620000000 1.0
C      1  0.4466740000000  0.4486400000000  0.4452000000000 1.0
C      1  0.4356910000000  0.4841850000000  0.5746390000000 1.0
C      1  0.4379610000000  0.5711990000000  0.4844990000000 1.0
C      1  0.5722210000000  0.5639430000000  0.4714140000000 1.0
C      1  0.5646180000000  0.4479580000000  0.4571170000000 1.0
C      1  0.5580580000000  0.4869450000000  0.5702500000000 1.0
C      1  0.5303670000000  0.5285510000000  0.5910970000000 1.0
C      1  0.5266590000000  0.5654280000000  0.4362710000000 1.0
C      1  0.5273200000000  0.4164170000000  0.4819630000000 1.0
C      1  0.4048990000000  0.5395120000000  0.5067290000000 1.0
C      1  0.4044260000000  0.4829090000000  0.4589340000000 1.0
C      1  0.4043610000000  0.4709540000000  0.5302200000000 1.0
C      1  0.4649980000000  0.5064120000000  0.4052050000000 1.0
C      1  0.4645690000000  0.4084180000000  0.5446380000000 1.0
C      1  0.4669890000000  0.5809060000000  0.5505600000000 1.0
C      1  0.5792210000000  0.5121370000000  0.4113980000000 1.0
C      1  0.5790750000000  0.4167570000000  0.5301810000000 1.0
C      1  0.5828030000000  0.5688140000000  0.5475690000000 1.0
C      1  0.5466610000000  0.5148430000000  0.5645830000000 1.0
C      1  0.5506030000000  0.5492170000000  0.4558490000000 1.0
C      1  0.5478370000000  0.4438060000000  0.4816690000000 1.0
C      1  0.4956390000000  0.5219310000000  0.4445400000000 1.0
C      1  0.4925060000000  0.4463750000000  0.5203730000000 1.0
C      1  0.4988010000000  0.5491000000000  0.5390880000000 1.0
C      1  0.5494040000000  0.5859960000000  0.5171710000000 1.0
C      1  0.5352120000000  0.4742630000000  0.4266320000000 1.0
C      1  0.5297140000000  0.4494610000000  0.5611280000000 1.0
C      1  0.5490710000000  0.5120090000000  0.5307710000000 1.0
C      1  0.5437180000000  0.5248520000000  0.4765460000000 1.0
C      1  0.5429100000000  0.4736980000000  0.4906220000000 1.0
C      1  0.4933310000000  0.4071810000000  0.5484090000000 1.0
C      1  0.4969960000000  0.5808260000000  0.5460850000000 1.0
C      1  0.4928350000000  0.5070660000000  0.4137840000000 1.0
C      1  0.5902730000000  0.5094010000000  0.4352370000000 1.0
C      1  0.5904130000000  0.4382000000000  0.5196710000000 1.0
C      1  0.5923370000000  0.5469060000000  0.5351730000000 1.0
C      1  0.4708250000000  0.4668900000000  0.5318880000000 1.0
C      1  0.4708900000000  0.5219790000000  0.5031960000000 1.0
C      1  0.4726910000000  0.4891780000000  0.4806850000000 1.0
C      1  0.5819010000000  0.5168430000000  0.5382730000000 1.0
C      1  0.5978960000000  0.5238880000000  0.4622500000000 1.0
C      1  0.5925050000000  0.4580180000000  0.4950050000000 1.0
C      1  0.5535080000000  0.4954610000000  0.4703090000000 1.0
C      1  0.5509480000000  0.4796800000000  0.5202200000000 1.0
C      1  0.5553640000000  0.5308410000000  0.5055240000000 1.0
C      1  0.4283420000000  0.5229790000000  0.5234610000000 1.0
C      1  0.4278700000000  0.5054250000000  0.4626680000000 1.0
C      1  0.4318820000000  0.4594860000000  0.5155640000000 1.0
C      1  0.5202790000000  0.4310830000000  0.5271970000000 1.0
C      1  0.5299880000000  0.5594700000000  0.5392810000000 1.0
C      1  0.5276560000000  0.5206340000000  0.4330710000000 1.0
C      1  0.5254520000000  0.5127770000000  0.3920410000000 1.0
C      1  0.5256750000000  0.3973270000000  0.5529550000000 1.0
C      1  0.5320330000000  0.5938590000000  0.5594100000000 1.0
C      1  0.5124930000000  0.4746360000000  0.4887170000000 1.0
C      1  0.5163960000000  0.5153690000000  0.5269090000000 1.0
C      1  0.5118250000000  0.5229780000000  0.4809960000000 1.0
C      1  0.4496270000000  0.4114060000000  0.5159230000000 1.0
C      1  0.4491990000000  0.5565960000000  0.5633010000000 1.0
C      1  0.4462140000000  0.5287600000000  0.4171500000000 1.0
C      1  0.5191520000000  0.5561510000000  0.4794130000000 1.0
C      1  0.5010390000000  0.4492040000000  0.4753880000000 1.0
C      1  0.5002250000000  0.4978950000000  0.5511910000000 1.0
C      1  0.4469740000000  0.5647000000000  0.5326040000000 1.0
C      1  0.4453540000000  0.4974220000000  0.4276960000000 1.0
C      1  0.4425760000000  0.4311260000000  0.5415520000000 1.0
C      1  0.4008200000000  0.5110630000000  0.4428440000000 1.0
C      1  0.4033480000000  0.4415220000000  0.5148460000000 1.0
C      1  0.4031410000000  0.5399740000000  0.5393170000000 1.0
C      1  0.4433120000000  0.4958140000000  0.5337590000000 1.0
C      1  0.4414870000000  0.5296950000000  0.4748800000000 1.0
C      1  0.4412210000000  0.4652760000000  0.4862310000000 1.0
C      1  0.5543120000000  0.5681770000000  0.5600610000000 1.0
C      1  0.5512150000000  0.5244910000000  0.4088430000000 1.0
C      1  0.5477560000000  0.4121720000000  0.5338630000000 1.0
C      1  0.4113240000000  0.4938020000000  0.5448150000000 1.0
C      1  0.4110650000000  0.5418910000000  0.4808480000000 1.0
C      1  0.4134030000000  0.4598230000000  0.4695270000000 1.0
C      1  0.5852260000000  0.5357620000000  0.5065790000000 1.0
C      1  0.5829330000000  0.4931180000000  0.4628320000000 1.0
C      1  0.5798880000000  0.4687860000000  0.5248430000000 1.0
C      1  0.5151740000000  0.4838150000000  0.4034060000000 1.0
C      1  0.5141090000000  0.4233260000000  0.5699460000000 1.0
C      1  0.5202990000000  0.5967390000000  0.5287940000000 1.0
C      1  0.4713550000000  0.4045470000000  0.4830970000000 1.0
C      1  0.4712560000000  0.5320710000000  0.5852850000000 1.0
C      1  0.4627780000000  0.5625870000000  0.4236490000000 1.0
C      1  0.4421620000000  0.4645940000000  0.5475920000000 1.0
C      1  0.4461350000000  0.5452290000000  0.5048880000000 1.0
C      1  0.4501650000000  0.4804310000000  0.4567590000000 1.0
C      1  0.4915580000000  0.4291840000000  0.4943300000000 1.0
C      1  0.4919820000000  0.5281000000000  0.5585780000000 1.0
C      1  0.4956710000000  0.5533380000000  0.4575820000000 1.0
C      1  0.4754170000000  0.5716990000000  0.4705220000000 1.0
C      1  0.4901720000000  0.4428990000000  0.4459690000000 1.0
C      1  0.4869410000000  0.4840930000000  0.5748490000000 1.0
C      1  0.5391560000000  0.4692420000000  0.5804830000000 1.0
C      1  0.5597340000000  0.5846220000000  0.4867530000000 1.0
C      1  0.5475750000000  0.4486990000000  0.4345150000000 1.0
C      1  0.5122730000000  0.3989160000000  0.5214070000000 1.0
C      1  0.5159100000000  0.5661770000000  0.5708070000000 1.0
C      1  0.5091430000000  0.5366710000000  0.4100860000000 1.0
C      1  0.4749260000000  0.4545900000000  0.4179070000000 1.0
C      1  0.4726140000000  0.4399640000000  0.5898930000000 1.0
C      1  0.4853570000000  0.5933080000000  0.4939790000000 1.0
C      1  0.5198650000000  0.4375660000000  0.4295970000000 1.0
C      1  0.5102130000000  0.4671990000000  0.5910900000000 1.0
C      1  0.5294280000000  0.5855680000000  0.4827330000000 1.0
END
