TITL C-3289329-2751-589 -0.000226088041967019 125000 -261.7719176424 0 0 48 (C1) n - 1
REM
REM in /nfs/bkarasulu/CARBON/AIRSS/Generating-Clusters/AIREBO/with-SteepDescent/Higher-Symm/SD-CG/HFTN-CG
REM
REM
REM
REM
REM
REM ./C.cell (b20cbc046b6831c77cfcea5457e17084)
REM
REM compiler GCC version 9.2.1 20190827 (Red Hat 9.2.1-1)
REM options -cpp -mtune=generic -march=x86-64 -g -O0 -fpre-include=/usr/include/finclude/math-vector-fortran.h
REM seed 11953541 1053862433 754096240 -1312836941 -1911244462 1096616799 2146312587 -1153146254 432032885 847469156 -1306083101 979855658 455540649 775655456 -645681127 -628572752 -1366680728 333536788 -448891297 1966879569 315556840 270167729 305321720 -1977068397 -1945610735 1805920569 1768680131 -1220823601 -106184389 -347606382 1357135446 1016894862 312799982
REM
CELL 1.54180   50.00000   50.00000   50.00000   90.00000   90.00000   90.00000
LATT -1
SFAC C  
C      1  0.5173210000000  0.4835310000000  0.5804790000000 1.0
C      1  0.4918110000000  0.4862970000000  0.4307450000000 1.0
C      1  0.5166130000000  0.4835410000000  0.4189880000000 1.0
C      1  0.4924720000000  0.4855300000000  0.5687210000000 1.0
C      1  0.4588460000000  0.4765120000000  0.4705970000000 1.0
C      1  0.5406250000000  0.4777640000000  0.5289760000000 1.0
C      1  0.4597440000000  0.4754760000000  0.5282640000000 1.0
C      1  0.5401190000000  0.4772580000000  0.4711910000000 1.0
C      1  0.4876490000000  0.4908210000000  0.4618290000000 1.0
C      1  0.5109920000000  0.4863440000000  0.5150620000000 1.0
C      1  0.4878590000000  0.4907300000000  0.5377000000000 1.0
C      1  0.5107450000000  0.4863950000000  0.4848150000000 1.0
C      1  0.5138160000000  0.4343040000000  0.5274560000000 1.0
C      1  0.4856960000000  0.4321330000000  0.4862080000000 1.0
C      1  0.5115930000000  0.4346570000000  0.4746400000000 1.0
C      1  0.4872880000000  0.4311090000000  0.5180200000000 1.0
C      1  0.5399870000000  0.5277710000000  0.4350500000000 1.0
C      1  0.4591610000000  0.5277600000000  0.5656660000000 1.0
C      1  0.5398080000000  0.5284420000000  0.5647050000000 1.0
C      1  0.4596810000000  0.5293580000000  0.4341620000000 1.0
C      1  0.4601670000000  0.5068450000000  0.5139340000000 1.0
C      1  0.5439250000000  0.5084750000000  0.4855550000000 1.0
C      1  0.4599320000000  0.5070600000000  0.4854870000000 1.0
C      1  0.5439350000000  0.5087610000000  0.5141800000000 1.0
C      1  0.5391660000000  0.4980590000000  0.5760020000000 1.0
C      1  0.4663660000000  0.4988910000000  0.4240540000000 1.0
C      1  0.5388250000000  0.4974340000000  0.4236970000000 1.0
C      1  0.4665440000000  0.4973170000000  0.5752670000000 1.0
C      1  0.5526870000000  0.5028400000000  0.4535720000000 1.0
C      1  0.4504640000000  0.5027880000000  0.5462670000000 1.0
C      1  0.5529510000000  0.5038590000000  0.5461230000000 1.0
C      1  0.4501040000000  0.5043970000000  0.4530470000000 1.0
C      1  0.5396420000000  0.5606520000000  0.4417130000000 1.0
C      1  0.4538560000000  0.5609870000000  0.5608080000000 1.0
C      1  0.5385180000000  0.5613950000000  0.5585330000000 1.0
C      1  0.4548570000000  0.5625050000000  0.4399990000000 1.0
C      1  0.5308550000000  0.4518730000000  0.4865120000000 1.0
C      1  0.4640800000000  0.4507810000000  0.5138920000000 1.0
C      1  0.5316360000000  0.4520170000000  0.5142000000000 1.0
C      1  0.4609080000000  0.4511160000000  0.4838570000000 1.0
C      1  0.5142350000000  0.5419540000000  0.4514250000000 1.0
C      1  0.4836500000000  0.5485110000000  0.5554020000000 1.0
C      1  0.5136460000000  0.5420950000000  0.5486160000000 1.0
C      1  0.4844580000000  0.5493780000000  0.4449560000000 1.0
C      1  0.4819010000000  0.5236900000000  0.5330570000000 1.0
C      1  0.5144160000000  0.5181160000000  0.4731320000000 1.0
C      1  0.4821220000000  0.5240300000000  0.4668050000000 1.0
C      1  0.5143300000000  0.5184390000000  0.5266310000000 1.0
END
