TITL C-3289323-3850-344 -1017.4864620775 125000 -1092.34690814698 0 0 199 (C1) n - 1
REM
REM in /nfs/bkarasulu/CARBON/AIRSS/Generating-Clusters/AIREBO/with-SteepDescent/Higher-Symm/SD-CG/HFTN-CG
REM
REM
REM
REM
REM
REM ./C.cell (b20cbc046b6831c77cfcea5457e17084)
REM
REM compiler GCC version 9.2.1 20190827 (Red Hat 9.2.1-1)
REM options -cpp -mtune=generic -march=x86-64 -g -O0 -fpre-include=/usr/include/finclude/math-vector-fortran.h
REM seed 1816738115 1349302273 1241114236 1551963757 -776520665 -1412000450 -1094222849 1775132732 -956224954 -1387187182 882050513 1414661484 830424230 -1777128613 126695730 937865154 -1614475106 -359374546 254297293 868940938 523040226 -1249560089 -1102877600 -571742639 197078532 -22420445 1272231064 -671346708 -1616413617 547992133 -915803871 319978747 -1066329977
REM
CELL 1.54180   50.00000   50.00000   50.00000   90.00000   90.00000   90.00000
LATT -1
SFAC C  
C      1  0.5169760000000  0.4018060000000  0.5673360000000 1.0
C      1  0.5139380000000  0.5917620000000  0.5513770000000 1.0
C      1  0.5747820000000  0.5593850000000  0.4325700000000 1.0
C      1  0.5705720000000  0.4432170000000  0.4254100000000 1.0
C      1  0.4613290000000  0.5778690000000  0.5463010000000 1.0
C      1  0.4669250000000  0.4229640000000  0.5542790000000 1.0
C      1  0.4400570000000  0.4014080000000  0.5100400000000 1.0
C      1  0.4437660000000  0.5965120000000  0.5238380000000 1.0
C      1  0.5754030000000  0.4762630000000  0.5742920000000 1.0
C      1  0.5825860000000  0.5257840000000  0.5775530000000 1.0
C      1  0.5624980000000  0.4520710000000  0.4732600000000 1.0
C      1  0.5630250000000  0.5361220000000  0.4761610000000 1.0
C      1  0.5364070000000  0.5976400000000  0.5291810000000 1.0
C      1  0.5352850000000  0.4064670000000  0.5390620000000 1.0
C      1  0.5234220000000  0.4413750000000  0.5067040000000 1.0
C      1  0.5246150000000  0.5588430000000  0.5043800000000 1.0
C      1  0.5568390000000  0.4744250000000  0.3953770000000 1.0
C      1  0.5543190000000  0.5347960000000  0.3985910000000 1.0
C      1  0.4353040000000  0.5226650000000  0.5272150000000 1.0
C      1  0.4330870000000  0.4693330000000  0.5241640000000 1.0
C      1  0.5298410000000  0.4834040000000  0.5284910000000 1.0
C      1  0.5263960000000  0.5204840000000  0.5143610000000 1.0
C      1  0.4634830000000  0.6076030000000  0.4510080000000 1.0
C      1  0.4824880000000  0.3888730000000  0.4621460000000 1.0
C      1  0.4514540000000  0.4721400000000  0.5714370000000 1.0
C      1  0.4532740000000  0.5210930000000  0.5755240000000 1.0
C      1  0.4311670000000  0.5669280000000  0.4232100000000 1.0
C      1  0.4407000000000  0.4266100000000  0.4142340000000 1.0
C      1  0.5560850000000  0.5607660000000  0.4112460000000 1.0
C      1  0.5430790000000  0.4470580000000  0.4054960000000 1.0
C      1  0.4168070000000  0.4239340000000  0.5020700000000 1.0
C      1  0.4245370000000  0.5868150000000  0.5006840000000 1.0
C      1  0.5045500000000  0.5354800000000  0.5657120000000 1.0
C      1  0.5053020000000  0.4672890000000  0.5739970000000 1.0
C      1  0.5371760000000  0.5592550000000  0.5523400000000 1.0
C      1  0.5369590000000  0.4456570000000  0.5628340000000 1.0
C      1  0.5379120000000  0.5232020000000  0.5907640000000 1.0
C      1  0.5336740000000  0.4908490000000  0.5892970000000 1.0
C      1  0.4747230000000  0.4475830000000  0.4158220000000 1.0
C      1  0.4677260000000  0.5512560000000  0.4202320000000 1.0
C      1  0.4417520000000  0.4324990000000  0.5717980000000 1.0
C      1  0.4414920000000  0.5673570000000  0.5718470000000 1.0
C      1  0.5130060000000  0.4692020000000  0.4393070000000 1.0
C      1  0.5181590000000  0.5369060000000  0.4380890000000 1.0
C      1  0.5336360000000  0.5807360000000  0.5767410000000 1.0
C      1  0.5306340000000  0.4247270000000  0.5858210000000 1.0
C      1  0.5169690000000  0.6145770000000  0.5061510000000 1.0
C      1  0.5219070000000  0.4020690000000  0.5149250000000 1.0
C      1  0.4751710000000  0.4400530000000  0.4504780000000 1.0
C      1  0.4682040000000  0.5534200000000  0.4508100000000 1.0
C      1  0.5012900000000  0.5729270000000  0.4397490000000 1.0
C      1  0.4933290000000  0.4196450000000  0.4212670000000 1.0
C      1  0.5866740000000  0.4286390000000  0.4745180000000 1.0
C      1  0.5866110000000  0.5598470000000  0.4823010000000 1.0
C      1  0.4666920000000  0.4517450000000  0.6174860000000 1.0
C      1  0.4718600000000  0.5480550000000  0.6115950000000 1.0
C      1  0.4704210000000  0.4843690000000  0.6249000000000 1.0
C      1  0.4671420000000  0.5181360000000  0.6271980000000 1.0
C      1  0.5439420000000  0.4783570000000  0.5007720000000 1.0
C      1  0.5484380000000  0.5113210000000  0.4943100000000 1.0
C      1  0.4716870000000  0.4880410000000  0.5084780000000 1.0
C      1  0.4656960000000  0.5153820000000  0.4893190000000 1.0
C      1  0.5039730000000  0.4040210000000  0.4564920000000 1.0
C      1  0.4897890000000  0.6036680000000  0.4458830000000 1.0
C      1  0.5778870000000  0.4459530000000  0.5268950000000 1.0
C      1  0.5834580000000  0.5499050000000  0.5259260000000 1.0
C      1  0.4619600000000  0.4827480000000  0.4016790000000 1.0
C      1  0.4466080000000  0.5118090000000  0.3927920000000 1.0
C      1  0.5038200000000  0.4840610000000  0.5477600000000 1.0
C      1  0.5093340000000  0.5147350000000  0.5422490000000 1.0
C      1  0.4088940000000  0.4672070000000  0.5574120000000 1.0
C      1  0.4078180000000  0.5275760000000  0.5627780000000 1.0
C      1  0.5521690000000  0.5141660000000  0.4379420000000 1.0
C      1  0.5505070000000  0.4814540000000  0.4421350000000 1.0
C      1  0.4463900000000  0.5504030000000  0.4839790000000 1.0
C      1  0.4425410000000  0.4460970000000  0.4811010000000 1.0
C      1  0.4423850000000  0.4580520000000  0.4148160000000 1.0
C      1  0.4387230000000  0.5405260000000  0.4077900000000 1.0
C      1  0.5891060000000  0.4681740000000  0.5473240000000 1.0
C      1  0.5976030000000  0.5311600000000  0.5490080000000 1.0
C      1  0.4268080000000  0.5536210000000  0.5328290000000 1.0
C      1  0.4313760000000  0.4369120000000  0.5262300000000 1.0
C      1  0.4842220000000  0.5679700000000  0.3980570000000 1.0
C      1  0.4818970000000  0.4460500000000  0.3836730000000 1.0
C      1  0.5149640000000  0.4408550000000  0.5372390000000 1.0
C      1  0.5095750000000  0.5568400000000  0.5323980000000 1.0
C      1  0.4906890000000  0.5837630000000  0.5301720000000 1.0
C      1  0.4963500000000  0.4140300000000  0.5442090000000 1.0
C      1  0.5958500000000  0.5335500000000  0.4988010000000 1.0
C      1  0.5942130000000  0.4511150000000  0.4974930000000 1.0
C      1  0.5774850000000  0.4800750000000  0.4610880000000 1.0
C      1  0.5846420000000  0.5139680000000  0.4620940000000 1.0
C      1  0.4838570000000  0.5345810000000  0.5316090000000 1.0
C      1  0.4849460000000  0.4562850000000  0.5414500000000 1.0
C      1  0.5697740000000  0.4239630000000  0.4460010000000 1.0
C      1  0.5720680000000  0.5757840000000  0.4569880000000 1.0
C      1  0.4574620000000  0.4232980000000  0.4927290000000 1.0
C      1  0.4617890000000  0.5741970000000  0.4957670000000 1.0
C      1  0.5549360000000  0.4497490000000  0.5042980000000 1.0
C      1  0.5556020000000  0.5487800000000  0.5062150000000 1.0
C      1  0.4586840000000  0.5546380000000  0.5217490000000 1.0
C      1  0.4639110000000  0.4357920000000  0.5237020000000 1.0
C      1  0.5035300000000  0.4625900000000  0.4890740000000 1.0
C      1  0.5070050000000  0.5448800000000  0.4829480000000 1.0
C      1  0.4024950000000  0.4446030000000  0.4890040000000 1.0
C      1  0.4053040000000  0.5655750000000  0.4953380000000 1.0
C      1  0.4424580000000  0.4864150000000  0.4541710000000 1.0
C      1  0.4524950000000  0.5127950000000  0.4399380000000 1.0
C      1  0.6155760000000  0.4844390000000  0.5439970000000 1.0
C      1  0.6196150000000  0.5093500000000  0.5450590000000 1.0
C      1  0.5807690000000  0.4848310000000  0.4080540000000 1.0
C      1  0.5761340000000  0.5136580000000  0.4138190000000 1.0
C      1  0.5674980000000  0.5170190000000  0.5419580000000 1.0
C      1  0.5623210000000  0.4849580000000  0.5355930000000 1.0
C      1  0.5230960000000  0.5981030000000  0.4401910000000 1.0
C      1  0.5228580000000  0.4053690000000  0.4314550000000 1.0
C      1  0.5526370000000  0.5353810000000  0.5645860000000 1.0
C      1  0.5488090000000  0.4707030000000  0.5770220000000 1.0
C      1  0.5032820000000  0.5181540000000  0.4622430000000 1.0
C      1  0.4961410000000  0.4848490000000  0.4643480000000 1.0
C      1  0.4994960000000  0.5151630000000  0.4008190000000 1.0
C      1  0.4949530000000  0.4831560000000  0.3902640000000 1.0
C      1  0.5859900000000  0.4674690000000  0.4306570000000 1.0
C      1  0.5868340000000  0.5334840000000  0.4362020000000 1.0
C      1  0.5057500000000  0.5484060000000  0.4085780000000 1.0
C      1  0.5105130000000  0.4538180000000  0.3983650000000 1.0
C      1  0.5010400000000  0.5866110000000  0.5831050000000 1.0
C      1  0.4918800000000  0.4154390000000  0.5858770000000 1.0
C      1  0.4747120000000  0.5114200000000  0.5961340000000 1.0
C      1  0.4720290000000  0.4809970000000  0.5910650000000 1.0
C      1  0.4584650000000  0.4039240000000  0.4647770000000 1.0
C      1  0.4432630000000  0.5923650000000  0.4737730000000 1.0
C      1  0.4544380000000  0.5491100000000  0.5887850000000 1.0
C      1  0.4492350000000  0.4484990000000  0.5952580000000 1.0
C      1  0.5367790000000  0.5887220000000  0.4963570000000 1.0
C      1  0.5337330000000  0.4151060000000  0.4877170000000 1.0
C      1  0.5217090000000  0.5531750000000  0.5891330000000 1.0
C      1  0.5141690000000  0.4463140000000  0.5975320000000 1.0
C      1  0.4120190000000  0.4826080000000  0.4809930000000 1.0
C      1  0.4150040000000  0.5129590000000  0.4801830000000 1.0
C      1  0.4610930000000  0.4804900000000  0.5398940000000 1.0
C      1  0.4602370000000  0.5141450000000  0.5452610000000 1.0
C      1  0.4620050000000  0.4139070000000  0.4331850000000 1.0
C      1  0.4375950000000  0.5935110000000  0.4396870000000 1.0
C      1  0.5652890000000  0.4057370000000  0.4843670000000 1.0
C      1  0.5694250000000  0.5876760000000  0.4895070000000 1.0
C      1  0.4034270000000  0.5416210000000  0.5135380000000 1.0
C      1  0.3896850000000  0.4620620000000  0.5068130000000 1.0
C      1  0.4437650000000  0.4529310000000  0.4484080000000 1.0
C      1  0.4352000000000  0.5571660000000  0.4543910000000 1.0
C      1  0.4824500000000  0.4447680000000  0.5733470000000 1.0
C      1  0.4865260000000  0.5637850000000  0.5642990000000 1.0
C      1  0.5324620000000  0.4840840000000  0.4156300000000 1.0
C      1  0.5296950000000  0.5169410000000  0.4130890000000 1.0
C      1  0.4905800000000  0.5671230000000  0.4692390000000 1.0
C      1  0.5021050000000  0.4347540000000  0.4695990000000 1.0
C      1  0.4027250000000  0.5141280000000  0.5335340000000 1.0
C      1  0.4023360000000  0.4823980000000  0.5302770000000 1.0
C      1  0.5349480000000  0.4807400000000  0.4723600000000 1.0
C      1  0.5346910000000  0.5108260000000  0.4636870000000 1.0
C      1  0.4236420000000  0.4839350000000  0.5741720000000 1.0
C      1  0.4247370000000  0.5109930000000  0.5773550000000 1.0
C      1  0.4082150000000  0.4891850000000  0.4478520000000 1.0
C      1  0.4214290000000  0.5200540000000  0.4496220000000 1.0
C      1  0.6038030000000  0.4795400000000  0.4819590000000 1.0
C      1  0.6128710000000  0.5116660000000  0.4809130000000 1.0
C      1  0.5044080000000  0.5175890000000  0.5921620000000 1.0
C      1  0.5041030000000  0.4849230000000  0.6016430000000 1.0
C      1  0.5313030000000  0.4492930000000  0.4599400000000 1.0
C      1  0.5407970000000  0.5499070000000  0.4577560000000 1.0
C      1  0.4214380000000  0.4420500000000  0.5547320000000 1.0
C      1  0.4169520000000  0.5559960000000  0.5614780000000 1.0
C      1  0.4115750000000  0.4569680000000  0.4586610000000 1.0
C      1  0.4093080000000  0.5450150000000  0.4703810000000 1.0
C      1  0.4600780000000  0.3831790000000  0.5175150000000 1.0
C      1  0.4605480000000  0.6199560000000  0.5173810000000 1.0
C      1  0.4903530000000  0.5864590000000  0.4962750000000 1.0
C      1  0.4902360000000  0.4187310000000  0.4955160000000 1.0
C      1  0.4382030000000  0.5241500000000  0.4973480000000 1.0
C      1  0.4374360000000  0.4730800000000  0.4945060000000 1.0
C      1  0.5041350000000  0.4879240000000  0.5080170000000 1.0
C      1  0.4945920000000  0.5201870000000  0.5025190000000 1.0
C      1  0.5222480000000  0.4221270000000  0.4035550000000 1.0
C      1  0.5287180000000  0.5708520000000  0.4197580000000 1.0
C      1  0.4904610000000  0.4359760000000  0.6129400000000 1.0
C      1  0.4953960000000  0.5627570000000  0.6070440000000 1.0
C      1  0.5753390000000  0.5131780000000  0.5110270000000 1.0
C      1  0.5836380000000  0.4813840000000  0.5092730000000 1.0
C      1  0.4901390000000  0.3959620000000  0.5180490000000 1.0
C      1  0.4869980000000  0.6163720000000  0.5074840000000 1.0
C      1  0.5573670000000  0.5714080000000  0.5296180000000 1.0
C      1  0.5531980000000  0.4296340000000  0.5403130000000 1.0
C      1  0.4661980000000  0.4776580000000  0.4768900000000 1.0
C      1  0.4718750000000  0.5243860000000  0.4607140000000 1.0
C      1  0.4883530000000  0.4768570000000  0.4222990000000 1.0
C      1  0.4714340000000  0.5195220000000  0.4139680000000 1.0
C      1  0.5392420000000  0.5824040000000  0.4630360000000 1.0
C      1  0.5413960000000  0.4172710000000  0.4545620000000 1.0
C      1  0.5845090000000  0.5000990000000  0.5865070000000 1.0
END
