TITL C-3289332-8317-576 0.00303223707552589 125000 -893.09551680313 0 0 172 (C1) n - 1
REM
REM in /nfs/bkarasulu/CARBON/AIRSS/Generating-Clusters/AIREBO/with-SteepDescent/Higher-Symm/SD-CG/HFTN-CG
REM
REM
REM
REM
REM
REM ./C.cell (b20cbc046b6831c77cfcea5457e17084)
REM
REM compiler GCC version 9.2.1 20190827 (Red Hat 9.2.1-1)
REM options -cpp -mtune=generic -march=x86-64 -g -O0 -fpre-include=/usr/include/finclude/math-vector-fortran.h
REM seed -1940942302 249944889 -1441618233 1283782315 -254493762 202706792 531601320 -1850413423 -1729322822 2090465102 1541441577 3056393 -830137180 -1543001678 1598548662 714117569 -1148343918 1922808003 -1410881733 -433674406 1981387159 -2114479054 -482786012 -1194775020 -1139405419 409345418 972082737 647975280 -1157665747 915610244 -1743359396 1724252767 -1360823055
REM
CELL 1.54180   50.00000   50.00000   50.00000   90.00000   90.00000   90.00000
LATT -1
SFAC C  
C      1  0.5682440000000  0.4627450000000  0.4514170000000 1.0
C      1  0.4723450000000  0.4604410000000  0.5575260000000 1.0
C      1  0.4469410000000  0.5753540000000  0.4769730000000 1.0
C      1  0.5782290000000  0.5314240000000  0.5447980000000 1.0
C      1  0.4263480000000  0.4726550000000  0.5440000000000 1.0
C      1  0.4245740000000  0.5235120000000  0.4491640000000 1.0
C      1  0.4651980000000  0.5553680000000  0.4286020000000 1.0
C      1  0.5248730000000  0.4457690000000  0.4254240000000 1.0
C      1  0.5310300000000  0.5493920000000  0.5796150000000 1.0
C      1  0.4471770000000  0.4269570000000  0.5276110000000 1.0
C      1  0.5454800000000  0.5722420000000  0.5212740000000 1.0
C      1  0.5385870000000  0.4244280000000  0.4767820000000 1.0
C      1  0.5680390000000  0.4402420000000  0.4693140000000 1.0
C      1  0.4624130000000  0.5781190000000  0.4489480000000 1.0
C      1  0.4452920000000  0.4723840000000  0.5641500000000 1.0
C      1  0.5766500000000  0.5590750000000  0.5247000000000 1.0
C      1  0.4242260000000  0.5513290000000  0.4687360000000 1.0
C      1  0.4258640000000  0.4523210000000  0.5184180000000 1.0
C      1  0.4718910000000  0.4298220000000  0.5509860000000 1.0
C      1  0.5211060000000  0.4211310000000  0.4471100000000 1.0
C      1  0.5390650000000  0.5666750000000  0.5543600000000 1.0
C      1  0.4505270000000  0.5277250000000  0.4269030000000 1.0
C      1  0.5600150000000  0.5325720000000  0.5735850000000 1.0
C      1  0.5449770000000  0.4742990000000  0.4293130000000 1.0
C      1  0.5973800000000  0.4540210000000  0.5240860000000 1.0
C      1  0.4536850000000  0.5360230000000  0.5935220000000 1.0
C      1  0.5145560000000  0.5899170000000  0.4522310000000 1.0
C      1  0.5950320000000  0.5555410000000  0.4689280000000 1.0
C      1  0.3995740000000  0.4489440000000  0.4696860000000 1.0
C      1  0.4099740000000  0.5466020000000  0.5262570000000 1.0
C      1  0.4498310000000  0.4717830000000  0.4076120000000 1.0
C      1  0.5430580000000  0.5237620000000  0.4035450000000 1.0
C      1  0.5495630000000  0.4795650000000  0.5916780000000 1.0
C      1  0.5257950000000  0.4080500000000  0.5524920000000 1.0
C      1  0.4649110000000  0.5870620000000  0.5526650000000 1.0
C      1  0.4647820000000  0.4064420000000  0.4478570000000 1.0
C      1  0.5925070000000  0.5332970000000  0.4480070000000 1.0
C      1  0.4468000000000  0.5933720000000  0.5313740000000 1.0
C      1  0.5329400000000  0.4556620000000  0.5941090000000 1.0
C      1  0.5863320000000  0.4737990000000  0.5496860000000 1.0
C      1  0.4066730000000  0.4691350000000  0.4503200000000 1.0
C      1  0.4039140000000  0.5324940000000  0.5497450000000 1.0
C      1  0.4474610000000  0.4108060000000  0.4733280000000 1.0
C      1  0.5481390000000  0.4183960000000  0.5290300000000 1.0
C      1  0.5417840000000  0.5973560000000  0.4714260000000 1.0
C      1  0.5186930000000  0.5466800000000  0.4110090000000 1.0
C      1  0.4784940000000  0.5505690000000  0.5987820000000 1.0
C      1  0.4689310000000  0.4445720000000  0.4104910000000 1.0
C      1  0.5674930000000  0.5053080000000  0.5885880000000 1.0
C      1  0.4892440000000  0.5903250000000  0.5740990000000 1.0
C      1  0.5853630000000  0.5736050000000  0.4935630000000 1.0
C      1  0.5634260000000  0.5000920000000  0.4169990000000 1.0
C      1  0.4331650000000  0.5000450000000  0.4165410000000 1.0
C      1  0.4253490000000  0.5236510000000  0.5938380000000 1.0
C      1  0.4926810000000  0.4050020000000  0.4332170000000 1.0
C      1  0.4917790000000  0.5837040000000  0.4364010000000 1.0
C      1  0.4980680000000  0.4182400000000  0.5693630000000 1.0
C      1  0.5848660000000  0.4354330000000  0.4984660000000 1.0
C      1  0.4163670000000  0.5637490000000  0.4999280000000 1.0
C      1  0.4084070000000  0.4359880000000  0.4941980000000 1.0
C      1  0.5597850000000  0.5884790000000  0.4950450000000 1.0
C      1  0.5030550000000  0.5675740000000  0.5885630000000 1.0
C      1  0.5867870000000  0.5044720000000  0.5643900000000 1.0
C      1  0.5596930000000  0.4173250000000  0.5024810000000 1.0
C      1  0.4303570000000  0.4163700000000  0.4993590000000 1.0
C      1  0.4343480000000  0.5871240000000  0.5063130000000 1.0
C      1  0.4979600000000  0.4274990000000  0.4152150000000 1.0
C      1  0.5084270000000  0.4321130000000  0.5950510000000 1.0
C      1  0.4943350000000  0.5613860000000  0.4133030000000 1.0
C      1  0.5888740000000  0.5111780000000  0.4260610000000 1.0
C      1  0.4047470000000  0.5351810000000  0.5781450000000 1.0
C      1  0.4094740000000  0.4968200000000  0.4343390000000 1.0
C      1  0.4638480000000  0.4351210000000  0.4886100000000 1.0
C      1  0.4388450000000  0.4792470000000  0.4547120000000 1.0
C      1  0.4852220000000  0.4583050000000  0.4369900000000 1.0
C      1  0.4690660000000  0.5640840000000  0.5157240000000 1.0
C      1  0.5577180000000  0.4433640000000  0.5385000000000 1.0
C      1  0.5491770000000  0.5648290000000  0.4648230000000 1.0
C      1  0.4389030000000  0.5182850000000  0.5371150000000 1.0
C      1  0.5609700000000  0.4924270000000  0.5367830000000 1.0
C      1  0.5655130000000  0.5152810000000  0.4581440000000 1.0
C      1  0.4835220000000  0.5401650000000  0.5674140000000 1.0
C      1  0.5249920000000  0.4467620000000  0.5622670000000 1.0
C      1  0.5189010000000  0.5250350000000  0.4350820000000 1.0
C      1  0.4655720000000  0.4855080000000  0.4344680000000 1.0
C      1  0.4402960000000  0.4586890000000  0.4817660000000 1.0
C      1  0.4824570000000  0.4328400000000  0.4599990000000 1.0
C      1  0.4534680000000  0.5138270000000  0.5676460000000 1.0
C      1  0.5496500000000  0.5328920000000  0.4349340000000 1.0
C      1  0.5407700000000  0.4930840000000  0.5617370000000 1.0
C      1  0.4266830000000  0.5258770000000  0.5061270000000 1.0
C      1  0.5668520000000  0.5405840000000  0.4808170000000 1.0
C      1  0.5669900000000  0.4666190000000  0.5154820000000 1.0
C      1  0.4882650000000  0.5642290000000  0.5438200000000 1.0
C      1  0.5177220000000  0.5661370000000  0.4743100000000 1.0
C      1  0.5118650000000  0.4337220000000  0.5353770000000 1.0
C      1  0.5145110000000  0.5823890000000  0.5444020000000 1.0
C      1  0.5892100000000  0.5360000000000  0.5049660000000 1.0
C      1  0.5143990000000  0.4949040000000  0.5813750000000 1.0
C      1  0.5027350000000  0.4078970000000  0.4710770000000 1.0
C      1  0.5061300000000  0.5916530000000  0.4911930000000 1.0
C      1  0.5038760000000  0.4066660000000  0.5195630000000 1.0
C      1  0.5888490000000  0.4851830000000  0.4969990000000 1.0
C      1  0.4051400000000  0.5290000000000  0.4836180000000 1.0
C      1  0.4141470000000  0.4751510000000  0.4960890000000 1.0
C      1  0.5275910000000  0.4869160000000  0.4029490000000 1.0
C      1  0.4724010000000  0.5083870000000  0.4106770000000 1.0
C      1  0.4384950000000  0.4927490000000  0.5887300000000 1.0
C      1  0.5083280000000  0.5281990000000  0.5846600000000 1.0
C      1  0.5879220000000  0.5075460000000  0.5225980000000 1.0
C      1  0.5221050000000  0.5963950000000  0.5161150000000 1.0
C      1  0.5030730000000  0.4660850000000  0.4091100000000 1.0
C      1  0.5006910000000  0.4674670000000  0.5740450000000 1.0
C      1  0.5067240000000  0.5087510000000  0.4105700000000 1.0
C      1  0.5825250000000  0.4872720000000  0.4636430000000 1.0
C      1  0.4105000000000  0.5008110000000  0.5438450000000 1.0
C      1  0.4187820000000  0.4997040000000  0.4730250000000 1.0
C      1  0.5225660000000  0.4014630000000  0.4960960000000 1.0
C      1  0.4712060000000  0.4115290000000  0.5114790000000 1.0
C      1  0.4727360000000  0.5871050000000  0.4957510000000 1.0
C      1  0.5010560000000  0.5245030000000  0.5456410000000 1.0
C      1  0.5277290000000  0.5489570000000  0.5087880000000 1.0
C      1  0.5358380000000  0.5006230000000  0.5168240000000 1.0
C      1  0.5015750000000  0.4782610000000  0.4571910000000 1.0
C      1  0.5102760000000  0.5167270000000  0.4628220000000 1.0
C      1  0.4924940000000  0.4767990000000  0.5360690000000 1.0
C      1  0.5263150000000  0.4506780000000  0.4904350000000 1.0
C      1  0.4785470000000  0.5389050000000  0.4982260000000 1.0
C      1  0.4801310000000  0.4586290000000  0.5026320000000 1.0
C      1  0.5429350000000  0.4992160000000  0.4778580000000 1.0
C      1  0.4586370000000  0.4989250000000  0.4741330000000 1.0
C      1  0.4611230000000  0.4977610000000  0.5222390000000 1.0
C      1  0.5015290000000  0.5419430000000  0.5218340000000 1.0
C      1  0.5150760000000  0.4982410000000  0.5415340000000 1.0
C      1  0.5429540000000  0.5256900000000  0.4980180000000 1.0
C      1  0.4997520000000  0.4559890000000  0.4777680000000 1.0
C      1  0.5076330000000  0.4559160000000  0.5169180000000 1.0
C      1  0.5081990000000  0.5384550000000  0.4829170000000 1.0
C      1  0.5287920000000  0.4902960000000  0.4519160000000 1.0
C      1  0.4761820000000  0.5039430000000  0.5486350000000 1.0
C      1  0.4824820000000  0.5038690000000  0.4575550000000 1.0
C      1  0.5424980000000  0.4742410000000  0.4975230000000 1.0
C      1  0.4606920000000  0.4800680000000  0.4990240000000 1.0
C      1  0.4565440000000  0.5196390000000  0.4983000000000 1.0
C      1  0.5072890000000  0.5161310000000  0.6143790000000 1.0
C      1  0.5187970000000  0.6212750000000  0.5372700000000 1.0
C      1  0.6214800000000  0.5077040000000  0.5300340000000 1.0
C      1  0.4989020000000  0.4571350000000  0.3764980000000 1.0
C      1  0.4968550000000  0.5259210000000  0.3847210000000 1.0
C      1  0.4780980000000  0.4625020000000  0.5970180000000 1.0
C      1  0.5267190000000  0.3683550000000  0.4886570000000 1.0
C      1  0.4768600000000  0.6185930000000  0.4892980000000 1.0
C      1  0.4736290000000  0.3806840000000  0.5194670000000 1.0
C      1  0.6143290000000  0.4861510000000  0.4662810000000 1.0
C      1  0.3854750000000  0.4991160000000  0.4659480000000 1.0
C      1  0.3838910000000  0.4912120000000  0.5304080000000 1.0
C      1  0.5087800000000  0.6106720000000  0.5628600000000 1.0
C      1  0.5191870000000  0.4912990000000  0.6149090000000 1.0
C      1  0.6201360000000  0.5281460000000  0.5111430000000 1.0
C      1  0.5055420000000  0.3751280000000  0.4716530000000 1.0
C      1  0.4967620000000  0.3762690000000  0.5337800000000 1.0
C      1  0.5015380000000  0.6223190000000  0.4770450000000 1.0
C      1  0.5220880000000  0.4724350000000  0.3746500000000 1.0
C      1  0.4575320000000  0.4738340000000  0.6052040000000 1.0
C      1  0.4717960000000  0.5158430000000  0.3774930000000 1.0
C      1  0.6221210000000  0.4788270000000  0.4916190000000 1.0
C      1  0.3857260000000  0.4791470000000  0.5083420000000 1.0
C      1  0.3731110000000  0.5215090000000  0.4769550000000 1.0
C      1  0.5586130000000  0.5631880000000  0.4346730000000 1.0
C      1  0.4524350000000  0.5478960000000  0.5370310000000 1.0
C      1  0.4411470000000  0.4456210000000  0.4501230000000 1.0
C      1  0.5586140000000  0.4449400000000  0.5670330000000 1.0
END
