TITL C-3289322-3858-718 0.00161568868009072 125000 -284.931275854183 0 0 49 (C1) n - 1
REM
REM in /nfs/bkarasulu/CARBON/AIRSS/Generating-Clusters/AIREBO/with-SteepDescent/Higher-Symm/SD-CG/HFTN-CG
REM
REM
REM
REM
REM
REM ./C.cell (b20cbc046b6831c77cfcea5457e17084)
REM
REM compiler GCC version 9.2.1 20190827 (Red Hat 9.2.1-1)
REM options -cpp -mtune=generic -march=x86-64 -g -O0 -fpre-include=/usr/include/finclude/math-vector-fortran.h
REM seed 896317265 -96360410 524822416 1570288704 -708220596 -39206781 1047726041 2002039966 1235251381 823968006 -600166013 480680869 -1572199759 1187421707 1160308192 235922946 -560198786 -695919983 -909299990 -1434905638 78366832 -1026762065 728191409 -775462259 -1462123145 1564856958 -1101721597 549837139 1421855748 -1170531485 995014896 2109202284 -2079379308
REM
CELL 1.54180   50.00000   50.00000   50.00000   90.00000   90.00000   90.00000
LATT -1
SFAC C  
C      1  0.4827220000000  0.4875990000000  0.4135540000000 1.0
C      1  0.5053510000000  0.4434230000000  0.5427920000000 1.0
C      1  0.5066190000000  0.5573750000000  0.5256720000000 1.0
C      1  0.5113500000000  0.4842590000000  0.5760560000000 1.0
C      1  0.4908130000000  0.4569670000000  0.4507110000000 1.0
C      1  0.5193860000000  0.5557360000000  0.4773600000000 1.0
C      1  0.5078630000000  0.5106110000000  0.5785200000000 1.0
C      1  0.5113260000000  0.5534960000000  0.4494810000000 1.0
C      1  0.4888300000000  0.4383270000000  0.4726420000000 1.0
C      1  0.4868400000000  0.5143120000000  0.4187520000000 1.0
C      1  0.5013150000000  0.5486440000000  0.5508970000000 1.0
C      1  0.5036810000000  0.4343780000000  0.5176610000000 1.0
C      1  0.5318590000000  0.5560890000000  0.5948770000000 1.0
C      1  0.5309170000000  0.5023360000000  0.4502420000000 1.0
C      1  0.5350790000000  0.4571410000000  0.4756710000000 1.0
C      1  0.4620220000000  0.5388030000000  0.4643690000000 1.0
C      1  0.4647690000000  0.5088850000000  0.5493350000000 1.0
C      1  0.4517620000000  0.4294680000000  0.5121160000000 1.0
C      1  0.4420060000000  0.4788070000000  0.4414890000000 1.0
C      1  0.4635160000000  0.4813370000000  0.5525870000000 1.0
C      1  0.4691850000000  0.5458900000000  0.4902650000000 1.0
C      1  0.5431930000000  0.4827170000000  0.4930460000000 1.0
C      1  0.5209530000000  0.4731920000000  0.4501820000000 1.0
C      1  0.5451130000000  0.5375960000000  0.4873360000000 1.0
C      1  0.4312320000000  0.4996010000000  0.4552560000000 1.0
C      1  0.4420350000000  0.4648870000000  0.5462790000000 1.0
C      1  0.4514860000000  0.5398190000000  0.5110580000000 1.0
C      1  0.5627160000000  0.5859100000000  0.6256170000000 1.0
C      1  0.5791440000000  0.4262420000000  0.4602490000000 1.0
C      1  0.5679420000000  0.5301700000000  0.4660580000000 1.0
C      1  0.5483250000000  0.5702100000000  0.6103370000000 1.0
C      1  0.5615840000000  0.5125990000000  0.4487010000000 1.0
C      1  0.5590580000000  0.4403060000000  0.4673060000000 1.0
C      1  0.4380540000000  0.5256960000000  0.4588920000000 1.0
C      1  0.4480600000000  0.5229710000000  0.5319470000000 1.0
C      1  0.4366990000000  0.4471340000000  0.5263510000000 1.0
C      1  0.4869290000000  0.5226740000000  0.5592950000000 1.0
C      1  0.4826420000000  0.5371870000000  0.4436590000000 1.0
C      1  0.4768040000000  0.4305190000000  0.5003850000000 1.0
C      1  0.5121440000000  0.5216510000000  0.4388470000000 1.0
C      1  0.5171650000000  0.5409350000000  0.5775770000000 1.0
C      1  0.5133830000000  0.4418860000000  0.4899570000000 1.0
C      1  0.5047580000000  0.4670190000000  0.4213650000000 1.0
C      1  0.5155620000000  0.4525770000000  0.5722110000000 1.0
C      1  0.5318820000000  0.5597880000000  0.5088770000000 1.0
C      1  0.4885400000000  0.4679990000000  0.5585020000000 1.0
C      1  0.4672420000000  0.4706530000000  0.4338030000000 1.0
C      1  0.4940730000000  0.5553320000000  0.4977420000000 1.0
C      1  0.5389570000000  0.5071600000000  0.4811710000000 1.0
END
