TITL C-3289323-3850-225 -0.00120543706034969 125000 -1041.11757482027 0 0 180 (C1) n - 1
REM
REM in /nfs/bkarasulu/CARBON/AIRSS/Generating-Clusters/AIREBO/with-SteepDescent/Higher-Symm/SD-CG/HFTN-CG
REM
REM
REM
REM
REM
REM ./C.cell (b20cbc046b6831c77cfcea5457e17084)
REM
REM compiler GCC version 9.2.1 20190827 (Red Hat 9.2.1-1)
REM options -cpp -mtune=generic -march=x86-64 -g -O0 -fpre-include=/usr/include/finclude/math-vector-fortran.h
REM seed 2115338725 1501006836 1857322175 -509531878 1637955644 -1917766484 -1118787792 390721234 -328836535 829131615 -819436461 -1949975574 -30379646 -1151331722 1244882399 554034571 -87523775 -676833862 -1273281984 -1108207314 2087629303 -1487767983 381381506 -1381589268 173862742 -850274095 2056887622 1525497444 426553854 -986434668 827508194 1350877553 1160784033
REM
CELL 1.54180   50.00000   50.00000   50.00000   90.00000   90.00000   90.00000
LATT -1
SFAC C  
C      1  0.5672470000000  0.4264840000000  0.5485430000000 1.0
C      1  0.4563450000000  0.4090200000000  0.5515250000000 1.0
C      1  0.3844520000000  0.5229620000000  0.5404070000000 1.0
C      1  0.4905910000000  0.6065350000000  0.5317790000000 1.0
C      1  0.5925210000000  0.5474680000000  0.5250560000000 1.0
C      1  0.4325540000000  0.4217130000000  0.5497670000000 1.0
C      1  0.5436590000000  0.4131500000000  0.5522290000000 1.0
C      1  0.6081120000000  0.5278060000000  0.5265490000000 1.0
C      1  0.5154220000000  0.6059410000000  0.5270720000000 1.0
C      1  0.3984070000000  0.5437140000000  0.5385180000000 1.0
C      1  0.4623740000000  0.5255530000000  0.4602960000000 1.0
C      1  0.5114790000000  0.5449030000000  0.4560800000000 1.0
C      1  0.5429530000000  0.4998050000000  0.4531020000000 1.0
C      1  0.5127870000000  0.4502770000000  0.4627290000000 1.0
C      1  0.4575840000000  0.4706080000000  0.4718030000000 1.0
C      1  0.5330040000000  0.5275250000000  0.4633340000000 1.0
C      1  0.4822270000000  0.5463210000000  0.4652330000000 1.0
C      1  0.4497260000000  0.4990830000000  0.4738840000000 1.0
C      1  0.4816760000000  0.4494730000000  0.4604050000000 1.0
C      1  0.5393350000000  0.4708520000000  0.4574440000000 1.0
C      1  0.6085770000000  0.4837320000000  0.4304530000000 1.0
C      1  0.5132400000000  0.3977380000000  0.4088100000000 1.0
C      1  0.4042290000000  0.4544720000000  0.4171830000000 1.0
C      1  0.4226140000000  0.5751830000000  0.4266390000000 1.0
C      1  0.5572350000000  0.5892150000000  0.4259220000000 1.0
C      1  0.3980440000000  0.4788780000000  0.4167150000000 1.0
C      1  0.4881350000000  0.3972170000000  0.4074850000000 1.0
C      1  0.6041450000000  0.4609930000000  0.4205500000000 1.0
C      1  0.5752100000000  0.5719720000000  0.4301640000000 1.0
C      1  0.4425350000000  0.5874240000000  0.4174150000000 1.0
C      1  0.5804840000000  0.4172000000000  0.4548390000000 1.0
C      1  0.4487170000000  0.3991260000000  0.4524110000000 1.0
C      1  0.3859860000000  0.5189330000000  0.4586610000000 1.0
C      1  0.4837180000000  0.6159740000000  0.4504820000000 1.0
C      1  0.6102140000000  0.5495100000000  0.4629700000000 1.0
C      1  0.4230180000000  0.4147770000000  0.4568840000000 1.0
C      1  0.5541930000000  0.4007880000000  0.4515090000000 1.0
C      1  0.6179210000000  0.5205340000000  0.4592600000000 1.0
C      1  0.5138170000000  0.6226530000000  0.4449960000000 1.0
C      1  0.3893030000000  0.5493750000000  0.4558440000000 1.0
C      1  0.4912610000000  0.3836310000000  0.5010580000000 1.0
C      1  0.3845970000000  0.4716670000000  0.5158160000000 1.0
C      1  0.4464340000000  0.5967690000000  0.5102680000000 1.0
C      1  0.5750840000000  0.5769370000000  0.5066010000000 1.0
C      1  0.6003460000000  0.4540990000000  0.5010570000000 1.0
C      1  0.5154690000000  0.3861610000000  0.5065630000000 1.0
C      1  0.6117060000000  0.4743730000000  0.5102380000000 1.0
C      1  0.5611460000000  0.5974610000000  0.5019550000000 1.0
C      1  0.4250610000000  0.5871640000000  0.5014250000000 1.0
C      1  0.3975010000000  0.4572650000000  0.5003180000000 1.0
C      1  0.5129000000000  0.4594680000000  0.4125300000000 1.0
C      1  0.4624090000000  0.4763310000000  0.4232830000000 1.0
C      1  0.4669100000000  0.5291380000000  0.4207230000000 1.0
C      1  0.5201150000000  0.5427340000000  0.4172660000000 1.0
C      1  0.5497900000000  0.4979780000000  0.4139380000000 1.0
C      1  0.4858600000000  0.4605570000000  0.4124760000000 1.0
C      1  0.5390320000000  0.4727630000000  0.4163250000000 1.0
C      1  0.5419000000000  0.5260480000000  0.4217080000000 1.0
C      1  0.4899740000000  0.5439940000000  0.4225110000000 1.0
C      1  0.4547310000000  0.5025530000000  0.4257100000000 1.0
C      1  0.4769390000000  0.4210520000000  0.5311390000000 1.0
C      1  0.3956160000000  0.4940740000000  0.5353760000000 1.0
C      1  0.4751360000000  0.5786900000000  0.5313910000000 1.0
C      1  0.5605150000000  0.5440500000000  0.5237910000000 1.0
C      1  0.5636990000000  0.4530230000000  0.5304360000000 1.0
C      1  0.5218810000000  0.4229440000000  0.5292810000000 1.0
C      1  0.5970530000000  0.4990600000000  0.5240800000000 1.0
C      1  0.5273970000000  0.5790410000000  0.5128220000000 1.0
C      1  0.4271270000000  0.5481040000000  0.5249700000000 1.0
C      1  0.4335090000000  0.4489750000000  0.5318100000000 1.0
C      1  0.4897510000000  0.5403470000000  0.6237030000000 1.0
C      1  0.5346640000000  0.5225900000000  0.6219330000000 1.0
C      1  0.5339640000000  0.4728330000000  0.6203670000000 1.0
C      1  0.4854720000000  0.4500330000000  0.6138640000000 1.0
C      1  0.4636970000000  0.4981290000000  0.6217620000000 1.0
C      1  0.5153270000000  0.5403270000000  0.6120480000000 1.0
C      1  0.4698720000000  0.5239280000000  0.6127520000000 1.0
C      1  0.4715190000000  0.4757870000000  0.6067480000000 1.0
C      1  0.5162200000000  0.4500140000000  0.6084930000000 1.0
C      1  0.5393610000000  0.4975080000000  0.6104460000000 1.0
C      1  0.5554960000000  0.4504190000000  0.5782830000000 1.0
C      1  0.4682040000000  0.4407200000000  0.5865430000000 1.0
C      1  0.4273950000000  0.5049910000000  0.5682470000000 1.0
C      1  0.4841010000000  0.5814010000000  0.5702540000000 1.0
C      1  0.5681640000000  0.5414550000000  0.5708080000000 1.0
C      1  0.4378770000000  0.4477830000000  0.5804660000000 1.0
C      1  0.5317400000000  0.4278640000000  0.5874340000000 1.0
C      1  0.5720790000000  0.5110700000000  0.5688070000000 1.0
C      1  0.5132320000000  0.5733370000000  0.5669850000000 1.0
C      1  0.4363090000000  0.5333890000000  0.5725920000000 1.0
C      1  0.5755640000000  0.4252470000000  0.4847980000000 1.0
C      1  0.4498410000000  0.4024480000000  0.4834380000000 1.0
C      1  0.3924470000000  0.5139250000000  0.4884750000000 1.0
C      1  0.4847860000000  0.6084950000000  0.4802130000000 1.0
C      1  0.6210430000000  0.5428070000000  0.4918590000000 1.0
C      1  0.4232780000000  0.4162820000000  0.4875140000000 1.0
C      1  0.5519790000000  0.4078590000000  0.4808130000000 1.0
C      1  0.6155990000000  0.5113430000000  0.4908910000000 1.0
C      1  0.5131660000000  0.6172200000000  0.4769270000000 1.0
C      1  0.3948060000000  0.5447000000000  0.4873960000000 1.0
C      1  0.4094960000000  0.5015400000000  0.5066230000000 1.0
C      1  0.4751040000000  0.5886100000000  0.4992070000000 1.0
C      1  0.5671490000000  0.5494660000000  0.4908850000000 1.0
C      1  0.5688770000000  0.4505770000000  0.5011430000000 1.0
C      1  0.4732030000000  0.4083750000000  0.5016940000000 1.0
C      1  0.5845720000000  0.4977420000000  0.4924340000000 1.0
C      1  0.5340110000000  0.5963240000000  0.4848630000000 1.0
C      1  0.4248860000000  0.5559460000000  0.4919550000000 1.0
C      1  0.4239990000000  0.4417870000000  0.5021180000000 1.0
C      1  0.5301120000000  0.4127660000000  0.4992520000000 1.0
C      1  0.5350490000000  0.5966920000000  0.4505890000000 1.0
C      1  0.5961800000000  0.4952590000000  0.4599550000000 1.0
C      1  0.5310250000000  0.4094470000000  0.4334900000000 1.0
C      1  0.4195970000000  0.4408730000000  0.4427920000000 1.0
C      1  0.4215360000000  0.5601250000000  0.4571140000000 1.0
C      1  0.4695590000000  0.5941880000000  0.4336460000000 1.0
C      1  0.4021830000000  0.5009610000000  0.4400910000000 1.0
C      1  0.4677220000000  0.4092130000000  0.4297780000000 1.0
C      1  0.5835460000000  0.4409290000000  0.4349950000000 1.0
C      1  0.5806260000000  0.5582630000000  0.4608090000000 1.0
C      1  0.4595910000000  0.5020960000000  0.5644360000000 1.0
C      1  0.4848530000000  0.5458220000000  0.5708170000000 1.0
C      1  0.5358050000000  0.5274180000000  0.5677870000000 1.0
C      1  0.5374340000000  0.4748310000000  0.5663340000000 1.0
C      1  0.4887130000000  0.4573240000000  0.5661120000000 1.0
C      1  0.5447820000000  0.4994730000000  0.5809530000000 1.0
C      1  0.5155860000000  0.5449380000000  0.5821720000000 1.0
C      1  0.4651700000000  0.5286170000000  0.5837450000000 1.0
C      1  0.4724580000000  0.4797060000000  0.5791720000000 1.0
C      1  0.5159640000000  0.4555610000000  0.5763790000000 1.0
C      1  0.5572110000000  0.4535630000000  0.4351520000000 1.0
C      1  0.4714980000000  0.4386210000000  0.4321400000000 1.0
C      1  0.4306630000000  0.5060860000000  0.4465780000000 1.0
C      1  0.4848750000000  0.5699020000000  0.4408430000000 1.0
C      1  0.5605100000000  0.5351060000000  0.4473300000000 1.0
C      1  0.4459340000000  0.4561740000000  0.4442280000000 1.0
C      1  0.5272670000000  0.4397820000000  0.4355240000000 1.0
C      1  0.5716310000000  0.5055950000000  0.4389190000000 1.0
C      1  0.5183480000000  0.5702080000000  0.4373110000000 1.0
C      1  0.4403780000000  0.5371370000000  0.4405550000000 1.0
C      1  0.4565470000000  0.5731620000000  0.5571400000000 1.0
C      1  0.5537990000000  0.5584090000000  0.5501580000000 1.0
C      1  0.5752410000000  0.4654370000000  0.5573910000000 1.0
C      1  0.4822200000000  0.4179340000000  0.5676650000000 1.0
C      1  0.4122840000000  0.4848420000000  0.5584750000000 1.0
C      1  0.5320290000000  0.5751590000000  0.5463140000000 1.0
C      1  0.4363650000000  0.5548990000000  0.5552580000000 1.0
C      1  0.4234920000000  0.4592380000000  0.5599710000000 1.0
C      1  0.5117200000000  0.4186730000000  0.5615160000000 1.0
C      1  0.5851590000000  0.4915690000000  0.5535650000000 1.0
C      1  0.3927080000000  0.4538330000000  0.4554100000000 1.0
C      1  0.4260920000000  0.5934620000000  0.4620380000000 1.0
C      1  0.5655660000000  0.6083990000000  0.4599790000000 1.0
C      1  0.6150050000000  0.4677050000000  0.4664860000000 1.0
C      1  0.5106760000000  0.3880370000000  0.4474770000000 1.0
C      1  0.6085490000000  0.4453440000000  0.4570510000000 1.0
C      1  0.5821340000000  0.5913510000000  0.4684900000000 1.0
C      1  0.4450000000000  0.6066540000000  0.4523630000000 1.0
C      1  0.3848310000000  0.4773670000000  0.4544030000000 1.0
C      1  0.4859080000000  0.3867690000000  0.4459830000000 1.0
C      1  0.4825210000000  0.5571680000000  0.4938710000000 1.0
C      1  0.5397550000000  0.5296530000000  0.4929980000000 1.0
C      1  0.5436000000000  0.4653660000000  0.4890830000000 1.0
C      1  0.4831470000000  0.4378340000000  0.4923190000000 1.0
C      1  0.4399460000000  0.5079790000000  0.5028370000000 1.0
C      1  0.5150260000000  0.5513990000000  0.5020150000000 1.0
C      1  0.4541580000000  0.5386780000000  0.4971640000000 1.0
C      1  0.4542590000000  0.4548560000000  0.4983630000000 1.0
C      1  0.5169720000000  0.4441430000000  0.4957360000000 1.0
C      1  0.5517740000000  0.4978150000000  0.4955350000000 1.0
C      1  0.4816200000000  0.5471360000000  0.5400370000000 1.0
C      1  0.5347270000000  0.5259690000000  0.5366160000000 1.0
C      1  0.5375120000000  0.4718540000000  0.5363760000000 1.0
C      1  0.4850640000000  0.4519990000000  0.5370820000000 1.0
C      1  0.4565940000000  0.4980250000000  0.5307790000000 1.0
C      1  0.5075670000000  0.5369220000000  0.5279140000000 1.0
C      1  0.4567240000000  0.5320110000000  0.5296400000000 1.0
C      1  0.4609900000000  0.4676420000000  0.5269200000000 1.0
C      1  0.5142850000000  0.4543750000000  0.5269060000000 1.0
C      1  0.5394940000000  0.4986490000000  0.5240750000000 1.0
END
