TITL C-3289320-4661-488 -2654.406240228 125000 -1075.62227428082 0 0 188 (C1) n - 1
REM
REM in /nfs/bkarasulu/CARBON/AIRSS/Generating-Clusters/AIREBO/with-SteepDescent/Higher-Symm/SD-CG/HFTN-CG
REM
REM
REM
REM
REM
REM ./C.cell (b20cbc046b6831c77cfcea5457e17084)
REM
REM compiler GCC version 9.2.1 20190827 (Red Hat 9.2.1-1)
REM options -cpp -mtune=generic -march=x86-64 -g -O0 -fpre-include=/usr/include/finclude/math-vector-fortran.h
REM seed 1579117609 1230643537 1013049351 -1084004413 -900876657 -1831153118 -699271879 1626326396 688981879 1124123746 1571037236 -1159862533 -1773188672 119696085 1920651374 -1357472870 198065449 1849023074 -1615418979 -648431846 -367733026 218179823 -1849544719 -1624020166 -540585670 84860599 1330961975 -1679906964 -19082211 1071674118 -574501416 989225211 -1732158099
REM
CELL 1.54180   50.00000   50.00000   50.00000   90.00000   90.00000   90.00000
LATT -1
SFAC C  
C      1  0.4948720000000  0.4364600000000  0.4920160000000 1.0
C      1  0.4366600000000  0.4876840000000  0.4949350000000 1.0
C      1  0.4628730000000  0.5444460000000  0.4977260000000 1.0
C      1  0.5333250000000  0.5360810000000  0.4929220000000 1.0
C      1  0.5575130000000  0.4800170000000  0.4947150000000 1.0
C      1  0.4896530000000  0.5615020000000  0.5092480000000 1.0
C      1  0.4370320000000  0.5137450000000  0.5119400000000 1.0
C      1  0.4644850000000  0.4412930000000  0.5066600000000 1.0
C      1  0.5499320000000  0.4497060000000  0.5048380000000 1.0
C      1  0.5608130000000  0.5249910000000  0.5022630000000 1.0
C      1  0.4792490000000  0.4588410000000  0.4118170000000 1.0
C      1  0.4457860000000  0.5128820000000  0.3999000000000 1.0
C      1  0.4945780000000  0.5569770000000  0.3959060000000 1.0
C      1  0.5400620000000  0.5215880000000  0.4138740000000 1.0
C      1  0.5313690000000  0.4686140000000  0.4091360000000 1.0
C      1  0.4746610000000  0.5476040000000  0.6051540000000 1.0
C      1  0.4510680000000  0.4952720000000  0.5896650000000 1.0
C      1  0.4858920000000  0.4544500000000  0.5815490000000 1.0
C      1  0.5488880000000  0.4789040000000  0.6037250000000 1.0
C      1  0.5361810000000  0.5337050000000  0.5907080000000 1.0
C      1  0.4397560000000  0.4318900000000  0.5583160000000 1.0
C      1  0.4376290000000  0.5263810000000  0.5614890000000 1.0
C      1  0.5000100000000  0.5627380000000  0.5590880000000 1.0
C      1  0.5625530000000  0.5238130000000  0.5630280000000 1.0
C      1  0.5373770000000  0.4555940000000  0.5561390000000 1.0
C      1  0.4691370000000  0.5500620000000  0.4408220000000 1.0
C      1  0.4458080000000  0.4874970000000  0.4445420000000 1.0
C      1  0.5017010000000  0.4266920000000  0.4412960000000 1.0
C      1  0.5681420000000  0.4755890000000  0.4455210000000 1.0
C      1  0.5340010000000  0.5491960000000  0.4424160000000 1.0
C      1  0.4732730000000  0.4662280000000  0.5246850000000 1.0
C      1  0.4643890000000  0.5137060000000  0.5265670000000 1.0
C      1  0.5165800000000  0.5436660000000  0.5191300000000 1.0
C      1  0.5439890000000  0.4998400000000  0.5162120000000 1.0
C      1  0.5142010000000  0.4905510000000  0.5215630000000 1.0
C      1  0.4854070000000  0.5208330000000  0.4881980000000 1.0
C      1  0.4656920000000  0.4830970000000  0.4823010000000 1.0
C      1  0.5131740000000  0.4557080000000  0.4701980000000 1.0
C      1  0.5301660000000  0.4841340000000  0.4745580000000 1.0
C      1  0.5162170000000  0.5151070000000  0.4770180000000 1.0
C      1  0.5172680000000  0.6042660000000  0.5049780000000 1.0
C      1  0.6160790000000  0.5150020000000  0.5023880000000 1.0
C      1  0.5346540000000  0.3888800000000  0.5259180000000 1.0
C      1  0.4155220000000  0.4205870000000  0.4943080000000 1.0
C      1  0.4024380000000  0.5476790000000  0.5044780000000 1.0
C      1  0.5127700000000  0.3909040000000  0.5088460000000 1.0
C      1  0.6110090000000  0.4866570000000  0.4988240000000 1.0
C      1  0.5440560000000  0.5954080000000  0.4999200000000 1.0
C      1  0.4194230000000  0.5678840000000  0.4963210000000 1.0
C      1  0.4028920000000  0.4449410000000  0.4907970000000 1.0
C      1  0.5067400000000  0.4364860000000  0.5390230000000 1.0
C      1  0.4488910000000  0.4757060000000  0.5429370000000 1.0
C      1  0.4686920000000  0.5425900000000  0.5413090000000 1.0
C      1  0.5366760000000  0.5681870000000  0.5278620000000 1.0
C      1  0.5607530000000  0.5003200000000  0.5457950000000 1.0
C      1  0.5031670000000  0.5697580000000  0.4721270000000 1.0
C      1  0.4559070000000  0.5247820000000  0.4544540000000 1.0
C      1  0.4638850000000  0.4619490000000  0.4562150000000 1.0
C      1  0.5356430000000  0.4310350000000  0.4619160000000 1.0
C      1  0.5584540000000  0.5146020000000  0.4573660000000 1.0
C      1  0.4699240000000  0.4022050000000  0.5408290000000 1.0
C      1  0.3931910000000  0.5004140000000  0.5399530000000 1.0
C      1  0.4657010000000  0.6054230000000  0.5422420000000 1.0
C      1  0.5837000000000  0.5684910000000  0.5392650000000 1.0
C      1  0.5857100000000  0.4479020000000  0.5288120000000 1.0
C      1  0.4711750000000  0.5951690000000  0.4637960000000 1.0
C      1  0.3956250000000  0.5078400000000  0.4627990000000 1.0
C      1  0.4629660000000  0.4054430000000  0.4658100000000 1.0
C      1  0.5792000000000  0.4461370000000  0.4533710000000 1.0
C      1  0.5873270000000  0.5656710000000  0.4611610000000 1.0
C      1  0.4891610000000  0.5231870000000  0.6080350000000 1.0
C      1  0.5171230000000  0.5162920000000  0.6074290000000 1.0
C      1  0.5215620000000  0.4873570000000  0.6063710000000 1.0
C      1  0.4944620000000  0.4766120000000  0.6031680000000 1.0
C      1  0.4755130000000  0.4978080000000  0.6061440000000 1.0
C      1  0.4863760000000  0.4825720000000  0.3956590000000 1.0
C      1  0.5137530000000  0.4871140000000  0.3943500000000 1.0
C      1  0.5186740000000  0.5145470000000  0.3949310000000 1.0
C      1  0.4935540000000  0.5289560000000  0.3929730000000 1.0
C      1  0.4726390000000  0.5078740000000  0.3939390000000 1.0
C      1  0.4436670000000  0.3967980000000  0.5324810000000 1.0
C      1  0.3851120000000  0.5270200000000  0.5442590000000 1.0
C      1  0.4870060000000  0.6241610000000  0.5427230000000 1.0
C      1  0.6061560000000  0.5518220000000  0.5383030000000 1.0
C      1  0.5774960000000  0.4149510000000  0.5275270000000 1.0
C      1  0.4433560000000  0.5914460000000  0.4627140000000 1.0
C      1  0.3828100000000  0.4826200000000  0.4652860000000 1.0
C      1  0.4838400000000  0.3791350000000  0.4690690000000 1.0
C      1  0.6083590000000  0.4540730000000  0.4590340000000 1.0
C      1  0.5718980000000  0.5890180000000  0.4589840000000 1.0
C      1  0.5853260000000  0.4755720000000  0.5137900000000 1.0
C      1  0.4917090000000  0.4144480000000  0.5177600000000 1.0
C      1  0.4162100000000  0.4654280000000  0.5097810000000 1.0
C      1  0.4451810000000  0.5688240000000  0.5134990000000 1.0
C      1  0.5657600000000  0.5713400000000  0.5105200000000 1.0
C      1  0.5904620000000  0.5224640000000  0.4862110000000 1.0
C      1  0.4879220000000  0.5914430000000  0.4932150000000 1.0
C      1  0.4111730000000  0.5182200000000  0.4903170000000 1.0
C      1  0.4457620000000  0.4212100000000  0.4877670000000 1.0
C      1  0.5620810000000  0.4355230000000  0.4782560000000 1.0
C      1  0.4485060000000  0.4505720000000  0.4057830000000 1.0
C      1  0.4371640000000  0.5395710000000  0.3994780000000 1.0
C      1  0.5194540000000  0.5692820000000  0.3936360000000 1.0
C      1  0.5691500000000  0.5086980000000  0.4059090000000 1.0
C      1  0.5303310000000  0.4375590000000  0.3998540000000 1.0
C      1  0.4470050000000  0.5465500000000  0.6103460000000 1.0
C      1  0.4333440000000  0.4686420000000  0.5968240000000 1.0
C      1  0.5089380000000  0.4372220000000  0.5959650000000 1.0
C      1  0.5686660000000  0.4982880000000  0.6092010000000 1.0
C      1  0.5324150000000  0.5644970000000  0.5999110000000 1.0
C      1  0.4987490000000  0.5315640000000  0.5455600000000 1.0
C      1  0.5230890000000  0.5126950000000  0.5680460000000 1.0
C      1  0.5309260000000  0.4845930000000  0.5505630000000 1.0
C      1  0.4937420000000  0.4654340000000  0.5516380000000 1.0
C      1  0.4604200000000  0.5014550000000  0.5575660000000 1.0
C      1  0.4929500000000  0.4595000000000  0.4431190000000 1.0
C      1  0.5359500000000  0.4766590000000  0.4418720000000 1.0
C      1  0.5286480000000  0.5157480000000  0.4453720000000 1.0
C      1  0.4873110000000  0.5458650000000  0.4661200000000 1.0
C      1  0.4757630000000  0.4999410000000  0.4548240000000 1.0
C      1  0.5669040000000  0.4382050000000  0.4258790000000 1.0
C      1  0.4585410000000  0.4132370000000  0.4359480000000 1.0
C      1  0.4091360000000  0.5111380000000  0.4388260000000 1.0
C      1  0.4861290000000  0.5883660000000  0.4410950000000 1.0
C      1  0.5878390000000  0.5487230000000  0.4383510000000 1.0
C      1  0.5683440000000  0.5730330000000  0.5626460000000 1.0
C      1  0.4634160000000  0.5890800000000  0.5650740000000 1.0
C      1  0.4054840000000  0.4884880000000  0.5623140000000 1.0
C      1  0.4795350000000  0.4078040000000  0.5665200000000 1.0
C      1  0.5797250000000  0.4530420000000  0.5586740000000 1.0
C      1  0.5506510000000  0.4107870000000  0.5323300000000 1.0
C      1  0.4260380000000  0.4160560000000  0.5220700000000 1.0
C      1  0.4023740000000  0.5457720000000  0.5333560000000 1.0
C      1  0.5099010000000  0.6112620000000  0.5331470000000 1.0
C      1  0.6092480000000  0.5257280000000  0.5294290000000 1.0
C      1  0.5480640000000  0.5863100000000  0.4730840000000 1.0
C      1  0.4277110000000  0.5689300000000  0.4686260000000 1.0
C      1  0.4028200000000  0.4626420000000  0.4681730000000 1.0
C      1  0.5075980000000  0.3884860000000  0.4807480000000 1.0
C      1  0.6092140000000  0.4780350000000  0.4712880000000 1.0
C      1  0.5059850000000  0.5789870000000  0.5337080000000 1.0
C      1  0.5825470000000  0.5078010000000  0.5224780000000 1.0
C      1  0.5371640000000  0.4382300000000  0.5297280000000 1.0
C      1  0.4382350000000  0.4472340000000  0.5280110000000 1.0
C      1  0.4360860000000  0.5414880000000  0.5315640000000 1.0
C      1  0.5085100000000  0.4163060000000  0.4697760000000 1.0
C      1  0.5790210000000  0.4936680000000  0.4721900000000 1.0
C      1  0.5324390000000  0.5609070000000  0.4698330000000 1.0
C      1  0.4364890000000  0.5370100000000  0.4775280000000 1.0
C      1  0.4280190000000  0.4759690000000  0.4668050000000 1.0
C      1  0.4282990000000  0.4656720000000  0.4064380000000 1.0
C      1  0.4474760000000  0.5580200000000  0.4157860000000 1.0
C      1  0.5367790000000  0.5645760000000  0.4127980000000 1.0
C      1  0.5780480000000  0.4849760000000  0.4156140000000 1.0
C      1  0.5118010000000  0.4206930000000  0.4105210000000 1.0
C      1  0.4307300000000  0.5355180000000  0.5927580000000 1.0
C      1  0.4349550000000  0.4435760000000  0.5873960000000 1.0
C      1  0.5328860000000  0.4361080000000  0.5835030000000 1.0
C      1  0.5735480000000  0.5198780000000  0.5929880000000 1.0
C      1  0.5131560000000  0.5776910000000  0.5863910000000 1.0
C      1  0.4791110000000  0.4251030000000  0.4160500000000 1.0
C      1  0.4305930000000  0.4942880000000  0.4185350000000 1.0
C      1  0.4774250000000  0.5699770000000  0.4162480000000 1.0
C      1  0.5623310000000  0.5464730000000  0.4203490000000 1.0
C      1  0.5622930000000  0.4600120000000  0.4092410000000 1.0
C      1  0.4819980000000  0.5704720000000  0.5866470000000 1.0
C      1  0.4196240000000  0.5061390000000  0.5818600000000 1.0
C      1  0.4650030000000  0.4309360000000  0.5799010000000 1.0
C      1  0.5570000000000  0.4571140000000  0.5836540000000 1.0
C      1  0.5643010000000  0.5504090000000  0.5813550000000 1.0
C      1  0.5806390000000  0.4816320000000  0.5628370000000 1.0
C      1  0.5061060000000  0.4147420000000  0.5630440000000 1.0
C      1  0.4223200000000  0.4676580000000  0.5583930000000 1.0
C      1  0.4528890000000  0.5630260000000  0.5605100000000 1.0
C      1  0.5443180000000  0.5840780000000  0.5547840000000 1.0
C      1  0.5823220000000  0.5196210000000  0.4420100000000 1.0
C      1  0.5150520000000  0.5876840000000  0.4457920000000 1.0
C      1  0.4287020000000  0.5313900000000  0.4387170000000 1.0
C      1  0.4458240000000  0.4371630000000  0.4488170000000 1.0
C      1  0.5455430000000  0.4221150000000  0.4334620000000 1.0
C      1  0.4678300000000  0.3989190000000  0.4991890000000 1.0
C      1  0.4018740000000  0.4947870000000  0.5131800000000 1.0
C      1  0.5831040000000  0.5540510000000  0.4868150000000 1.0
C      1  0.5837780000000  0.4289190000000  0.5004010000000 1.0
C      1  0.4632540000000  0.5929730000000  0.5166160000000 1.0
C      1  0.4943180000000  0.4993490000000  0.5557540000000 1.0
C      1  0.5052290000000  0.4912190000000  0.4427230000000 1.0
C      1  0.4848380000000  0.4934930000000  0.5084130000000 1.0
END
