TITL C-3289320-4661-246 -0.000153719778854575 125000 -433.816814063648 0 0 80 (C1) n - 1
REM
REM in /nfs/bkarasulu/CARBON/AIRSS/Generating-Clusters/AIREBO/with-SteepDescent/Higher-Symm/SD-CG/HFTN-CG
REM
REM
REM
REM
REM
REM ./C.cell (b20cbc046b6831c77cfcea5457e17084)
REM
REM compiler GCC version 9.2.1 20190827 (Red Hat 9.2.1-1)
REM options -cpp -mtune=generic -march=x86-64 -g -O0 -fpre-include=/usr/include/finclude/math-vector-fortran.h
REM seed 594554148 -152779541 -2118499414 -2063422638 1203604398 188948914 621632925 -208225177 -531024578 -304373460 -491553732 -1882729890 -1368076063 -1426440302 1475484870 -1864058025 1350723795 1902183794 -819070699 730151646 -1311039878 1590761007 666749773 2065502377 -484949427 -7746399 -1386530807 -1351815224 -1399162813 -1325243180 -7091097 2009317520 910950933
REM
CELL 1.54180   50.00000   50.00000   50.00000   90.00000   90.00000   90.00000
LATT -1
SFAC C  
C      1  0.4351530000000  0.5316680000000  0.4647780000000 1.0
C      1  0.5445870000000  0.5407800000000  0.4392580000000 1.0
C      1  0.5626880000000  0.5379060000000  0.5356790000000 1.0
C      1  0.4640530000000  0.5242560000000  0.5649590000000 1.0
C      1  0.4366530000000  0.5263420000000  0.5446800000000 1.0
C      1  0.5472560000000  0.5380420000000  0.5615560000000 1.0
C      1  0.5709880000000  0.5354200000000  0.4601850000000 1.0
C      1  0.4636600000000  0.5253970000000  0.4473110000000 1.0
C      1  0.5377750000000  0.4363750000000  0.5167130000000 1.0
C      1  0.4852930000000  0.4467750000000  0.5270230000000 1.0
C      1  0.4607250000000  0.4351650000000  0.4849390000000 1.0
C      1  0.5146570000000  0.4280080000000  0.4673250000000 1.0
C      1  0.5283650000000  0.4359990000000  0.4894190000000 1.0
C      1  0.4846970000000  0.4342120000000  0.4660370000000 1.0
C      1  0.4642920000000  0.4344760000000  0.5128190000000 1.0
C      1  0.5160950000000  0.4414760000000  0.5366060000000 1.0
C      1  0.4381330000000  0.4541050000000  0.4767340000000 1.0
C      1  0.5267220000000  0.4373310000000  0.4434360000000 1.0
C      1  0.5620620000000  0.4480780000000  0.5207500000000 1.0
C      1  0.4822240000000  0.4581480000000  0.5677620000000 1.0
C      1  0.4378920000000  0.4405300000000  0.5262520000000 1.0
C      1  0.4986750000000  0.4368300000000  0.5633790000000 1.0
C      1  0.5735170000000  0.4541620000000  0.4752480000000 1.0
C      1  0.4814890000000  0.4513710000000  0.4367770000000 1.0
C      1  0.4485030000000  0.4947470000000  0.5664570000000 1.0
C      1  0.4349890000000  0.4994860000000  0.4567770000000 1.0
C      1  0.5460990000000  0.5011960000000  0.4313200000000 1.0
C      1  0.5650570000000  0.4984170000000  0.5415390000000 1.0
C      1  0.4556530000000  0.4982980000000  0.4297690000000 1.0
C      1  0.4293130000000  0.4862010000000  0.5488340000000 1.0
C      1  0.5424360000000  0.4985640000000  0.5614560000000 1.0
C      1  0.5667100000000  0.5028350000000  0.4556860000000 1.0
C      1  0.4857130000000  0.5815800000000  0.4678150000000 1.0
C      1  0.5295690000000  0.5847670000000  0.4875230000000 1.0
C      1  0.5143920000000  0.5582250000000  0.5297650000000 1.0
C      1  0.4731720000000  0.5794510000000  0.5140950000000 1.0
C      1  0.4873830000000  0.5614110000000  0.5301610000000 1.0
C      1  0.5320730000000  0.5687340000000  0.5097700000000 1.0
C      1  0.5130090000000  0.5747150000000  0.4673170000000 1.0
C      1  0.4680740000000  0.5718080000000  0.4873660000000 1.0
C      1  0.5786190000000  0.4839050000000  0.4814460000000 1.0
C      1  0.5126170000000  0.4840860000000  0.5691100000000 1.0
C      1  0.4187930000000  0.4855630000000  0.5164820000000 1.0
C      1  0.4840200000000  0.4818050000000  0.4298700000000 1.0
C      1  0.5718540000000  0.4789300000000  0.5144160000000 1.0
C      1  0.5158780000000  0.4896810000000  0.4208050000000 1.0
C      1  0.4218030000000  0.4819130000000  0.4827270000000 1.0
C      1  0.4801440000000  0.4894140000000  0.5777150000000 1.0
C      1  0.5451190000000  0.5404510000000  0.5085670000000 1.0
C      1  0.4735980000000  0.5360680000000  0.5356160000000 1.0
C      1  0.4565240000000  0.5445420000000  0.4854000000000 1.0
C      1  0.5186380000000  0.5462760000000  0.4605350000000 1.0
C      1  0.5424630000000  0.5296670000000  0.4768270000000 1.0
C      1  0.4938680000000  0.5308210000000  0.4590560000000 1.0
C      1  0.4493140000000  0.5341340000000  0.5140920000000 1.0
C      1  0.5233710000000  0.5345590000000  0.5415890000000 1.0
C      1  0.4846820000000  0.5045840000000  0.5370890000000 1.0
C      1  0.4631400000000  0.5111680000000  0.4846800000000 1.0
C      1  0.5165270000000  0.4875070000000  0.4588890000000 1.0
C      1  0.5294000000000  0.5117580000000  0.5092070000000 1.0
C      1  0.4875280000000  0.5000110000000  0.4668690000000 1.0
C      1  0.4615150000000  0.5031380000000  0.5163960000000 1.0
C      1  0.5131550000000  0.5046330000000  0.5349500000000 1.0
C      1  0.5357900000000  0.4964370000000  0.4801010000000 1.0
C      1  0.4943800000000  0.5195890000000  0.5800690000000 1.0
C      1  0.4190310000000  0.5150180000000  0.4896970000000 1.0
C      1  0.5185220000000  0.5219440000000  0.4289370000000 1.0
C      1  0.5773840000000  0.5184030000000  0.5169500000000 1.0
C      1  0.4855910000000  0.5156020000000  0.4232340000000 1.0
C      1  0.4147710000000  0.5173140000000  0.5224940000000 1.0
C      1  0.5234740000000  0.5209210000000  0.5787980000000 1.0
C      1  0.5784470000000  0.5157880000000  0.4869370000000 1.0
C      1  0.5243390000000  0.4635450000000  0.4384360000000 1.0
C      1  0.5393070000000  0.4811140000000  0.5164970000000 1.0
C      1  0.4743240000000  0.4745090000000  0.5411390000000 1.0
C      1  0.4612470000000  0.4772350000000  0.4860570000000 1.0
C      1  0.5216020000000  0.4721000000000  0.5401850000000 1.0
C      1  0.5443630000000  0.4644690000000  0.4882180000000 1.0
C      1  0.4854590000000  0.4667880000000  0.4668220000000 1.0
C      1  0.4496010000000  0.4713240000000  0.5178190000000 1.0
END
