TITL C-3289325-7307-609 -0.000650717568873302 125000 -971.94476589006 0 0 184 (C1) n - 1
REM
REM in /nfs/bkarasulu/CARBON/AIRSS/Generating-Clusters/AIREBO/with-SteepDescent/Higher-Symm/SD-CG/HFTN-CG
REM
REM
REM
REM
REM
REM ./C.cell (b20cbc046b6831c77cfcea5457e17084)
REM
REM compiler GCC version 9.2.1 20190827 (Red Hat 9.2.1-1)
REM options -cpp -mtune=generic -march=x86-64 -g -O0 -fpre-include=/usr/include/finclude/math-vector-fortran.h
REM seed -621408324 750523705 -1352153299 -503551935 -1822801395 39518330 -787104591 -1492917242 162450433 1915293530 1946228214 955952904 1122351240 -1523681069 373867453 1809414207 184574089 1914324897 -1036101074 2098178022 -2095487935 1088666577 1666605804 1528516886 1921563171 709503279 -1152803746 -2020718412 -1145919084 -560488320 -824951323 912024558 1925766671
REM
CELL 1.54180   50.00000   50.00000   50.00000   90.00000   90.00000   90.00000
LATT -1
SFAC C  
C      1  0.4557970000000  0.4514540000000  0.4206370000000 1.0
C      1  0.5630870000000  0.4878530000000  0.4219060000000 1.0
C      1  0.4804130000000  0.5602060000000  0.4241800000000 1.0
C      1  0.4484830000000  0.5462020000000  0.4201300000000 1.0
C      1  0.5652950000000  0.5224790000000  0.4223500000000 1.0
C      1  0.4873420000000  0.4399030000000  0.4279460000000 1.0
C      1  0.3918160000000  0.5424290000000  0.4962250000000 1.0
C      1  0.5179370000000  0.3844530000000  0.5026350000000 1.0
C      1  0.5927470000000  0.5699170000000  0.5006380000000 1.0
C      1  0.3901030000000  0.4605060000000  0.5062340000000 1.0
C      1  0.5130420000000  0.6144260000000  0.4948330000000 1.0
C      1  0.5921160000000  0.4336270000000  0.4950550000000 1.0
C      1  0.5257670000000  0.5127540000000  0.6060530000000 1.0
C      1  0.4703480000000  0.5173450000000  0.5991240000000 1.0
C      1  0.5058740000000  0.4658580000000  0.5866300000000 1.0
C      1  0.5313760000000  0.4822990000000  0.5935000000000 1.0
C      1  0.4630330000000  0.4934140000000  0.5857230000000 1.0
C      1  0.5026080000000  0.5278350000000  0.5966450000000 1.0
C      1  0.5421650000000  0.5978860000000  0.4490890000000 1.0
C      1  0.3904250000000  0.4930710000000  0.4518180000000 1.0
C      1  0.5642130000000  0.4078290000000  0.4460520000000 1.0
C      1  0.5416410000000  0.3966160000000  0.4504880000000 1.0
C      1  0.3940780000000  0.5179180000000  0.4551260000000 1.0
C      1  0.5660030000000  0.5894300000000  0.4537220000000 1.0
C      1  0.4841940000000  0.4158000000000  0.4526460000000 1.0
C      1  0.5856490000000  0.5282650000000  0.4489780000000 1.0
C      1  0.4345280000000  0.5568080000000  0.4494800000000 1.0
C      1  0.4765260000000  0.5827490000000  0.4478060000000 1.0
C      1  0.5855110000000  0.4804950000000  0.4467030000000 1.0
C      1  0.4380850000000  0.4312640000000  0.4389270000000 1.0
C      1  0.4073570000000  0.5480900000000  0.5210770000000 1.0
C      1  0.5088380000000  0.3916490000000  0.5345980000000 1.0
C      1  0.5896020000000  0.5520570000000  0.5275890000000 1.0
C      1  0.3980960000000  0.4465850000000  0.5299750000000 1.0
C      1  0.5050420000000  0.6127830000000  0.5236580000000 1.0
C      1  0.5934570000000  0.4408110000000  0.5212160000000 1.0
C      1  0.6021680000000  0.5229360000000  0.5251030000000 1.0
C      1  0.4243240000000  0.5755410000000  0.5240070000000 1.0
C      1  0.4755820000000  0.3921240000000  0.5373720000000 1.0
C      1  0.6018310000000  0.4686150000000  0.5301800000000 1.0
C      1  0.4195150000000  0.4279980000000  0.5252680000000 1.0
C      1  0.4733930000000  0.6104340000000  0.5245840000000 1.0
C      1  0.5676360000000  0.5221540000000  0.4766730000000 1.0
C      1  0.4554720000000  0.5464560000000  0.4741860000000 1.0
C      1  0.4749900000000  0.4438250000000  0.4657270000000 1.0
C      1  0.5616910000000  0.4959990000000  0.4609150000000 1.0
C      1  0.4467980000000  0.4448240000000  0.4659660000000 1.0
C      1  0.4819560000000  0.5647580000000  0.4753560000000 1.0
C      1  0.5651940000000  0.5887360000000  0.4938770000000 1.0
C      1  0.3782200000000  0.5184970000000  0.4960390000000 1.0
C      1  0.5479100000000  0.3982540000000  0.4940860000000 1.0
C      1  0.5727410000000  0.4107180000000  0.4866830000000 1.0
C      1  0.3855010000000  0.4917450000000  0.5027540000000 1.0
C      1  0.5417660000000  0.6032840000000  0.4886300000000 1.0
C      1  0.5335390000000  0.5232880000000  0.4730940000000 1.0
C      1  0.4657590000000  0.5141870000000  0.4707020000000 1.0
C      1  0.4954230000000  0.4661550000000  0.4739330000000 1.0
C      1  0.5324990000000  0.4894370000000  0.4700610000000 1.0
C      1  0.4684650000000  0.4838400000000  0.4702870000000 1.0
C      1  0.5017040000000  0.5373240000000  0.4713420000000 1.0
C      1  0.5952140000000  0.5507550000000  0.4726460000000 1.0
C      1  0.4088950000000  0.5562020000000  0.4718270000000 1.0
C      1  0.4982950000000  0.4012230000000  0.4799890000000 1.0
C      1  0.5881680000000  0.4594620000000  0.4732960000000 1.0
C      1  0.4058450000000  0.4513300000000  0.4846090000000 1.0
C      1  0.4937210000000  0.6024720000000  0.4695280000000 1.0
C      1  0.4241000000000  0.5204650000000  0.5294560000000 1.0
C      1  0.5269880000000  0.4201430000000  0.5307210000000 1.0
C      1  0.5589440000000  0.5564980000000  0.5347010000000 1.0
C      1  0.4253980000000  0.4807770000000  0.5271420000000 1.0
C      1  0.5167640000000  0.5749190000000  0.5283680000000 1.0
C      1  0.5677910000000  0.4503790000000  0.5401590000000 1.0
C      1  0.6206000000000  0.4780680000000  0.4654670000000 1.0
C      1  0.4552920000000  0.6092210000000  0.4903340000000 1.0
C      1  0.4412690000000  0.4038490000000  0.4799060000000 1.0
C      1  0.6157350000000  0.5055050000000  0.4818030000000 1.0
C      1  0.4557670000000  0.3887550000000  0.4973290000000 1.0
C      1  0.4378920000000  0.5932840000000  0.4775320000000 1.0
C      1  0.4648680000000  0.5239520000000  0.5601540000000 1.0
C      1  0.4984030000000  0.4727840000000  0.5544580000000 1.0
C      1  0.5288580000000  0.5177790000000  0.5576770000000 1.0
C      1  0.4744900000000  0.4917230000000  0.5547060000000 1.0
C      1  0.4981280000000  0.5314460000000  0.5631280000000 1.0
C      1  0.5278190000000  0.4878190000000  0.5617400000000 1.0
C      1  0.5189450000000  0.5612660000000  0.4449910000000 1.0
C      1  0.4286360000000  0.4867930000000  0.4418480000000 1.0
C      1  0.5496280000000  0.4510870000000  0.4418310000000 1.0
C      1  0.5202600000000  0.4402490000000  0.4502540000000 1.0
C      1  0.4336130000000  0.5171490000000  0.4459840000000 1.0
C      1  0.5488920000000  0.5506220000000  0.4482920000000 1.0
C      1  0.4694660000000  0.5192610000000  0.4998170000000 1.0
C      1  0.5031900000000  0.4673290000000  0.5048480000000 1.0
C      1  0.5313180000000  0.5230660000000  0.5055610000000 1.0
C      1  0.4699280000000  0.4742000000000  0.5032490000000 1.0
C      1  0.4997700000000  0.5342080000000  0.5041000000000 1.0
C      1  0.5315260000000  0.4716100000000  0.4925160000000 1.0
C      1  0.4610730000000  0.4451010000000  0.5080090000000 1.0
C      1  0.5512920000000  0.4772380000000  0.5144050000000 1.0
C      1  0.4793690000000  0.5653380000000  0.5183860000000 1.0
C      1  0.4564210000000  0.5532390000000  0.5161130000000 1.0
C      1  0.5634810000000  0.5049190000000  0.5204930000000 1.0
C      1  0.4808250000000  0.4302920000000  0.5267170000000 1.0
C      1  0.4324420000000  0.4330450000000  0.4941670000000 1.0
C      1  0.5833740000000  0.4749630000000  0.5031780000000 1.0
C      1  0.4819470000000  0.5898970000000  0.4988490000000 1.0
C      1  0.4341220000000  0.5648610000000  0.4932270000000 1.0
C      1  0.5888700000000  0.5082560000000  0.4989890000000 1.0
C      1  0.4827060000000  0.4033360000000  0.5070120000000 1.0
C      1  0.6004320000000  0.5087930000000  0.5528520000000 1.0
C      1  0.4411090000000  0.5784350000000  0.5481460000000 1.0
C      1  0.4518600000000  0.3976890000000  0.5476960000000 1.0
C      1  0.5972600000000  0.4811680000000  0.5544360000000 1.0
C      1  0.4364110000000  0.4212120000000  0.5468460000000 1.0
C      1  0.4635180000000  0.5958800000000  0.5494550000000 1.0
C      1  0.5521580000000  0.4437320000000  0.5696130000000 1.0
C      1  0.5168830000000  0.5717810000000  0.5613050000000 1.0
C      1  0.4322970000000  0.4723830000000  0.5593630000000 1.0
C      1  0.5427230000000  0.5584140000000  0.5645350000000 1.0
C      1  0.5304200000000  0.4273790000000  0.5639670000000 1.0
C      1  0.4369120000000  0.5048210000000  0.5571200000000 1.0
C      1  0.5335770000000  0.4807070000000  0.4372110000000 1.0
C      1  0.4987100000000  0.5349060000000  0.4376930000000 1.0
C      1  0.4584520000000  0.4760000000000  0.4428180000000 1.0
C      1  0.5359620000000  0.5204840000000  0.4392880000000 1.0
C      1  0.5023890000000  0.4676130000000  0.4407110000000 1.0
C      1  0.4658330000000  0.5268030000000  0.4409520000000 1.0
C      1  0.4557940000000  0.5438140000000  0.5936660000000 1.0
C      1  0.4814000000000  0.4495360000000  0.5857910000000 1.0
C      1  0.5551530000000  0.5139210000000  0.5963430000000 1.0
C      1  0.4570410000000  0.4659150000000  0.5899870000000 1.0
C      1  0.4831580000000  0.5549240000000  0.5947760000000 1.0
C      1  0.5651010000000  0.4840810000000  0.5951510000000 1.0
C      1  0.5206690000000  0.4406430000000  0.4167360000000 1.0
C      1  0.5444980000000  0.5498590000000  0.4145810000000 1.0
C      1  0.4362330000000  0.5139550000000  0.4130770000000 1.0
C      1  0.5129560000000  0.5634210000000  0.4129180000000 1.0
C      1  0.5498130000000  0.4576760000000  0.4094050000000 1.0
C      1  0.4373420000000  0.4795770000000  0.4100470000000 1.0
C      1  0.5574100000000  0.5310490000000  0.5707480000000 1.0
C      1  0.4436030000000  0.5498680000000  0.5659390000000 1.0
C      1  0.4782390000000  0.4300500000000  0.5599050000000 1.0
C      1  0.5786820000000  0.4643630000000  0.5758620000000 1.0
C      1  0.4479750000000  0.4447820000000  0.5648910000000 1.0
C      1  0.4895500000000  0.5747480000000  0.5769300000000 1.0
C      1  0.4992300000000  0.5468980000000  0.5356410000000 1.0
C      1  0.4570510000000  0.4900670000000  0.5260120000000 1.0
C      1  0.5373810000000  0.4655890000000  0.5398310000000 1.0
C      1  0.5088030000000  0.4488780000000  0.5320530000000 1.0
C      1  0.4579220000000  0.5239300000000  0.5290120000000 1.0
C      1  0.5455240000000  0.5260340000000  0.5330300000000 1.0
C      1  0.4357700000000  0.5152760000000  0.4971350000000 1.0
C      1  0.5266430000000  0.4226050000000  0.4981640000000 1.0
C      1  0.5484310000000  0.5522080000000  0.5017790000000 1.0
C      1  0.4180270000000  0.4874110000000  0.4967730000000 1.0
C      1  0.5175240000000  0.5627190000000  0.4978210000000 1.0
C      1  0.5412360000000  0.4450100000000  0.4839770000000 1.0
C      1  0.4003200000000  0.4927400000000  0.5471460000000 1.0
C      1  0.5751680000000  0.4187540000000  0.5487670000000 1.0
C      1  0.5367950000000  0.5994240000000  0.5408210000000 1.0
C      1  0.3990080000000  0.5207300000000  0.5525590000000 1.0
C      1  0.5601230000000  0.5888980000000  0.5449570000000 1.0
C      1  0.5558060000000  0.4034570000000  0.5376240000000 1.0
C      1  0.5665730000000  0.4361990000000  0.4646410000000 1.0
C      1  0.5203960000000  0.5833820000000  0.4708250000000 1.0
C      1  0.4123910000000  0.4747960000000  0.4656880000000 1.0
C      1  0.5647290000000  0.5617790000000  0.4734750000000 1.0
C      1  0.5221050000000  0.4153550000000  0.4652500000000 1.0
C      1  0.4210870000000  0.5263740000000  0.4719350000000 1.0
C      1  0.4134410000000  0.5495560000000  0.5545000000000 1.0
C      1  0.5036370000000  0.4114540000000  0.5617420000000 1.0
C      1  0.5857180000000  0.5355890000000  0.5582220000000 1.0
C      1  0.4006220000000  0.4626500000000  0.5526650000000 1.0
C      1  0.4971960000000  0.5985530000000  0.5538790000000 1.0
C      1  0.5903280000000  0.4330800000000  0.5693880000000 1.0
C      1  0.4760250000000  0.4854710000000  0.4167820000000 1.0
C      1  0.5243680000000  0.4876300000000  0.4051060000000 1.0
C      1  0.4990000000000  0.5271990000000  0.4043990000000 1.0
C      1  0.4761150000000  0.5121380000000  0.4139180000000 1.0
C      1  0.5252020000000  0.5153580000000  0.4074390000000 1.0
C      1  0.4991300000000  0.4720310000000  0.4071470000000 1.0
C      1  0.4518320000000  0.4074050000000  0.4533010000000 1.0
C      1  0.4454220000000  0.5865150000000  0.4505990000000 1.0
C      1  0.6074900000000  0.5048850000000  0.4491210000000 1.0
C      1  0.5073710000000  0.5021240000000  0.4406910000000 1.0
END
