TITL C-3289321-8710-731 -0.0016400923757505 125000 -595.820211736958 0 0 111 (C1) n - 1
REM
REM in /nfs/bkarasulu/CARBON/AIRSS/Generating-Clusters/AIREBO/with-SteepDescent/Higher-Symm/SD-CG/HFTN-CG
REM
REM
REM
REM
REM
REM ./C.cell (b20cbc046b6831c77cfcea5457e17084)
REM
REM compiler GCC version 9.2.1 20190827 (Red Hat 9.2.1-1)
REM options -cpp -mtune=generic -march=x86-64 -g -O0 -fpre-include=/usr/include/finclude/math-vector-fortran.h
REM seed -1273987176 -1220523730 1365838429 -1648910846 -1023193464 -934932896 -2049810245 718148124 -427867962 567591696 1417164384 -480510322 818023663 -76250685 1905887056 -1169705962 1617763936 1824287502 -2110444942 -2017993322 1487886254 1800310131 -630693607 1770879892 848068115 -1682315830 1853333078 1315692589 1997298295 -1615484278 -888461469 1335114850 -1719874280
REM
CELL 1.54180   50.00000   50.00000   50.00000   90.00000   90.00000   90.00000
LATT -1
SFAC C  
C      1  0.5514620000000  0.5009310000000  0.5208710000000 1.0
C      1  0.5561280000000  0.5287430000000  0.5041580000000 1.0
C      1  0.5569060000000  0.5203330000000  0.4723320000000 1.0
C      1  0.5543970000000  0.4869630000000  0.4762830000000 1.0
C      1  0.5349140000000  0.4823350000000  0.5038250000000 1.0
C      1  0.4078560000000  0.5640720000000  0.4846700000000 1.0
C      1  0.4023410000000  0.5029920000000  0.4774090000000 1.0
C      1  0.3990400000000  0.4292570000000  0.4854490000000 1.0
C      1  0.4021670000000  0.4806910000000  0.5258610000000 1.0
C      1  0.4019310000000  0.5367850000000  0.5463770000000 1.0
C      1  0.5058180000000  0.5385950000000  0.4831410000000 1.0
C      1  0.5077770000000  0.4942540000000  0.4679090000000 1.0
C      1  0.5115480000000  0.4618000000000  0.4903320000000 1.0
C      1  0.4967080000000  0.4845880000000  0.5263850000000 1.0
C      1  0.5073720000000  0.5298850000000  0.5254340000000 1.0
C      1  0.5601730000000  0.5190610000000  0.5689380000000 1.0
C      1  0.5607290000000  0.5755590000000  0.5033960000000 1.0
C      1  0.5545730000000  0.5281550000000  0.4269530000000 1.0
C      1  0.5677130000000  0.4419890000000  0.4536620000000 1.0
C      1  0.5588900000000  0.4426940000000  0.5464140000000 1.0
C      1  0.5102910000000  0.4830560000000  0.5827640000000 1.0
C      1  0.5266010000000  0.5805900000000  0.5478200000000 1.0
C      1  0.5157350000000  0.5727220000000  0.4267780000000 1.0
C      1  0.5116600000000  0.4465470000000  0.4257570000000 1.0
C      1  0.5155910000000  0.4097600000000  0.5243520000000 1.0
C      1  0.4837220000000  0.4742530000000  0.4813530000000 1.0
C      1  0.4682590000000  0.4797790000000  0.5111340000000 1.0
C      1  0.4789380000000  0.5130560000000  0.5334580000000 1.0
C      1  0.4816420000000  0.5426110000000  0.5067090000000 1.0
C      1  0.4823300000000  0.5165650000000  0.4712780000000 1.0
C      1  0.5973100000000  0.5047730000000  0.5314420000000 1.0
C      1  0.5986840000000  0.5456940000000  0.5008120000000 1.0
C      1  0.5976930000000  0.5188610000000  0.4560010000000 1.0
C      1  0.5919240000000  0.4709210000000  0.4754960000000 1.0
C      1  0.6104770000000  0.4442390000000  0.5155510000000 1.0
C      1  0.4803920000000  0.5856540000000  0.5477350000000 1.0
C      1  0.4856650000000  0.5656430000000  0.4381590000000 1.0
C      1  0.4806510000000  0.4571270000000  0.4313950000000 1.0
C      1  0.4837100000000  0.4001120000000  0.5194420000000 1.0
C      1  0.4636780000000  0.4803370000000  0.5775490000000 1.0
C      1  0.4600440000000  0.4149800000000  0.5323160000000 1.0
C      1  0.4655530000000  0.5064680000000  0.5640190000000 1.0
C      1  0.4720260000000  0.5723540000000  0.5201020000000 1.0
C      1  0.4788270000000  0.5347020000000  0.4427250000000 1.0
C      1  0.4695200000000  0.4528900000000  0.4617810000000 1.0
C      1  0.5872630000000  0.4613780000000  0.5054230000000 1.0
C      1  0.5774570000000  0.4814680000000  0.5263480000000 1.0
C      1  0.5837400000000  0.5310050000000  0.5240500000000 1.0
C      1  0.5842020000000  0.5406190000000  0.4740670000000 1.0
C      1  0.5812830000000  0.4930610000000  0.4563720000000 1.0
C      1  0.4318390000000  0.5558710000000  0.4789650000000 1.0
C      1  0.4261850000000  0.4971960000000  0.4705700000000 1.0
C      1  0.4218960000000  0.4194840000000  0.4942340000000 1.0
C      1  0.4270520000000  0.4858100000000  0.5357930000000 1.0
C      1  0.4266320000000  0.5446150000000  0.5397360000000 1.0
C      1  0.4547990000000  0.4751180000000  0.4321880000000 1.0
C      1  0.4592590000000  0.3886880000000  0.5022010000000 1.0
C      1  0.4435680000000  0.4648250000000  0.5653560000000 1.0
C      1  0.4526350000000  0.5707090000000  0.5548530000000 1.0
C      1  0.4567380000000  0.5670090000000  0.4500910000000 1.0
C      1  0.5314190000000  0.4341220000000  0.5299170000000 1.0
C      1  0.5314260000000  0.5006590000000  0.5703970000000 1.0
C      1  0.5292260000000  0.5764280000000  0.5142960000000 1.0
C      1  0.5337420000000  0.5526570000000  0.4266350000000 1.0
C      1  0.5356580000000  0.4462590000000  0.4415380000000 1.0
C      1  0.4944770000000  0.6014240000000  0.4741490000000 1.0
C      1  0.4948700000000  0.4987130000000  0.4037480000000 1.0
C      1  0.4931040000000  0.4098610000000  0.4698410000000 1.0
C      1  0.4845880000000  0.4420350000000  0.5658750000000 1.0
C      1  0.4966740000000  0.5546240000000  0.5776180000000 1.0
C      1  0.4403540000000  0.4685510000000  0.4619760000000 1.0
C      1  0.4342610000000  0.4096170000000  0.5206110000000 1.0
C      1  0.4358130000000  0.5072450000000  0.5504120000000 1.0
C      1  0.4398140000000  0.5679780000000  0.5234700000000 1.0
C      1  0.4490500000000  0.5351580000000  0.4591720000000 1.0
C      1  0.5174760000000  0.4598540000000  0.5226330000000 1.0
C      1  0.5317270000000  0.5183680000000  0.5413390000000 1.0
C      1  0.5323070000000  0.5496790000000  0.4934900000000 1.0
C      1  0.5283600000000  0.5101040000000  0.4568570000000 1.0
C      1  0.5372700000000  0.4585460000000  0.4722160000000 1.0
C      1  0.4224690000000  0.4511010000000  0.5757850000000 1.0
C      1  0.4384270000000  0.5781820000000  0.5771230000000 1.0
C      1  0.4365440000000  0.5843210000000  0.4365020000000 1.0
C      1  0.4392100000000  0.4783060000000  0.4068360000000 1.0
C      1  0.4556400000000  0.3618730000000  0.4990260000000 1.0
C      1  0.5685950000000  0.4678080000000  0.5517860000000 1.0
C      1  0.5593720000000  0.5381240000000  0.5428730000000 1.0
C      1  0.5589920000000  0.5601440000000  0.4753770000000 1.0
C      1  0.5546250000000  0.4993780000000  0.4383410000000 1.0
C      1  0.5644760000000  0.4443400000000  0.4869030000000 1.0
C      1  0.5614610000000  0.4327170000000  0.5158220000000 1.0
C      1  0.5612760000000  0.4863410000000  0.5704940000000 1.0
C      1  0.5538200000000  0.5663100000000  0.5355320000000 1.0
C      1  0.5587330000000  0.5531570000000  0.4459010000000 1.0
C      1  0.5592920000000  0.4684910000000  0.4342140000000 1.0
C      1  0.4823000000000  0.5188240000000  0.4167250000000 1.0
C      1  0.4680760000000  0.4233160000000  0.4683760000000 1.0
C      1  0.4654840000000  0.4385230000000  0.5449060000000 1.0
C      1  0.4784710000000  0.5361160000000  0.5710930000000 1.0
C      1  0.4793180000000  0.5890030000000  0.4924540000000 1.0
C      1  0.4648440000000  0.5606780000000  0.4826870000000 1.0
C      1  0.4575900000000  0.4976990000000  0.4575430000000 1.0
C      1  0.4486290000000  0.4107080000000  0.4835440000000 1.0
C      1  0.4506870000000  0.4647920000000  0.5320990000000 1.0
C      1  0.4598520000000  0.5396220000000  0.5427690000000 1.0
C      1  0.4878940000000  0.4667990000000  0.5794890000000 1.0
C      1  0.5030200000000  0.5765310000000  0.5607360000000 1.0
C      1  0.5043840000000  0.5885100000000  0.4518810000000 1.0
C      1  0.5023730000000  0.4742900000000  0.4135070000000 1.0
C      1  0.5037760000000  0.4091090000000  0.4951530000000 1.0
C      1  0.4673690000000  0.5121930000000  0.5014960000000 1.0
END
