TITL C-3289331-6719-256 -0.000891892057455612 125000 -754.112136390243 0 0 146 (C1) n - 1
REM
REM in /nfs/bkarasulu/CARBON/AIRSS/Generating-Clusters/AIREBO/with-SteepDescent/Higher-Symm/SD-CG/HFTN-CG
REM
REM
REM
REM
REM
REM ./C.cell (b20cbc046b6831c77cfcea5457e17084)
REM
REM compiler GCC version 9.2.1 20190827 (Red Hat 9.2.1-1)
REM options -cpp -mtune=generic -march=x86-64 -g -O0 -fpre-include=/usr/include/finclude/math-vector-fortran.h
REM seed -1180553986 -557625634 -555503403 692066990 1496343374 378320203 -475778930 -1360656064 1161713221 447851949 1505634550 -1813296589 -49503602 -724085106 -730772162 -1956205697 -517425239 -502423467 394547563 -1964367793 815808487 1394235553 -232687328 1709542861 1748698486 -1955416230 -1655671374 1245967087 1100390153 1314998761 1525272342 -943382673 448851880
REM
CELL 1.54180   50.00000   50.00000   50.00000   90.00000   90.00000   90.00000
LATT -1
SFAC C  
C      1  0.5831660000000  0.4365150000000  0.4473620000000 1.0
C      1  0.5817790000000  0.4241320000000  0.5295680000000 1.0
C      1  0.5331730000000  0.4308450000000  0.5849800000000 1.0
C      1  0.4586320000000  0.4346990000000  0.5791990000000 1.0
C      1  0.4121790000000  0.4287050000000  0.5111980000000 1.0
C      1  0.4392860000000  0.4309590000000  0.4313350000000 1.0
C      1  0.5069450000000  0.4319370000000  0.4119420000000 1.0
C      1  0.4682670000000  0.4405660000000  0.5194360000000 1.0
C      1  0.4653390000000  0.4418330000000  0.4881950000000 1.0
C      1  0.4928810000000  0.4469540000000  0.4689090000000 1.0
C      1  0.5249550000000  0.4359620000000  0.4719870000000 1.0
C      1  0.5438110000000  0.4376260000000  0.4995080000000 1.0
C      1  0.5295970000000  0.4374180000000  0.5304300000000 1.0
C      1  0.4981300000000  0.4475770000000  0.5341780000000 1.0
C      1  0.4933040000000  0.4520220000000  0.5676010000000 1.0
C      1  0.4402950000000  0.4501190000000  0.5362450000000 1.0
C      1  0.4355980000000  0.4490400000000  0.4729800000000 1.0
C      1  0.4820100000000  0.4508200000000  0.4367870000000 1.0
C      1  0.5418170000000  0.4460160000000  0.4435630000000 1.0
C      1  0.5740300000000  0.4432640000000  0.4956050000000 1.0
C      1  0.5458060000000  0.4515240000000  0.5532670000000 1.0
C      1  0.5743070000000  0.5161850000000  0.5081640000000 1.0
C      1  0.5367490000000  0.5128180000000  0.5658250000000 1.0
C      1  0.4813090000000  0.5186710000000  0.5630690000000 1.0
C      1  0.4278360000000  0.5160740000000  0.5236870000000 1.0
C      1  0.4360170000000  0.5166140000000  0.4578510000000 1.0
C      1  0.4911090000000  0.5189370000000  0.4290590000000 1.0
C      1  0.5451390000000  0.5153790000000  0.4571850000000 1.0
C      1  0.4604970000000  0.4961930000000  0.5071270000000 1.0
C      1  0.4663300000000  0.4825300000000  0.4769660000000 1.0
C      1  0.4941680000000  0.4944340000000  0.4711670000000 1.0
C      1  0.5246980000000  0.4847980000000  0.4727120000000 1.0
C      1  0.5387280000000  0.4918260000000  0.5195170000000 1.0
C      1  0.5106220000000  0.4923190000000  0.5386460000000 1.0
C      1  0.4798540000000  0.4945010000000  0.5312780000000 1.0
C      1  0.5422420000000  0.4627900000000  0.5852180000000 1.0
C      1  0.4645860000000  0.4660140000000  0.5796020000000 1.0
C      1  0.4126950000000  0.4607000000000  0.5192030000000 1.0
C      1  0.4309400000000  0.4609880000000  0.4412170000000 1.0
C      1  0.5013570000000  0.4641090000000  0.4121230000000 1.0
C      1  0.5699480000000  0.4653440000000  0.4426570000000 1.0
C      1  0.5862150000000  0.4574050000000  0.5240610000000 1.0
C      1  0.4431300000000  0.4913200000000  0.5721120000000 1.0
C      1  0.4039260000000  0.4862640000000  0.4985430000000 1.0
C      1  0.4436810000000  0.4874670000000  0.4240610000000 1.0
C      1  0.5240190000000  0.4890190000000  0.4143950000000 1.0
C      1  0.5755410000000  0.4875880000000  0.4675850000000 1.0
C      1  0.5885090000000  0.4841240000000  0.5450130000000 1.0
C      1  0.5234230000000  0.4892920000000  0.5952560000000 1.0
C      1  0.4275030000000  0.5648590000000  0.4805190000000 1.0
C      1  0.4698380000000  0.5684420000000  0.4342160000000 1.0
C      1  0.5325950000000  0.5672980000000  0.4383300000000 1.0
C      1  0.5764240000000  0.5629150000000  0.4820340000000 1.0
C      1  0.5663220000000  0.5661050000000  0.5385330000000 1.0
C      1  0.4902770000000  0.5668090000000  0.5741230000000 1.0
C      1  0.4384220000000  0.5618820000000  0.5411190000000 1.0
C      1  0.4740800000000  0.4069180000000  0.4577010000000 1.0
C      1  0.5055070000000  0.4096360000000  0.4627580000000 1.0
C      1  0.5177930000000  0.4001790000000  0.4930280000000 1.0
C      1  0.5280160000000  0.4050240000000  0.5232500000000 1.0
C      1  0.5046890000000  0.4093770000000  0.5460270000000 1.0
C      1  0.4779720000000  0.4134000000000  0.5375620000000 1.0
C      1  0.4567810000000  0.4119770000000  0.4795260000000 1.0
C      1  0.5428700000000  0.5225570000000  0.5055700000000 1.0
C      1  0.5231210000000  0.5220620000000  0.5402630000000 1.0
C      1  0.4844810000000  0.5270050000000  0.5316120000000 1.0
C      1  0.4504410000000  0.5250680000000  0.5056890000000 1.0
C      1  0.4611470000000  0.5259570000000  0.4739070000000 1.0
C      1  0.4931770000000  0.5237100000000  0.4613760000000 1.0
C      1  0.5228500000000  0.5258740000000  0.4782320000000 1.0
C      1  0.5015030000000  0.5809570000000  0.4350360000000 1.0
C      1  0.5586600000000  0.5749540000000  0.4588410000000 1.0
C      1  0.5734930000000  0.5737200000000  0.5087690000000 1.0
C      1  0.5126400000000  0.5803540000000  0.5647160000000 1.0
C      1  0.4598540000000  0.5699200000000  0.5592640000000 1.0
C      1  0.4317520000000  0.5716470000000  0.5091850000000 1.0
C      1  0.4439250000000  0.5764160000000  0.4530350000000 1.0
C      1  0.4557410000000  0.4796130000000  0.5431630000000 1.0
C      1  0.4360340000000  0.4775140000000  0.4915690000000 1.0
C      1  0.4659030000000  0.4786370000000  0.4478690000000 1.0
C      1  0.5322270000000  0.4785670000000  0.4456920000000 1.0
C      1  0.5502470000000  0.4870740000000  0.4889430000000 1.0
C      1  0.5561750000000  0.4791430000000  0.5385340000000 1.0
C      1  0.5124560000000  0.4800140000000  0.5652140000000 1.0
C      1  0.5778770000000  0.4573140000000  0.5630350000000 1.0
C      1  0.5049380000000  0.4609920000000  0.5989620000000 1.0
C      1  0.4274990000000  0.4617950000000  0.5657810000000 1.0
C      1  0.4032760000000  0.4573960000000  0.4805920000000 1.0
C      1  0.4592310000000  0.4606350000000  0.4131420000000 1.0
C      1  0.5406480000000  0.4594550000000  0.4120050000000 1.0
C      1  0.5925590000000  0.4634210000000  0.4754280000000 1.0
C      1  0.5515710000000  0.4881110000000  0.5672880000000 1.0
C      1  0.4830160000000  0.4904480000000  0.5707980000000 1.0
C      1  0.4285600000000  0.4876350000000  0.5296370000000 1.0
C      1  0.4292410000000  0.4875130000000  0.4610910000000 1.0
C      1  0.4856970000000  0.4890230000000  0.4257950000000 1.0
C      1  0.5585370000000  0.4958220000000  0.4328070000000 1.0
C      1  0.5792000000000  0.4837110000000  0.5064530000000 1.0
C      1  0.5196960000000  0.4220880000000  0.4348530000000 1.0
C      1  0.5834850000000  0.4250670000000  0.4699870000000 1.0
C      1  0.5601050000000  0.4115790000000  0.5308880000000 1.0
C      1  0.5117740000000  0.4248340000000  0.5686730000000 1.0
C      1  0.4550630000000  0.4250280000000  0.5538050000000 1.0
C      1  0.4283000000000  0.4208540000000  0.4905400000000 1.0
C      1  0.4655370000000  0.4233200000000  0.4364560000000 1.0
C      1  0.5008350000000  0.5561350000000  0.4642030000000 1.0
C      1  0.5300030000000  0.5590530000000  0.4803210000000 1.0
C      1  0.5384870000000  0.5548790000000  0.5121410000000 1.0
C      1  0.5197520000000  0.5522410000000  0.5372470000000 1.0
C      1  0.4897730000000  0.5600280000000  0.5348720000000 1.0
C      1  0.4656600000000  0.5516460000000  0.5041260000000 1.0
C      1  0.4715500000000  0.5555600000000  0.4720420000000 1.0
C      1  0.3988490000000  0.5173010000000  0.4963700000000 1.0
C      1  0.4411050000000  0.5213700000000  0.4245630000000 1.0
C      1  0.5201970000000  0.5219550000000  0.4117010000000 1.0
C      1  0.5790550000000  0.5177110000000  0.4601860000000 1.0
C      1  0.5872290000000  0.5178770000000  0.5395790000000 1.0
C      1  0.5247360000000  0.5236150000000  0.5934640000000 1.0
C      1  0.4377610000000  0.5212100000000  0.5737700000000 1.0
C      1  0.4787920000000  0.5900860000000  0.5438530000000 1.0
C      1  0.4626410000000  0.5830340000000  0.5168440000000 1.0
C      1  0.4604200000000  0.5872160000000  0.4775390000000 1.0
C      1  0.5074600000000  0.5893250000000  0.4674760000000 1.0
C      1  0.5370400000000  0.5922190000000  0.4773940000000 1.0
C      1  0.5442490000000  0.5876300000000  0.5093070000000 1.0
C      1  0.5380900000000  0.5781900000000  0.5444160000000 1.0
C      1  0.5385100000000  0.5435550000000  0.4229390000000 1.0
C      1  0.5880220000000  0.5350590000000  0.4834160000000 1.0
C      1  0.5727470000000  0.5432490000000  0.5553450000000 1.0
C      1  0.4967740000000  0.5370440000000  0.5860390000000 1.0
C      1  0.4240090000000  0.5356100000000  0.5492000000000 1.0
C      1  0.4132420000000  0.5361640000000  0.4738460000000 1.0
C      1  0.4660700000000  0.5401260000000  0.4200650000000 1.0
C      1  0.5534760000000  0.5364110000000  0.5783240000000 1.0
C      1  0.4627440000000  0.5374490000000  0.5832280000000 1.0
C      1  0.3981240000000  0.5312160000000  0.5273840000000 1.0
C      1  0.4123340000000  0.5327770000000  0.4395570000000 1.0
C      1  0.4907210000000  0.5322610000000  0.3977620000000 1.0
C      1  0.5643140000000  0.5289600000000  0.4316860000000 1.0
C      1  0.6055990000000  0.5287970000000  0.5124360000000 1.0
C      1  0.5092170000000  0.5192460000000  0.5093260000000 1.0
C      1  0.4987300000000  0.5510330000000  0.5033290000000 1.0
C      1  0.5007130000000  0.4548370000000  0.5010440000000 1.0
C      1  0.5044210000000  0.4868820000000  0.4999450000000 1.0
C      1  0.4888640000000  0.5827840000000  0.4952020000000 1.0
C      1  0.4969470000000  0.4210390000000  0.5006560000000 1.0
END
