TITL C-3289335-9438-179 -0.00117963649247103 125000 -595.530046923737 0 0 106 (C1) n - 1
REM
REM in /nfs/bkarasulu/CARBON/AIRSS/Generating-Clusters/AIREBO/with-SteepDescent/Higher-Symm/SD-CG/HFTN-CG
REM
REM
REM
REM
REM
REM ./C.cell (b20cbc046b6831c77cfcea5457e17084)
REM
REM compiler GCC version 9.2.1 20190827 (Red Hat 9.2.1-1)
REM options -cpp -mtune=generic -march=x86-64 -g -O0 -fpre-include=/usr/include/finclude/math-vector-fortran.h
REM seed 2051036832 -979141239 -940253462 -1203346109 1595011435 139872514 1932343616 1549271305 -1307478937 -52656286 852859655 -1915356442 -1274333394 1185947282 -1166269788 1998637065 913686017 474372526 492161948 586847932 -1181583240 1536000277 2017429883 1027301783 638556353 -1951339736 -549550571 515553613 962876662 -1149668014 1004585335 -132379124 1745313761
REM
CELL 1.54180   50.00000   50.00000   50.00000   90.00000   90.00000   90.00000
LATT -1
SFAC C  
C      1  0.4552810000000  0.4619750000000  0.5760600000000 1.0
C      1  0.5411800000000  0.4218340000000  0.4701650000000 1.0
C      1  0.4555790000000  0.5291860000000  0.4229940000000 1.0
C      1  0.5464500000000  0.5785710000000  0.5322140000000 1.0
C      1  0.4608450000000  0.4914860000000  0.5710540000000 1.0
C      1  0.5397760000000  0.4267110000000  0.4995130000000 1.0
C      1  0.4561310000000  0.5001140000000  0.4296250000000 1.0
C      1  0.5429190000000  0.5749630000000  0.5028900000000 1.0
C      1  0.5619170000000  0.4032440000000  0.4641140000000 1.0
C      1  0.4353160000000  0.5346800000000  0.4038520000000 1.0
C      1  0.5665780000000  0.5975160000000  0.5381180000000 1.0
C      1  0.4338230000000  0.4592260000000  0.5947640000000 1.0
C      1  0.4832820000000  0.4514160000000  0.4717530000000 1.0
C      1  0.5125360000000  0.5367370000000  0.4512980000000 1.0
C      1  0.4867500000000  0.5522180000000  0.5359290000000 1.0
C      1  0.5163510000000  0.4628260000000  0.5524900000000 1.0
C      1  0.5271880000000  0.5934550000000  0.4791460000000 1.0
C      1  0.4765600000000  0.5154330000000  0.5882070000000 1.0
C      1  0.5234540000000  0.4080270000000  0.5227890000000 1.0
C      1  0.4685710000000  0.4730010000000  0.4129790000000 1.0
C      1  0.4809710000000  0.5495400000000  0.4191040000000 1.0
C      1  0.5222660000000  0.5792320000000  0.5532860000000 1.0
C      1  0.4804260000000  0.4476540000000  0.5864490000000 1.0
C      1  0.5146970000000  0.4130770000000  0.4572470000000 1.0
C      1  0.5240700000000  0.4992360000000  0.5197570000000 1.0
C      1  0.4701810000000  0.4793090000000  0.4989140000000 1.0
C      1  0.5416320000000  0.5047610000000  0.4843420000000 1.0
C      1  0.4681340000000  0.5182980000000  0.5011100000000 1.0
C      1  0.6027700000000  0.5037240000000  0.4704960000000 1.0
C      1  0.4193050000000  0.5400400000000  0.4915630000000 1.0
C      1  0.5840160000000  0.5083320000000  0.5346760000000 1.0
C      1  0.4102840000000  0.4740370000000  0.4997290000000 1.0
C      1  0.4930790000000  0.5196440000000  0.4701430000000 1.0
C      1  0.5097360000000  0.5365070000000  0.5185100000000 1.0
C      1  0.4879070000000  0.4737400000000  0.5379430000000 1.0
C      1  0.5062800000000  0.4708790000000  0.4832680000000 1.0
C      1  0.4012450000000  0.5570070000000  0.4785440000000 1.0
C      1  0.6009700000000  0.5179420000000  0.5548440000000 1.0
C      1  0.3990490000000  0.4482030000000  0.5047330000000 1.0
C      1  0.5864350000000  0.4942990000000  0.4521550000000 1.0
C      1  0.5445970000000  0.4818600000000  0.5534290000000 1.0
C      1  0.4603620000000  0.4284600000000  0.4610790000000 1.0
C      1  0.5400940000000  0.5211580000000  0.4428360000000 1.0
C      1  0.4566970000000  0.5565470000000  0.5206500000000 1.0
C      1  0.4927860000000  0.5318160000000  0.5695540000000 1.0
C      1  0.5073740000000  0.4245230000000  0.5456080000000 1.0
C      1  0.4844490000000  0.4518780000000  0.4317950000000 1.0
C      1  0.5098670000000  0.5745560000000  0.4633500000000 1.0
C      1  0.5501380000000  0.5512770000000  0.5470030000000 1.0
C      1  0.4475300000000  0.4480280000000  0.5497040000000 1.0
C      1  0.5466090000000  0.4484550000000  0.4569450000000 1.0
C      1  0.4538640000000  0.5477260000000  0.4483320000000 1.0
C      1  0.4377190000000  0.4566790000000  0.4999220000000 1.0
C      1  0.5531290000000  0.4961920000000  0.4471030000000 1.0
C      1  0.4450510000000  0.5502700000000  0.4968370000000 1.0
C      1  0.5571390000000  0.5029550000000  0.5417380000000 1.0
C      1  0.4357940000000  0.5677310000000  0.4477550000000 1.0
C      1  0.5676700000000  0.5494580000000  0.5672650000000 1.0
C      1  0.4295890000000  0.4287460000000  0.5432850000000 1.0
C      1  0.5626530000000  0.4501160000000  0.4348930000000 1.0
C      1  0.6061690000000  0.5393640000000  0.5016770000000 1.0
C      1  0.4030220000000  0.5114190000000  0.5276990000000 1.0
C      1  0.5981660000000  0.4746630000000  0.5042650000000 1.0
C      1  0.3977040000000  0.5027620000000  0.4681200000000 1.0
C      1  0.5178500000000  0.5569180000000  0.4910480000000 1.0
C      1  0.4853060000000  0.5042330000000  0.5511330000000 1.0
C      1  0.5168850000000  0.4414290000000  0.5185890000000 1.0
C      1  0.4790440000000  0.4825230000000  0.4439720000000 1.0
C      1  0.4098580000000  0.4884370000000  0.4509560000000 1.0
C      1  0.5923220000000  0.5575440000000  0.4906190000000 1.0
C      1  0.4154770000000  0.5112160000000  0.5494470000000 1.0
C      1  0.5859840000000  0.4535600000000  0.5093630000000 1.0
C      1  0.4979390000000  0.4331200000000  0.4488340000000 1.0
C      1  0.4953390000000  0.5610160000000  0.4405110000000 1.0
C      1  0.5076460000000  0.5565110000000  0.5605530000000 1.0
C      1  0.4996350000000  0.4404870000000  0.5683640000000 1.0
C      1  0.5084410000000  0.3864000000000  0.4567400000000 1.0
C      1  0.4896210000000  0.5534230000000  0.3932160000000 1.0
C      1  0.5144020000000  0.6040900000000  0.5622070000000 1.0
C      1  0.4839030000000  0.4457420000000  0.6136100000000 1.0
C      1  0.4921600000000  0.5093690000000  0.5207920000000 1.0
C      1  0.5086230000000  0.4695060000000  0.5138340000000 1.0
C      1  0.4847080000000  0.4911860000000  0.4705340000000 1.0
C      1  0.5183960000000  0.5233650000000  0.4883660000000 1.0
C      1  0.5349030000000  0.4760800000000  0.4673320000000 1.0
C      1  0.4664350000000  0.5396980000000  0.4747380000000 1.0
C      1  0.5371640000000  0.5264850000000  0.5354520000000 1.0
C      1  0.4609740000000  0.4590610000000  0.5246360000000 1.0
C      1  0.5730710000000  0.4758260000000  0.4304830000000 1.0
C      1  0.4096650000000  0.5702850000000  0.4558110000000 1.0
C      1  0.5931950000000  0.5397580000000  0.5698790000000 1.0
C      1  0.4183080000000  0.4310730000000  0.5178730000000 1.0
C      1  0.5457880000000  0.4784240000000  0.5038930000000 1.0
C      1  0.4452840000000  0.4985630000000  0.4854650000000 1.0
C      1  0.5658260000000  0.5217760000000  0.4872850000000 1.0
C      1  0.4546560000000  0.4967150000000  0.5236630000000 1.0
C      1  0.4460400000000  0.5106650000000  0.5488930000000 1.0
C      1  0.5553400000000  0.4510800000000  0.5133720000000 1.0
C      1  0.4407580000000  0.4853050000000  0.4551790000000 1.0
C      1  0.5608740000000  0.5544290000000  0.4865530000000 1.0
C      1  0.4581050000000  0.5380340000000  0.5464230000000 1.0
C      1  0.5468950000000  0.4526340000000  0.5424540000000 1.0
C      1  0.4500960000000  0.4579480000000  0.4718550000000 1.0
C      1  0.5435070000000  0.5444170000000  0.4630460000000 1.0
C      1  0.4145530000000  0.5073670000000  0.4971220000000 1.0
C      1  0.5929140000000  0.5082200000000  0.5027310000000 1.0
END
