TITL C-3289333-7213-120 0.000559745064588917 125000 -591.812007861721 0 0 110 (C1) n - 1
REM
REM in /nfs/bkarasulu/CARBON/AIRSS/Generating-Clusters/AIREBO/with-SteepDescent/Higher-Symm/SD-CG/HFTN-CG
REM
REM
REM
REM
REM
REM ./C.cell (b20cbc046b6831c77cfcea5457e17084)
REM
REM compiler GCC version 9.2.1 20190827 (Red Hat 9.2.1-1)
REM options -cpp -mtune=generic -march=x86-64 -g -O0 -fpre-include=/usr/include/finclude/math-vector-fortran.h
REM seed 13399121 -1050972141 -745592046 538956929 -763530852 143454578 -1621242185 387982674 -373755441 1885447758 -1721298639 1822902570 -1855310677 1895403235 709871491 -1905002680 84678871 -1340656751 -5431437 -66647754 958835857 1921957893 1019818739 -702788723 894204561 -909351039 -1351875286 1690282342 211708892 1535626669 2059890896 -1207648905 1587484584
REM
CELL 1.54180   50.00000   50.00000   50.00000   90.00000   90.00000   90.00000
LATT -1
SFAC C  
C      1  0.3985250000000  0.4695610000000  0.4934040000000 1.0
C      1  0.4054270000000  0.5053750000000  0.5389470000000 1.0
C      1  0.4108110000000  0.5240370000000  0.5186010000000 1.0
C      1  0.4084960000000  0.5193840000000  0.4881000000000 1.0
C      1  0.4077700000000  0.4897930000000  0.4762730000000 1.0
C      1  0.4646430000000  0.4754010000000  0.5600990000000 1.0
C      1  0.4687900000000  0.5350810000000  0.5517630000000 1.0
C      1  0.4773030000000  0.5441820000000  0.4625340000000 1.0
C      1  0.4870440000000  0.4797220000000  0.4452330000000 1.0
C      1  0.4733300000000  0.4387890000000  0.4939630000000 1.0
C      1  0.4879780000000  0.4168680000000  0.4818810000000 1.0
C      1  0.4869110000000  0.4605770000000  0.5750450000000 1.0
C      1  0.4922730000000  0.5446010000000  0.5619120000000 1.0
C      1  0.4895330000000  0.5756420000000  0.4667260000000 1.0
C      1  0.4851500000000  0.4933310000000  0.4141120000000 1.0
C      1  0.4810930000000  0.4361510000000  0.5274230000000 1.0
C      1  0.4885570000000  0.4939560000000  0.5979620000000 1.0
C      1  0.4921330000000  0.5835920000000  0.5275760000000 1.0
C      1  0.4922090000000  0.5510050000000  0.4327380000000 1.0
C      1  0.4935770000000  0.4496600000000  0.4307050000000 1.0
C      1  0.5741320000000  0.5281240000000  0.5398590000000 1.0
C      1  0.5719400000000  0.5478550000000  0.4886720000000 1.0
C      1  0.5698250000000  0.5053600000000  0.4533570000000 1.0
C      1  0.5682340000000  0.4573130000000  0.4806710000000 1.0
C      1  0.5678660000000  0.4722840000000  0.5337990000000 1.0
C      1  0.5749310000000  0.4517250000000  0.5135520000000 1.0
C      1  0.5775920000000  0.5001880000000  0.5509710000000 1.0
C      1  0.5798580000000  0.5533490000000  0.5172000000000 1.0
C      1  0.5802550000000  0.5325880000000  0.4591510000000 1.0
C      1  0.5751470000000  0.4715170000000  0.4544630000000 1.0
C      1  0.5432300000000  0.5897860000000  0.5360010000000 1.0
C      1  0.5436600000000  0.5552920000000  0.4304310000000 1.0
C      1  0.5432250000000  0.4581060000000  0.4127250000000 1.0
C      1  0.5340540000000  0.4148420000000  0.5201970000000 1.0
C      1  0.5400290000000  0.4977020000000  0.5874650000000 1.0
C      1  0.4380830000000  0.5166770000000  0.4753540000000 1.0
C      1  0.4513810000000  0.4867400000000  0.4777490000000 1.0
C      1  0.4495080000000  0.4699930000000  0.5073360000000 1.0
C      1  0.4588040000000  0.5003680000000  0.5151920000000 1.0
C      1  0.4594030000000  0.5204590000000  0.4973990000000 1.0
C      1  0.5152360000000  0.5803870000000  0.5503710000000 1.0
C      1  0.5181830000000  0.5688910000000  0.4401070000000 1.0
C      1  0.5123390000000  0.4689140000000  0.4098970000000 1.0
C      1  0.5233860000000  0.3964390000000  0.5004000000000 1.0
C      1  0.5132110000000  0.4792500000000  0.5796370000000 1.0
C      1  0.5444760000000  0.4949450000000  0.5245120000000 1.0
C      1  0.5520540000000  0.5246720000000  0.5170390000000 1.0
C      1  0.5530240000000  0.5212320000000  0.4858530000000 1.0
C      1  0.5453010000000  0.4911050000000  0.4721110000000 1.0
C      1  0.5456050000000  0.4746250000000  0.4992270000000 1.0
C      1  0.5172320000000  0.4483500000000  0.5656850000000 1.0
C      1  0.5250140000000  0.5481840000000  0.5534650000000 1.0
C      1  0.5219060000000  0.5753870000000  0.4708860000000 1.0
C      1  0.5164790000000  0.5005540000000  0.4197650000000 1.0
C      1  0.5211990000000  0.4229160000000  0.4791630000000 1.0
C      1  0.4736320000000  0.5604960000000  0.4109150000000 1.0
C      1  0.4721050000000  0.4357330000000  0.4195770000000 1.0
C      1  0.4532970000000  0.4213860000000  0.5261540000000 1.0
C      1  0.4620820000000  0.4924440000000  0.5960400000000 1.0
C      1  0.4711130000000  0.5672250000000  0.5181810000000 1.0
C      1  0.4534650000000  0.4746360000000  0.4469970000000 1.0
C      1  0.4398420000000  0.4382530000000  0.4998720000000 1.0
C      1  0.4380900000000  0.4776360000000  0.5771890000000 1.0
C      1  0.4503770000000  0.5572690000000  0.5393450000000 1.0
C      1  0.4460720000000  0.5394770000000  0.4565080000000 1.0
C      1  0.5184060000000  0.5966070000000  0.5149830000000 1.0
C      1  0.5188870000000  0.5328450000000  0.4240460000000 1.0
C      1  0.5154770000000  0.4310010000000  0.4485840000000 1.0
C      1  0.5096290000000  0.4311600000000  0.5373280000000 1.0
C      1  0.5117240000000  0.5146310000000  0.5966470000000 1.0
C      1  0.5292040000000  0.5465740000000  0.5196660000000 1.0
C      1  0.5201870000000  0.5209250000000  0.4809400000000 1.0
C      1  0.5202060000000  0.4786490000000  0.4527450000000 1.0
C      1  0.5231220000000  0.4496280000000  0.4994710000000 1.0
C      1  0.5188660000000  0.5000030000000  0.5406050000000 1.0
C      1  0.5550220000000  0.4259250000000  0.4773200000000 1.0
C      1  0.5498770000000  0.4568770000000  0.5582000000000 1.0
C      1  0.5577390000000  0.5501110000000  0.5595930000000 1.0
C      1  0.5551930000000  0.5739690000000  0.4758030000000 1.0
C      1  0.5489080000000  0.5066130000000  0.4265770000000 1.0
C      1  0.5630180000000  0.5555150000000  0.4505250000000 1.0
C      1  0.5614470000000  0.4768490000000  0.4270970000000 1.0
C      1  0.5562830000000  0.4290380000000  0.5080430000000 1.0
C      1  0.5609270000000  0.4840510000000  0.5711090000000 1.0
C      1  0.5632690000000  0.5691750000000  0.5367440000000 1.0
C      1  0.4782270000000  0.4658830000000  0.4770280000000 1.0
C      1  0.4717390000000  0.4661890000000  0.5312490000000 1.0
C      1  0.4687080000000  0.5040710000000  0.5441080000000 1.0
C      1  0.4775590000000  0.5462080000000  0.4964880000000 1.0
C      1  0.4852710000000  0.5114130000000  0.4584480000000 1.0
C      1  0.5050870000000  0.5339690000000  0.5047660000000 1.0
C      1  0.5059940000000  0.4944920000000  0.4769820000000 1.0
C      1  0.5027030000000  0.4722700000000  0.4970750000000 1.0
C      1  0.4951380000000  0.4823930000000  0.5233510000000 1.0
C      1  0.4948120000000  0.5145160000000  0.5249890000000 1.0
C      1  0.5236610000000  0.5169610000000  0.5649060000000 1.0
C      1  0.5332300000000  0.5719430000000  0.5017130000000 1.0
C      1  0.5333710000000  0.5232870000000  0.4518390000000 1.0
C      1  0.5319200000000  0.4538570000000  0.4410300000000 1.0
C      1  0.5334620000000  0.4531080000000  0.5302650000000 1.0
C      1  0.4237460000000  0.5462290000000  0.5272490000000 1.0
C      1  0.3903860000000  0.5367760000000  0.4755080000000 1.0
C      1  0.4202580000000  0.4829230000000  0.4531140000000 1.0
C      1  0.4101250000000  0.4506090000000  0.5093840000000 1.0
C      1  0.4185590000000  0.4951950000000  0.5603360000000 1.0
C      1  0.4265640000000  0.4546450000000  0.5880900000000 1.0
C      1  0.4441170000000  0.5776250000000  0.5582620000000 1.0
C      1  0.4323010000000  0.5505780000000  0.4375410000000 1.0
C      1  0.4271960000000  0.4666170000000  0.4271370000000 1.0
C      1  0.4310540000000  0.4207180000000  0.4776730000000 1.0
END
