TITL C-3289334-2237-701 -0.0011712363273148 125000 -757.197398499812 0 0 137 (C1) n - 1
REM
REM in /nfs/bkarasulu/CARBON/AIRSS/Generating-Clusters/AIREBO/with-SteepDescent/Higher-Symm/SD-CG/HFTN-CG
REM
REM
REM
REM
REM
REM ./C.cell (b20cbc046b6831c77cfcea5457e17084)
REM
REM compiler GCC version 9.2.1 20190827 (Red Hat 9.2.1-1)
REM options -cpp -mtune=generic -march=x86-64 -g -O0 -fpre-include=/usr/include/finclude/math-vector-fortran.h
REM seed 719521299 879606857 -1743278304 -1478550301 -983720322 -1279450463 1432438024 -1034723262 244709190 392920788 -1595626264 364641921 -1857322623 792463670 1620077547 1915603427 1798810877 96256521 664242062 -2098387933 -2009854271 2082602599 -1330945808 -1014084463 380867875 -213462961 -619483744 418943268 7353990 -1795273321 -1331768839 -723557208 -477362873
REM
CELL 1.54180   50.00000   50.00000   50.00000   90.00000   90.00000   90.00000
LATT -1
SFAC C  
C      1  0.4598190000000  0.5933520000000  0.5034920000000 1.0
C      1  0.4565400000000  0.5329240000000  0.4261900000000 1.0
C      1  0.4561980000000  0.4402480000000  0.4516530000000 1.0
C      1  0.4596880000000  0.3985630000000  0.5460360000000 1.0
C      1  0.4509630000000  0.5048790000000  0.5837370000000 1.0
C      1  0.5291140000000  0.5425600000000  0.5690730000000 1.0
C      1  0.5408080000000  0.5734370000000  0.4912360000000 1.0
C      1  0.5383520000000  0.5134370000000  0.4245620000000 1.0
C      1  0.5380790000000  0.4344260000000  0.4693760000000 1.0
C      1  0.5305180000000  0.4520420000000  0.5474550000000 1.0
C      1  0.4846630000000  0.4688370000000  0.4362650000000 1.0
C      1  0.4767510000000  0.4242670000000  0.5205880000000 1.0
C      1  0.4790830000000  0.4914070000000  0.5577570000000 1.0
C      1  0.4913680000000  0.5667810000000  0.5343010000000 1.0
C      1  0.4837460000000  0.5595960000000  0.4383130000000 1.0
C      1  0.5786550000000  0.5464740000000  0.4547110000000 1.0
C      1  0.5823780000000  0.4713760000000  0.4433530000000 1.0
C      1  0.5883760000000  0.4384940000000  0.5086640000000 1.0
C      1  0.5796440000000  0.4880910000000  0.5625110000000 1.0
C      1  0.5870880000000  0.5522830000000  0.5339190000000 1.0
C      1  0.5058160000000  0.4486220000000  0.5903210000000 1.0
C      1  0.5051160000000  0.5864650000000  0.5796380000000 1.0
C      1  0.5090130000000  0.5944830000000  0.4611010000000 1.0
C      1  0.5073950000000  0.4884790000000  0.3939930000000 1.0
C      1  0.5027350000000  0.4019190000000  0.4796840000000 1.0
C      1  0.5327800000000  0.4990150000000  0.3954480000000 1.0
C      1  0.5277330000000  0.4026990000000  0.4678420000000 1.0
C      1  0.5284560000000  0.4379440000000  0.5762230000000 1.0
C      1  0.5074910000000  0.5601110000000  0.5857820000000 1.0
C      1  0.5330240000000  0.5998200000000  0.4738230000000 1.0
C      1  0.4191150000000  0.5463560000000  0.5484490000000 1.0
C      1  0.4265450000000  0.5384940000000  0.4756020000000 1.0
C      1  0.4101340000000  0.4966680000000  0.4370820000000 1.0
C      1  0.4160950000000  0.4348220000000  0.4954660000000 1.0
C      1  0.4209920000000  0.4697670000000  0.5423100000000 1.0
C      1  0.6028060000000  0.5299720000000  0.5372460000000 1.0
C      1  0.5940900000000  0.5486750000000  0.4772080000000 1.0
C      1  0.5945220000000  0.4956350000000  0.4476910000000 1.0
C      1  0.6019560000000  0.4540560000000  0.4904900000000 1.0
C      1  0.5891780000000  0.4697990000000  0.5446010000000 1.0
C      1  0.5426400000000  0.5636630000000  0.4595940000000 1.0
C      1  0.5468980000000  0.4827040000000  0.4290820000000 1.0
C      1  0.5472570000000  0.4213620000000  0.4967510000000 1.0
C      1  0.5402000000000  0.4754870000000  0.5701120000000 1.0
C      1  0.5479120000000  0.5616100000000  0.5541720000000 1.0
C      1  0.4054510000000  0.4892010000000  0.4633470000000 1.0
C      1  0.3913070000000  0.4314930000000  0.4846870000000 1.0
C      1  0.3958890000000  0.4835080000000  0.5256820000000 1.0
C      1  0.3978240000000  0.5459800000000  0.5653780000000 1.0
C      1  0.4042430000000  0.5317330000000  0.4895500000000 1.0
C      1  0.4854310000000  0.4350430000000  0.4399730000000 1.0
C      1  0.4884240000000  0.4161960000000  0.5504940000000 1.0
C      1  0.4827990000000  0.5134710000000  0.5821000000000 1.0
C      1  0.4892330000000  0.5906970000000  0.5119410000000 1.0
C      1  0.4833800000000  0.5406270000000  0.4100960000000 1.0
C      1  0.5104330000000  0.5285320000000  0.5452940000000 1.0
C      1  0.5121030000000  0.5574690000000  0.4894290000000 1.0
C      1  0.5064220000000  0.5151810000000  0.4302950000000 1.0
C      1  0.5097210000000  0.4499400000000  0.4759770000000 1.0
C      1  0.5031110000000  0.4647510000000  0.5374850000000 1.0
C      1  0.4599900000000  0.4723190000000  0.5257990000000 1.0
C      1  0.4588330000000  0.5306200000000  0.5227500000000 1.0
C      1  0.4670960000000  0.5377040000000  0.4904330000000 1.0
C      1  0.4922710000000  0.5086670000000  0.4562880000000 1.0
C      1  0.4712190000000  0.4608710000000  0.4989690000000 1.0
C      1  0.4381820000000  0.5583140000000  0.4596340000000 1.0
C      1  0.4343080000000  0.4879930000000  0.4263480000000 1.0
C      1  0.4370720000000  0.4160390000000  0.4982550000000 1.0
C      1  0.4385050000000  0.4639740000000  0.5666830000000 1.0
C      1  0.4399300000000  0.5653090000000  0.5468630000000 1.0
C      1  0.5339160000000  0.5272680000000  0.5099570000000 1.0
C      1  0.5307340000000  0.5162790000000  0.4794000000000 1.0
C      1  0.5312810000000  0.4835490000000  0.4778290000000 1.0
C      1  0.5367250000000  0.4759140000000  0.5093540000000 1.0
C      1  0.5343680000000  0.5017200000000  0.5277740000000 1.0
C      1  0.4369220000000  0.4821020000000  0.5873080000000 1.0
C      1  0.4389040000000  0.5811800000000  0.5239320000000 1.0
C      1  0.4375780000000  0.5516080000000  0.4318770000000 1.0
C      1  0.4439240000000  0.4660120000000  0.4414590000000 1.0
C      1  0.4409770000000  0.4089710000000  0.5282880000000 1.0
C      1  0.4893240000000  0.5398310000000  0.5687840000000 1.0
C      1  0.4900350000000  0.5796940000000  0.4812570000000 1.0
C      1  0.4868250000000  0.5090560000000  0.4045490000000 1.0
C      1  0.4884050000000  0.4266310000000  0.4705190000000 1.0
C      1  0.4915130000000  0.4439840000000  0.5621450000000 1.0
C      1  0.5335660000000  0.4294690000000  0.5240720000000 1.0
C      1  0.5344220000000  0.5089980000000  0.5704780000000 1.0
C      1  0.5396310000000  0.5707100000000  0.5244520000000 1.0
C      1  0.5333920000000  0.5431590000000  0.4387510000000 1.0
C      1  0.5338910000000  0.4566290000000  0.4439640000000 1.0
C      1  0.4650240000000  0.4291790000000  0.4898210000000 1.0
C      1  0.4679780000000  0.4626440000000  0.5564570000000 1.0
C      1  0.4680700000000  0.5517220000000  0.5477740000000 1.0
C      1  0.4693770000000  0.5605650000000  0.4653440000000 1.0
C      1  0.4670510000000  0.4926140000000  0.4227410000000 1.0
C      1  0.5055700000000  0.4974780000000  0.5421370000000 1.0
C      1  0.5083300000000  0.5454820000000  0.5187300000000 1.0
C      1  0.4987110000000  0.5266080000000  0.4844500000000 1.0
C      1  0.5030370000000  0.4791240000000  0.4621910000000 1.0
C      1  0.5039560000000  0.4687400000000  0.5037240000000 1.0
C      1  0.5121650000000  0.4088610000000  0.5307200000000 1.0
C      1  0.5092570000000  0.4981400000000  0.5882760000000 1.0
C      1  0.5191280000000  0.5941890000000  0.5261370000000 1.0
C      1  0.5127940000000  0.5554030000000  0.4158330000000 1.0
C      1  0.5133910000000  0.4434170000000  0.4262110000000 1.0
C      1  0.4251440000000  0.4614980000000  0.5095900000000 1.0
C      1  0.4400140000000  0.4951530000000  0.5306910000000 1.0
C      1  0.4258570000000  0.5248940000000  0.5287430000000 1.0
C      1  0.4468820000000  0.5141920000000  0.4764550000000 1.0
C      1  0.4289180000000  0.4874710000000  0.4878940000000 1.0
C      1  0.5849490000000  0.5051940000000  0.5267960000000 1.0
C      1  0.5851600000000  0.5281080000000  0.5016750000000 1.0
C      1  0.5810390000000  0.5112750000000  0.4733970000000 1.0
C      1  0.5831880000000  0.4796410000000  0.4823760000000 1.0
C      1  0.5791830000000  0.4770700000000  0.5135330000000 1.0
C      1  0.5586600000000  0.4520010000000  0.5195770000000 1.0
C      1  0.5583450000000  0.5068340000000  0.5476540000000 1.0
C      1  0.5607050000000  0.5466340000000  0.5128900000000 1.0
C      1  0.5537970000000  0.5254390000000  0.4593920000000 1.0
C      1  0.5579250000000  0.4686920000000  0.4647240000000 1.0
C      1  0.5076850000000  0.4744090000000  0.6008760000000 1.0
C      1  0.5024970000000  0.5920670000000  0.5525620000000 1.0
C      1  0.5104260000000  0.5770100000000  0.4400640000000 1.0
C      1  0.5022280000000  0.4642560000000  0.4064550000000 1.0
C      1  0.4968220000000  0.3992380000000  0.5065830000000 1.0
C      1  0.4614350000000  0.5109170000000  0.4497630000000 1.0
C      1  0.4506330000000  0.4650350000000  0.4744240000000 1.0
C      1  0.4478700000000  0.4422080000000  0.5261380000000 1.0
C      1  0.4561330000000  0.5140250000000  0.5523260000000 1.0
C      1  0.4472060000000  0.5641910000000  0.4981700000000 1.0
C      1  0.5835590000000  0.5566700000000  0.4298510000000 1.0
C      1  0.5895870000000  0.4505270000000  0.4273720000000 1.0
C      1  0.5734750000000  0.4152260000000  0.4997970000000 1.0
C      1  0.5876460000000  0.4935890000000  0.5879810000000 1.0
C      1  0.5748720000000  0.5641580000000  0.5566950000000 1.0
C      1  0.4089550000000  0.5061460000000  0.5081230000000 1.0
C      1  0.4961000000000  0.4991970000000  0.5006520000000 1.0
END
