TITL C-3289321-8710-460 5.53704786804523e-05 125000 -454.795165431816 0 0 83 (C1) n - 1
REM
REM in /nfs/bkarasulu/CARBON/AIRSS/Generating-Clusters/AIREBO/with-SteepDescent/Higher-Symm/SD-CG/HFTN-CG
REM
REM
REM
REM
REM
REM ./C.cell (b20cbc046b6831c77cfcea5457e17084)
REM
REM compiler GCC version 9.2.1 20190827 (Red Hat 9.2.1-1)
REM options -cpp -mtune=generic -march=x86-64 -g -O0 -fpre-include=/usr/include/finclude/math-vector-fortran.h
REM seed -1081477251 548132309 -208821862 -1482297828 1364447414 -268414821 494131722 1479788146 -1636498667 1931008425 1938951699 -282815419 -1837941067 2056614545 -360246357 -1230831354 -1391350929 418288297 118540382 -1552792116 476862446 -609936637 593490765 1647135148 1503954720 -1574443019 -1822394261 836128541 -253646225 -1420251959 175169266 394239116 -1928256390
REM
CELL 1.54180   50.00000   50.00000   50.00000   90.00000   90.00000   90.00000
LATT -1
SFAC C  
C      1  0.4977240000000  0.5401320000000  0.5200410000000 1.0
C      1  0.5351550000000  0.5084010000000  0.5162390000000 1.0
C      1  0.5236410000000  0.4599790000000  0.5225450000000 1.0
C      1  0.4865400000000  0.4633540000000  0.5085500000000 1.0
C      1  0.4692570000000  0.5002860000000  0.5185560000000 1.0
C      1  0.5003390000000  0.5349950000000  0.4862510000000 1.0
C      1  0.5345450000000  0.5058250000000  0.4823360000000 1.0
C      1  0.5273190000000  0.4616740000000  0.4917350000000 1.0
C      1  0.4818960000000  0.4689130000000  0.4752800000000 1.0
C      1  0.4608020000000  0.5178200000000  0.4906450000000 1.0
C      1  0.4567550000000  0.5135300000000  0.4385610000000 1.0
C      1  0.5015180000000  0.5462720000000  0.4284100000000 1.0
C      1  0.5372000000000  0.5099460000000  0.4310380000000 1.0
C      1  0.5186910000000  0.4547880000000  0.4380160000000 1.0
C      1  0.4710300000000  0.4650580000000  0.4258770000000 1.0
C      1  0.4555280000000  0.5094200000000  0.5549050000000 1.0
C      1  0.5038580000000  0.5550860000000  0.5728960000000 1.0
C      1  0.5430010000000  0.5193280000000  0.5635410000000 1.0
C      1  0.5236350000000  0.4708180000000  0.5609750000000 1.0
C      1  0.4589700000000  0.4576420000000  0.5717180000000 1.0
C      1  0.4733600000000  0.4832620000000  0.5605270000000 1.0
C      1  0.4863110000000  0.5167650000000  0.5429460000000 1.0
C      1  0.5094960000000  0.5249160000000  0.5664650000000 1.0
C      1  0.5307790000000  0.4983110000000  0.5459310000000 1.0
C      1  0.4971000000000  0.4724690000000  0.5397440000000 1.0
C      1  0.4829130000000  0.4961540000000  0.4268930000000 1.0
C      1  0.4720130000000  0.5223410000000  0.4611230000000 1.0
C      1  0.5009290000000  0.5295780000000  0.4560500000000 1.0
C      1  0.5178170000000  0.5037190000000  0.4555250000000 1.0
C      1  0.5003130000000  0.4780180000000  0.4498190000000 1.0
C      1  0.4563500000000  0.4714620000000  0.5176880000000 1.0
C      1  0.4696750000000  0.5590750000000  0.5181620000000 1.0
C      1  0.5314180000000  0.5422020000000  0.5158100000000 1.0
C      1  0.5521090000000  0.4788780000000  0.5183550000000 1.0
C      1  0.4995490000000  0.4360220000000  0.5240440000000 1.0
C      1  0.4552930000000  0.4861790000000  0.4807450000000 1.0
C      1  0.4617920000000  0.5515360000000  0.4861800000000 1.0
C      1  0.5336830000000  0.5401300000000  0.4819470000000 1.0
C      1  0.5552260000000  0.4789200000000  0.4844960000000 1.0
C      1  0.5060350000000  0.4458720000000  0.4748480000000 1.0
C      1  0.4844940000000  0.4309580000000  0.4566490000000 1.0
C      1  0.4274920000000  0.4878780000000  0.4624230000000 1.0
C      1  0.4692330000000  0.5677660000000  0.4607140000000 1.0
C      1  0.5533840000000  0.5456820000000  0.4567040000000 1.0
C      1  0.5617710000000  0.4589520000000  0.4598940000000 1.0
C      1  0.4794800000000  0.4240260000000  0.5440850000000 1.0
C      1  0.4255580000000  0.4800500000000  0.5279580000000 1.0
C      1  0.4728830000000  0.5776090000000  0.5428840000000 1.0
C      1  0.5576640000000  0.5510990000000  0.5334100000000 1.0
C      1  0.5660800000000  0.4632550000000  0.5434310000000 1.0
C      1  0.5144940000000  0.5828200000000  0.4612430000000 1.0
C      1  0.5826020000000  0.5094340000000  0.4549500000000 1.0
C      1  0.5315490000000  0.4252720000000  0.4760100000000 1.0
C      1  0.4391580000000  0.4444790000000  0.4590560000000 1.0
C      1  0.4194770000000  0.5342500000000  0.4634330000000 1.0
C      1  0.5190040000000  0.5873220000000  0.5389240000000 1.0
C      1  0.5848930000000  0.5132400000000  0.5370090000000 1.0
C      1  0.5395590000000  0.4247190000000  0.5496090000000 1.0
C      1  0.4333300000000  0.4334050000000  0.5367900000000 1.0
C      1  0.4335470000000  0.5305280000000  0.5397120000000 1.0
C      1  0.5658390000000  0.5301880000000  0.5504000000000 1.0
C      1  0.5457010000000  0.4510390000000  0.5576730000000 1.0
C      1  0.4556540000000  0.4350810000000  0.5544470000000 1.0
C      1  0.4253000000000  0.5009800000000  0.5448200000000 1.0
C      1  0.4983930000000  0.5768500000000  0.5553990000000 1.0
C      1  0.5607200000000  0.5225660000000  0.4417270000000 1.0
C      1  0.5395740000000  0.4425840000000  0.4532990000000 1.0
C      1  0.4632790000000  0.4445620000000  0.4439730000000 1.0
C      1  0.4294090000000  0.5121820000000  0.4474630000000 1.0
C      1  0.4940370000000  0.5691560000000  0.4470960000000 1.0
C      1  0.5344240000000  0.4108220000000  0.4995200000000 1.0
C      1  0.4392840000000  0.4572290000000  0.4844870000000 1.0
C      1  0.4300220000000  0.5432030000000  0.4880300000000 1.0
C      1  0.5256920000000  0.5729960000000  0.4849070000000 1.0
C      1  0.5809110000000  0.5000910000000  0.4815890000000 1.0
C      1  0.5266710000000  0.4202360000000  0.5248980000000 1.0
C      1  0.4365240000000  0.4456690000000  0.5115080000000 1.0
C      1  0.4389060000000  0.5456660000000  0.5178120000000 1.0
C      1  0.5244890000000  0.5755930000000  0.5143750000000 1.0
C      1  0.5784750000000  0.4997000000000  0.5127570000000 1.0
C      1  0.5014970000000  0.4939180000000  0.5722890000000 1.0
C      1  0.5085660000000  0.5170470000000  0.4190380000000 1.0
C      1  0.4968400000000  0.5095520000000  0.5051920000000 1.0
END
