TITL C-3289322-3858-150 -0.000976071601219699 125000 -638.270726344309 0 0 114 (C1) n - 1
REM
REM in /nfs/bkarasulu/CARBON/AIRSS/Generating-Clusters/AIREBO/with-SteepDescent/Higher-Symm/SD-CG/HFTN-CG
REM
REM
REM
REM
REM
REM ./C.cell (b20cbc046b6831c77cfcea5457e17084)
REM
REM compiler GCC version 9.2.1 20190827 (Red Hat 9.2.1-1)
REM options -cpp -mtune=generic -march=x86-64 -g -O0 -fpre-include=/usr/include/finclude/math-vector-fortran.h
REM seed -931483767 -1134093849 -1571416526 1341061422 -565071934 -438825023 -1926281597 -2089665787 850988881 -2124037416 1027145272 -1049892610 -484667298 1734896551 1757177982 -1989544583 -574665051 -272028382 -1158118846 -390939404 -1805796059 251693829 579930006 -172866761 -924722239 1714155656 930136568 -2104245203 1604465764 -1134356021 871643672 -1938089609 369398488
REM
CELL 1.54180   50.00000   50.00000   50.00000   90.00000   90.00000   90.00000
LATT -1
SFAC C  
C      1  0.4361880000000  0.4398220000000  0.5370150000000 1.0
C      1  0.4914300000000  0.4367950000000  0.4335550000000 1.0
C      1  0.5572940000000  0.4331310000000  0.5342120000000 1.0
C      1  0.4416410000000  0.5572490000000  0.5396870000000 1.0
C      1  0.4942020000000  0.5575250000000  0.4326750000000 1.0
C      1  0.5542880000000  0.5549160000000  0.5283600000000 1.0
C      1  0.4396270000000  0.4449280000000  0.4667410000000 1.0
C      1  0.4982550000000  0.4402540000000  0.5716780000000 1.0
C      1  0.5586770000000  0.4456700000000  0.4689890000000 1.0
C      1  0.4437640000000  0.5580310000000  0.4606100000000 1.0
C      1  0.4937450000000  0.5580220000000  0.5707460000000 1.0
C      1  0.5627660000000  0.5584460000000  0.4700960000000 1.0
C      1  0.4780000000000  0.5173950000000  0.5185150000000 1.0
C      1  0.4940790000000  0.5140430000000  0.4680430000000 1.0
C      1  0.5271600000000  0.5280890000000  0.5165460000000 1.0
C      1  0.4644220000000  0.4860630000000  0.5210860000000 1.0
C      1  0.5061050000000  0.4815000000000  0.4633120000000 1.0
C      1  0.5276080000000  0.4697880000000  0.5180700000000 1.0
C      1  0.4709770000000  0.5058180000000  0.4873250000000 1.0
C      1  0.5040150000000  0.5158810000000  0.5382900000000 1.0
C      1  0.5207590000000  0.5123160000000  0.4890550000000 1.0
C      1  0.4664270000000  0.4784010000000  0.4783060000000 1.0
C      1  0.5072440000000  0.4827710000000  0.5420120000000 1.0
C      1  0.5285970000000  0.4824700000000  0.4888150000000 1.0
C      1  0.4823490000000  0.5800740000000  0.4408360000000 1.0
C      1  0.5470520000000  0.5769420000000  0.5101680000000 1.0
C      1  0.4625090000000  0.5768610000000  0.5374190000000 1.0
C      1  0.4738650000000  0.4173850000000  0.4430370000000 1.0
C      1  0.5603480000000  0.4171690000000  0.5107570000000 1.0
C      1  0.4538110000000  0.4228000000000  0.5508980000000 1.0
C      1  0.4800160000000  0.5818170000000  0.5594420000000 1.0
C      1  0.5610070000000  0.5805630000000  0.4860610000000 1.0
C      1  0.4647570000000  0.5792670000000  0.4622090000000 1.0
C      1  0.4813740000000  0.4300830000000  0.5511730000000 1.0
C      1  0.5479520000000  0.4266040000000  0.4865210000000 1.0
C      1  0.4609200000000  0.4245620000000  0.4670370000000 1.0
C      1  0.4825900000000  0.5260820000000  0.4383770000000 1.0
C      1  0.5612830000000  0.5285740000000  0.5121920000000 1.0
C      1  0.4548890000000  0.5320640000000  0.5530480000000 1.0
C      1  0.4855740000000  0.4698850000000  0.4387950000000 1.0
C      1  0.5571280000000  0.4622180000000  0.5266330000000 1.0
C      1  0.4442810000000  0.4687120000000  0.5401040000000 1.0
C      1  0.4867370000000  0.5263730000000  0.5656560000000 1.0
C      1  0.5772270000000  0.5344470000000  0.4827330000000 1.0
C      1  0.4500070000000  0.5354890000000  0.4425900000000 1.0
C      1  0.4971990000000  0.4706300000000  0.5723230000000 1.0
C      1  0.5581940000000  0.4753940000000  0.4800210000000 1.0
C      1  0.4533370000000  0.4696280000000  0.4496580000000 1.0
C      1  0.4724990000000  0.4556910000000  0.5105850000000 1.0
C      1  0.5055680000000  0.4483370000000  0.4708790000000 1.0
C      1  0.5150750000000  0.4415190000000  0.5156990000000 1.0
C      1  0.4754790000000  0.5514000000000  0.5189870000000 1.0
C      1  0.4886120000000  0.5474730000000  0.4715970000000 1.0
C      1  0.5197960000000  0.5604460000000  0.5090570000000 1.0
C      1  0.4768460000000  0.4486070000000  0.4806470000000 1.0
C      1  0.4894340000000  0.4398070000000  0.5259860000000 1.0
C      1  0.5207810000000  0.4317200000000  0.4904670000000 1.0
C      1  0.4692660000000  0.5612090000000  0.4906970000000 1.0
C      1  0.5011080000000  0.5688030000000  0.5330380000000 1.0
C      1  0.5172670000000  0.5437600000000  0.4813740000000 1.0
C      1  0.5741740000000  0.5217750000000  0.4513190000000 1.0
C      1  0.5120290000000  0.5164970000000  0.5867360000000 1.0
C      1  0.4244850000000  0.5154550000000  0.4469700000000 1.0
C      1  0.5763890000000  0.4897290000000  0.4569860000000 1.0
C      1  0.5172010000000  0.4876750000000  0.5898400000000 1.0
C      1  0.4229450000000  0.4843120000000  0.4538160000000 1.0
C      1  0.5805290000000  0.5277370000000  0.5402660000000 1.0
C      1  0.5041510000000  0.5173490000000  0.4135640000000 1.0
C      1  0.4266330000000  0.5202650000000  0.5382430000000 1.0
C      1  0.5773450000000  0.4769220000000  0.5394430000000 1.0
C      1  0.5044230000000  0.4845790000000  0.4145930000000 1.0
C      1  0.4188270000000  0.4893520000000  0.5423230000000 1.0
C      1  0.5374440000000  0.5485920000000  0.4594010000000 1.0
C      1  0.5200650000000  0.5619480000000  0.5580520000000 1.0
C      1  0.4388470000000  0.5484830000000  0.4900250000000 1.0
C      1  0.5446490000000  0.4589500000000  0.4463120000000 1.0
C      1  0.5247450000000  0.4313070000000  0.5752030000000 1.0
C      1  0.4291280000000  0.4537700000000  0.4904100000000 1.0
C      1  0.5401260000000  0.5456840000000  0.5500470000000 1.0
C      1  0.5229350000000  0.5513910000000  0.4306500000000 1.0
C      1  0.4243420000000  0.5547270000000  0.5180850000000 1.0
C      1  0.5437920000000  0.4453570000000  0.5599790000000 1.0
C      1  0.5187180000000  0.4476940000000  0.4407670000000 1.0
C      1  0.4167590000000  0.4429100000000  0.5163840000000 1.0
C      1  0.5439460000000  0.5255030000000  0.5836600000000 1.0
C      1  0.4082960000000  0.5132050000000  0.4768580000000 1.0
C      1  0.5657480000000  0.5224530000000  0.4205010000000 1.0
C      1  0.5486950000000  0.4796720000000  0.5869010000000 1.0
C      1  0.4036890000000  0.4831270000000  0.4813340000000 1.0
C      1  0.5659840000000  0.4923230000000  0.4256450000000 1.0
C      1  0.5356400000000  0.5294940000000  0.4093760000000 1.0
C      1  0.4117930000000  0.5255710000000  0.5080950000000 1.0
C      1  0.5716440000000  0.5180760000000  0.5655580000000 1.0
C      1  0.5379510000000  0.4786830000000  0.4130890000000 1.0
C      1  0.4055760000000  0.4749580000000  0.5142890000000 1.0
C      1  0.5728120000000  0.4887660000000  0.5664380000000 1.0
C      1  0.6028870000000  0.5160080000000  0.5251610000000 1.0
C      1  0.4331540000000  0.5132360000000  0.5711880000000 1.0
C      1  0.4703060000000  0.5095500000000  0.4113190000000 1.0
C      1  0.5965190000000  0.4862840000000  0.5213430000000 1.0
C      1  0.4380980000000  0.4796500000000  0.5698660000000 1.0
C      1  0.4706140000000  0.4772400000000  0.4091550000000 1.0
C      1  0.5986290000000  0.5155730000000  0.4949320000000 1.0
C      1  0.4378380000000  0.5186670000000  0.4156650000000 1.0
C      1  0.4643380000000  0.5068860000000  0.5822260000000 1.0
C      1  0.5896130000000  0.4852020000000  0.4880440000000 1.0
C      1  0.4403870000000  0.4859130000000  0.4227610000000 1.0
C      1  0.4695360000000  0.4782440000000  0.5803760000000 1.0
C      1  0.5359230000000  0.4782410000000  0.5561300000000 1.0
C      1  0.5322330000000  0.5198950000000  0.4418160000000 1.0
C      1  0.5340440000000  0.5124290000000  0.5538730000000 1.0
C      1  0.5308840000000  0.4900130000000  0.4440920000000 1.0
C      1  0.4365450000000  0.4842460000000  0.5037630000000 1.0
C      1  0.4425860000000  0.5167130000000  0.4966930000000 1.0
END
