TITL C-3289324-3781-138 2681.71273527073 125000 -854.500712336599 0 0 173 (C1) n - 1
REM
REM in /nfs/bkarasulu/CARBON/AIRSS/Generating-Clusters/AIREBO/with-SteepDescent/Higher-Symm/SD-CG/HFTN-CG
REM
REM
REM
REM
REM
REM ./C.cell (b20cbc046b6831c77cfcea5457e17084)
REM
REM compiler GCC version 9.2.1 20190827 (Red Hat 9.2.1-1)
REM options -cpp -mtune=generic -march=x86-64 -g -O0 -fpre-include=/usr/include/finclude/math-vector-fortran.h
REM seed -1238962047 -1595319532 -906561394 315899844 -1634777616 909134157 -1794428227 457880432 654798309 1458660128 1429217968 897454789 -2146898322 -859453471 -1634961114 -740441901 -592710872 544353287 1992622787 -544683319 -2011160923 -1115478374 -1431185869 456790352 866261156 496643151 1210524410 466278532 1024052423 1449792504 1838948324 -1045917224 -615479631
REM
CELL 1.54180   50.00000   50.00000   50.00000   90.00000   90.00000   90.00000
LATT -1
SFAC C  
C      1  0.4743470000000  0.5691570000000  0.5307740000000 1.0
C      1  0.5808920000000  0.5389950000000  0.4651560000000 1.0
C      1  0.5231290000000  0.4740390000000  0.5889940000000 1.0
C      1  0.5224580000000  0.5784800000000  0.4667020000000 1.0
C      1  0.5258110000000  0.4132580000000  0.5354200000000 1.0
C      1  0.4762550000000  0.4234910000000  0.4717590000000 1.0
C      1  0.4225220000000  0.5323140000000  0.5354590000000 1.0
C      1  0.4145880000000  0.4713680000000  0.4817320000000 1.0
C      1  0.5895200000000  0.4624750000000  0.5427320000000 1.0
C      1  0.4675380000000  0.4671250000000  0.4164590000000 1.0
C      1  0.4731800000000  0.5296010000000  0.5846440000000 1.0
C      1  0.5326330000000  0.5325070000000  0.3958340000000 1.0
C      1  0.5432160000000  0.4493910000000  0.4781800000000 1.0
C      1  0.4345690000000  0.4792930000000  0.5411700000000 1.0
C      1  0.4848140000000  0.5409250000000  0.4356430000000 1.0
C      1  0.4537280000000  0.4403610000000  0.5210760000000 1.0
C      1  0.4608920000000  0.5607440000000  0.4722270000000 1.0
C      1  0.5429890000000  0.5570390000000  0.5166670000000 1.0
C      1  0.5552510000000  0.4828960000000  0.4600220000000 1.0
C      1  0.5641720000000  0.5172580000000  0.5438980000000 1.0
C      1  0.4505860000000  0.5162640000000  0.4477590000000 1.0
C      1  0.5192720000000  0.5377620000000  0.5624620000000 1.0
C      1  0.5207610000000  0.4597520000000  0.4422800000000 1.0
C      1  0.4793290000000  0.4515300000000  0.5642580000000 1.0
C      1  0.5945340000000  0.5362540000000  0.4341260000000 1.0
C      1  0.5240500000000  0.4355310000000  0.5986570000000 1.0
C      1  0.4501350000000  0.5985620000000  0.4970270000000 1.0
C      1  0.4037960000000  0.5287330000000  0.5636150000000 1.0
C      1  0.4058980000000  0.4810120000000  0.4416790000000 1.0
C      1  0.6088680000000  0.4891410000000  0.5512070000000 1.0
C      1  0.4881090000000  0.4409000000000  0.3944010000000 1.0
C      1  0.4843720000000  0.5641180000000  0.6000600000000 1.0
C      1  0.5086770000000  0.5552900000000  0.4021820000000 1.0
C      1  0.5529070000000  0.6016960000000  0.4777800000000 1.0
C      1  0.5589370000000  0.4124630000000  0.5130870000000 1.0
C      1  0.4393250000000  0.4101790000000  0.4782340000000 1.0
C      1  0.5929810000000  0.5619690000000  0.5099150000000 1.0
C      1  0.5634610000000  0.5008910000000  0.5865270000000 1.0
C      1  0.5042570000000  0.5893850000000  0.5640510000000 1.0
C      1  0.4105630000000  0.5613710000000  0.4890300000000 1.0
C      1  0.4082120000000  0.4297270000000  0.5117050000000 1.0
C      1  0.5883510000000  0.4384000000000  0.4944250000000 1.0
C      1  0.4368630000000  0.5058020000000  0.4089940000000 1.0
C      1  0.4396070000000  0.4961580000000  0.5921180000000 1.0
C      1  0.5650280000000  0.4980550000000  0.4074810000000 1.0
C      1  0.4910490000000  0.6000050000000  0.4314200000000 1.0
C      1  0.4888130000000  0.3912900000000  0.5590970000000 1.0
C      1  0.5117340000000  0.4032600000000  0.4382750000000 1.0
C      1  0.4924640000000  0.5581480000000  0.5576200000000 1.0
C      1  0.5654480000000  0.5551050000000  0.4911800000000 1.0
C      1  0.5567620000000  0.4870080000000  0.5569500000000 1.0
C      1  0.5120300000000  0.5536530000000  0.4457880000000 1.0
C      1  0.5070850000000  0.4347760000000  0.5539310000000 1.0
C      1  0.4944710000000  0.4399250000000  0.4482190000000 1.0
C      1  0.4405680000000  0.5467970000000  0.4956570000000 1.0
C      1  0.4331460000000  0.4459390000000  0.4945850000000 1.0
C      1  0.5607800000000  0.4514750000000  0.5045760000000 1.0
C      1  0.4448640000000  0.4852930000000  0.4349170000000 1.0
C      1  0.4363110000000  0.5059860000000  0.5621590000000 1.0
C      1  0.5620580000000  0.5077370000000  0.4378200000000 1.0
C      1  0.5378150000000  0.4259770000000  0.4307130000000 1.0
C      1  0.4226270000000  0.4294400000000  0.5429980000000 1.0
C      1  0.4285490000000  0.5366220000000  0.4207280000000 1.0
C      1  0.4687090000000  0.4136440000000  0.5705140000000 1.0
C      1  0.4668420000000  0.5771790000000  0.4236300000000 1.0
C      1  0.5332670000000  0.5722850000000  0.5703610000000 1.0
C      1  0.5774570000000  0.4339420000000  0.4622240000000 1.0
C      1  0.5742900000000  0.5665540000000  0.5385670000000 1.0
C      1  0.4245520000000  0.5667220000000  0.4580610000000 1.0
C      1  0.5888950000000  0.5223470000000  0.5851720000000 1.0
C      1  0.5739150000000  0.4713320000000  0.4266020000000 1.0
C      1  0.4259460000000  0.4694140000000  0.5768570000000 1.0
C      1  0.4914000000000  0.4113860000000  0.4980280000000 1.0
C      1  0.4034450000000  0.4990170000000  0.4708190000000 1.0
C      1  0.4988960000000  0.4714560000000  0.4036330000000 1.0
C      1  0.5162050000000  0.4108290000000  0.5065720000000 1.0
C      1  0.5303760000000  0.5903060000000  0.4976600000000 1.0
C      1  0.4796160000000  0.5907880000000  0.5050090000000 1.0
C      1  0.5892680000000  0.4919580000000  0.5259630000000 1.0
C      1  0.5972580000000  0.5104250000000  0.4566200000000 1.0
C      1  0.4036130000000  0.5042970000000  0.5392080000000 1.0
C      1  0.4972740000000  0.4565030000000  0.5995520000000 1.0
C      1  0.5015300000000  0.5219850000000  0.4046680000000 1.0
C      1  0.5032040000000  0.5373100000000  0.5987150000000 1.0
C      1  0.4754760000000  0.5522830000000  0.4064340000000 1.0
C      1  0.5403530000000  0.4170690000000  0.4883410000000 1.0
C      1  0.4032700000000  0.4759350000000  0.5540520000000 1.0
C      1  0.5349590000000  0.5465890000000  0.5908620000000 1.0
C      1  0.5239080000000  0.4493290000000  0.4100680000000 1.0
C      1  0.4699760000000  0.4371200000000  0.5935990000000 1.0
C      1  0.4585360000000  0.4111860000000  0.5053600000000 1.0
C      1  0.4446470000000  0.5903500000000  0.4682180000000 1.0
C      1  0.5538830000000  0.5887720000000  0.5221890000000 1.0
C      1  0.5942430000000  0.4795620000000  0.4493560000000 1.0
C      1  0.5960690000000  0.5177620000000  0.5556650000000 1.0
C      1  0.4172550000000  0.5130420000000  0.4430880000000 1.0
C      1  0.5339490000000  0.4929160000000  0.5347220000000 1.0
C      1  0.4824750000000  0.5272550000000  0.5520090000000 1.0
C      1  0.5341010000000  0.5506430000000  0.4787920000000 1.0
C      1  0.4439350000000  0.4827110000000  0.4688180000000 1.0
C      1  0.4513080000000  0.5144100000000  0.5328260000000 1.0
C      1  0.5416250000000  0.5139760000000  0.4626290000000 1.0
C      1  0.5110210000000  0.5242420000000  0.4609460000000 1.0
C      1  0.5157990000000  0.4668970000000  0.5584660000000 1.0
C      1  0.4775150000000  0.4667060000000  0.4483110000000 1.0
C      1  0.4704820000000  0.5408230000000  0.5106750000000 1.0
C      1  0.4649980000000  0.4529090000000  0.4849180000000 1.0
C      1  0.5347270000000  0.4661990000000  0.5143770000000 1.0
C      1  0.4715690000000  0.4083800000000  0.5367650000000 1.0
C      1  0.4104100000000  0.5378530000000  0.4653890000000 1.0
C      1  0.5429710000000  0.4757210000000  0.4132080000000 1.0
C      1  0.5275010000000  0.4176260000000  0.4604900000000 1.0
C      1  0.5264330000000  0.5849050000000  0.5400380000000 1.0
C      1  0.4670030000000  0.5955650000000  0.4499660000000 1.0
C      1  0.5929770000000  0.5389220000000  0.5319650000000 1.0
C      1  0.5922620000000  0.4611820000000  0.4695030000000 1.0
C      1  0.4048260000000  0.4537130000000  0.5339590000000 1.0
C      1  0.4556390000000  0.4675820000000  0.5917300000000 1.0
C      1  0.4518480000000  0.5374100000000  0.3974300000000 1.0
C      1  0.5597960000000  0.5327400000000  0.5961620000000 1.0
C      1  0.4851700000000  0.4814240000000  0.5793930000000 1.0
C      1  0.4905980000000  0.5653740000000  0.4868930000000 1.0
C      1  0.5755980000000  0.5018940000000  0.4796080000000 1.0
C      1  0.5147870000000  0.4893010000000  0.4280780000000 1.0
C      1  0.5065480000000  0.5099400000000  0.5787650000000 1.0
C      1  0.4879810000000  0.5100260000000  0.4315410000000 1.0
C      1  0.5107330000000  0.5675510000000  0.5143080000000 1.0
C      1  0.5117810000000  0.4427920000000  0.4773490000000 1.0
C      1  0.4853660000000  0.4376130000000  0.5274140000000 1.0
C      1  0.4233250000000  0.4946800000000  0.5129940000000 1.0
C      1  0.4240050000000  0.5176480000000  0.4891230000000 1.0
C      1  0.5723320000000  0.5145770000000  0.5109930000000 1.0
C      1  0.5518010000000  0.4353030000000  0.5331520000000 1.0
C      1  0.4364690000000  0.5402820000000  0.5654390000000 1.0
C      1  0.5352320000000  0.5501290000000  0.4244490000000 1.0
C      1  0.4310180000000  0.4358880000000  0.4621570000000 1.0
C      1  0.4446760000000  0.5744450000000  0.5150300000000 1.0
C      1  0.5710720000000  0.5842750000000  0.4746340000000 1.0
C      1  0.5605160000000  0.5407850000000  0.4379780000000 1.0
C      1  0.5604470000000  0.4532090000000  0.5572870000000 1.0
C      1  0.4267300000000  0.4576620000000  0.4430250000000 1.0
C      1  0.4626720000000  0.5591560000000  0.5743590000000 1.0
C      1  0.4746970000000  0.4341680000000  0.4208120000000 1.0
C      1  0.5357210000000  0.4352330000000  0.5722830000000 1.0
C      1  0.4431700000000  0.4783650000000  0.3955790000000 1.0
C      1  0.4848130000000  0.4013690000000  0.4473320000000 1.0
C      1  0.3937890000000  0.4498770000000  0.4894390000000 1.0
C      1  0.5458650000000  0.4812700000000  0.6017650000000 1.0
C      1  0.5574290000000  0.5170830000000  0.3882970000000 1.0
C      1  0.4557090000000  0.5169070000000  0.6031500000000 1.0
C      1  0.5152960000000  0.3898840000000  0.5540070000000 1.0
C      1  0.5155050000000  0.5987070000000  0.4427460000000 1.0
C      1  0.4755330000000  0.5955420000000  0.5521930000000 1.0
C      1  0.6005030000000  0.4402810000000  0.5234150000000 1.0
C      1  0.6040050000000  0.5582360000000  0.4810250000000 1.0
C      1  0.4091100000000  0.5556390000000  0.5185650000000 1.0
C      1  0.4517860000000  0.4808000000000  0.5002580000000 1.0
C      1  0.4743410000000  0.4963370000000  0.4595250000000 1.0
C      1  0.4950960000000  0.4613590000000  0.4945810000000 1.0
C      1  0.5278220000000  0.4976430000000  0.5034310000000 1.0
C      1  0.5439950000000  0.5216320000000  0.4935670000000 1.0
C      1  0.4723280000000  0.5070170000000  0.5071180000000 1.0
C      1  0.5069610000000  0.4961740000000  0.5493710000000 1.0
C      1  0.5080840000000  0.4925200000000  0.4612640000000 1.0
C      1  0.4731280000000  0.4956630000000  0.5509540000000 1.0
C      1  0.5040440000000  0.4635190000000  0.5267290000000 1.0
C      1  0.5062930000000  0.5355280000000  0.4912460000000 1.0
C      1  0.5004050000000  0.5368660000000  0.5247260000000 1.0
C      1  0.4476750000000  0.4507980000000  0.5517590000000 1.0
C      1  0.4524000000000  0.5495890000000  0.4412360000000 1.0
C      1  0.5536700000000  0.4519800000000  0.4459200000000 1.0
C      1  0.5486150000000  0.5460230000000  0.5473690000000 1.0
C      1  0.4979510000000  0.4935870000000  0.4932790000000 1.0
END
