TITL C-3289323-3850-321 -0.00182870454475864 125000 -578.231436690391 0 0 107 (C1) n - 1
REM
REM in /nfs/bkarasulu/CARBON/AIRSS/Generating-Clusters/AIREBO/with-SteepDescent/Higher-Symm/SD-CG/HFTN-CG
REM
REM
REM
REM
REM
REM ./C.cell (b20cbc046b6831c77cfcea5457e17084)
REM
REM compiler GCC version 9.2.1 20190827 (Red Hat 9.2.1-1)
REM options -cpp -mtune=generic -march=x86-64 -g -O0 -fpre-include=/usr/include/finclude/math-vector-fortran.h
REM seed 254009665 -1143860125 435594655 39809639 1171411443 -357458912 2001046702 -862316083 2071177125 2124701831 1384770187 439431028 1509189745 -551865367 1295733608 -1276894132 -210573070 288432215 52163082 -540850963 1622510389 -1340046412 334127483 1549929751 -1973488139 315747264 495732600 -1570233557 2075087630 1243852611 -402565811 128342280 -2136688634
REM
CELL 1.54180   50.00000   50.00000   50.00000   90.00000   90.00000   90.00000
LATT -1
SFAC C  
C      1  0.5085290000000  0.5390490000000  0.4279590000000 1.0
C      1  0.5235290000000  0.4361110000000  0.5912950000000 1.0
C      1  0.4845510000000  0.5545590000000  0.5764720000000 1.0
C      1  0.5190920000000  0.4448710000000  0.4199840000000 1.0
C      1  0.4173500000000  0.5024700000000  0.4745450000000 1.0
C      1  0.5851090000000  0.4936890000000  0.5196540000000 1.0
C      1  0.4414990000000  0.5234470000000  0.4628990000000 1.0
C      1  0.5601840000000  0.4772130000000  0.5316560000000 1.0
C      1  0.4584100000000  0.5226850000000  0.5514060000000 1.0
C      1  0.5400390000000  0.4740620000000  0.4485580000000 1.0
C      1  0.5133950000000  0.5057600000000  0.4218580000000 1.0
C      1  0.4920830000000  0.4903770000000  0.5759770000000 1.0
C      1  0.5750330000000  0.5458770000000  0.5272010000000 1.0
C      1  0.4206480000000  0.4518070000000  0.4813440000000 1.0
C      1  0.4526220000000  0.5036190000000  0.4385560000000 1.0
C      1  0.5484660000000  0.4956660000000  0.5563380000000 1.0
C      1  0.5526990000000  0.4261550000000  0.5301810000000 1.0
C      1  0.4451790000000  0.5746400000000  0.4623260000000 1.0
C      1  0.4663280000000  0.5911210000000  0.4720950000000 1.0
C      1  0.5336420000000  0.4094090000000  0.5208830000000 1.0
C      1  0.4758460000000  0.4604180000000  0.5158920000000 1.0
C      1  0.5213410000000  0.5396860000000  0.4809570000000 1.0
C      1  0.4615260000000  0.4319260000000  0.4549040000000 1.0
C      1  0.5403880000000  0.5685950000000  0.5597800000000 1.0
C      1  0.4557420000000  0.4508670000000  0.5364050000000 1.0
C      1  0.5418910000000  0.5515450000000  0.4596250000000 1.0
C      1  0.4888160000000  0.4773970000000  0.4379780000000 1.0
C      1  0.5137360000000  0.5216080000000  0.5618870000000 1.0
C      1  0.4886880000000  0.6030780000000  0.4582990000000 1.0
C      1  0.5031240000000  0.4044740000000  0.5271450000000 1.0
C      1  0.5633800000000  0.5149230000000  0.4447870000000 1.0
C      1  0.4442130000000  0.4693860000000  0.5698600000000 1.0
C      1  0.4254190000000  0.4568870000000  0.5111970000000 1.0
C      1  0.5722290000000  0.5476320000000  0.4951070000000 1.0
C      1  0.5321210000000  0.5785060000000  0.4779400000000 1.0
C      1  0.4566820000000  0.4191490000000  0.5350570000000 1.0
C      1  0.5141530000000  0.5486430000000  0.5230370000000 1.0
C      1  0.4828070000000  0.4558810000000  0.4829170000000 1.0
C      1  0.4879710000000  0.5450080000000  0.4792430000000 1.0
C      1  0.5065830000000  0.4494180000000  0.5143780000000 1.0
C      1  0.5697990000000  0.4503130000000  0.4780670000000 1.0
C      1  0.4303640000000  0.5498400000000  0.5172830000000 1.0
C      1  0.4646400000000  0.4823770000000  0.4148810000000 1.0
C      1  0.5382650000000  0.5129240000000  0.5838020000000 1.0
C      1  0.4947140000000  0.5577810000000  0.4497160000000 1.0
C      1  0.4991390000000  0.4493270000000  0.5476690000000 1.0
C      1  0.5383560000000  0.5314090000000  0.5209530000000 1.0
C      1  0.4605820000000  0.4772160000000  0.4774340000000 1.0
C      1  0.5069320000000  0.5018370000000  0.5391140000000 1.0
C      1  0.4909330000000  0.5004110000000  0.4593660000000 1.0
C      1  0.5112610000000  0.4732990000000  0.4906200000000 1.0
C      1  0.4918870000000  0.5317180000000  0.5099970000000 1.0
C      1  0.5670240000000  0.5179230000000  0.4844720000000 1.0
C      1  0.4318350000000  0.4887640000000  0.5211570000000 1.0
C      1  0.5392000000000  0.4588060000000  0.4889170000000 1.0
C      1  0.4621140000000  0.5432250000000  0.5095050000000 1.0
C      1  0.4381390000000  0.4284020000000  0.4719170000000 1.0
C      1  0.5578820000000  0.5736130000000  0.5373200000000 1.0
C      1  0.5221110000000  0.4845540000000  0.5739850000000 1.0
C      1  0.4800300000000  0.5122070000000  0.4207390000000 1.0
C      1  0.4934000000000  0.4169720000000  0.4696430000000 1.0
C      1  0.4911020000000  0.5807050000000  0.5170390000000 1.0
C      1  0.4398310000000  0.5500110000000  0.4845990000000 1.0
C      1  0.5613790000000  0.4501770000000  0.5110680000000 1.0
C      1  0.5211440000000  0.5771370000000  0.5100410000000 1.0
C      1  0.4716180000000  0.4255940000000  0.4929710000000 1.0
C      1  0.5555690000000  0.5251830000000  0.5458970000000 1.0
C      1  0.4463790000000  0.4752350000000  0.4495690000000 1.0
C      1  0.5489870000000  0.4498460000000  0.5490170000000 1.0
C      1  0.4501650000000  0.5504180000000  0.4443690000000 1.0
C      1  0.4858690000000  0.4200510000000  0.5419900000000 1.0
C      1  0.5087010000000  0.5838300000000  0.4562910000000 1.0
C      1  0.5225880000000  0.4959340000000  0.4678840000000 1.0
C      1  0.4734190000000  0.4983160000000  0.5344720000000 1.0
C      1  0.4748600000000  0.5447940000000  0.4258180000000 1.0
C      1  0.5240640000000  0.4537280000000  0.5663450000000 1.0
C      1  0.5306700000000  0.5213000000000  0.4466990000000 1.0
C      1  0.4750960000000  0.4716450000000  0.5551150000000 1.0
C      1  0.4707180000000  0.5157010000000  0.4784740000000 1.0
C      1  0.5323640000000  0.4919630000000  0.5188050000000 1.0
C      1  0.4211600000000  0.4754280000000  0.4660710000000 1.0
C      1  0.5921820000000  0.5173690000000  0.5320950000000 1.0
C      1  0.5468300000000  0.5420740000000  0.5710160000000 1.0
C      1  0.4565490000000  0.4524690000000  0.4294560000000 1.0
C      1  0.4425860000000  0.4289360000000  0.5057000000000 1.0
C      1  0.5525570000000  0.5695360000000  0.5040840000000 1.0
C      1  0.4602370000000  0.4949990000000  0.5034130000000 1.0
C      1  0.5372420000000  0.5135640000000  0.4929950000000 1.0
C      1  0.4785290000000  0.5749770000000  0.4922890000000 1.0
C      1  0.5105050000000  0.4196770000000  0.4983860000000 1.0
C      1  0.4149800000000  0.5248940000000  0.5236520000000 1.0
C      1  0.5826920000000  0.4766890000000  0.4702880000000 1.0
C      1  0.5412500000000  0.4436590000000  0.4600940000000 1.0
C      1  0.4565490000000  0.5525600000000  0.5397400000000 1.0
C      1  0.4897040000000  0.4502690000000  0.4514790000000 1.0
C      1  0.5105490000000  0.5545700000000  0.5545300000000 1.0
C      1  0.4265430000000  0.4646430000000  0.5445440000000 1.0
C      1  0.5745290000000  0.5422230000000  0.4616190000000 1.0
C      1  0.5182830000000  0.4747100000000  0.4246820000000 1.0
C      1  0.4818980000000  0.5212310000000  0.5733050000000 1.0
C      1  0.5840060000000  0.4949810000000  0.4913130000000 1.0
C      1  0.4108660000000  0.5057660000000  0.5011380000000 1.0
C      1  0.5160380000000  0.4302310000000  0.4479810000000 1.0
C      1  0.4819280000000  0.5708130000000  0.5459410000000 1.0
C      1  0.5679350000000  0.4870960000000  0.4481600000000 1.0
C      1  0.4299030000000  0.5114020000000  0.5465500000000 1.0
C      1  0.5016770000000  0.5017000000000  0.5066750000000 1.0
END
