TITL C-3289333-7213-188 -0.00311946327343656 125000 -1028.58652880369 0 0 195 (C1) n - 1
REM
REM in /nfs/bkarasulu/CARBON/AIRSS/Generating-Clusters/AIREBO/with-SteepDescent/Higher-Symm/SD-CG/HFTN-CG
REM
REM
REM
REM
REM
REM ./C.cell (b20cbc046b6831c77cfcea5457e17084)
REM
REM compiler GCC version 9.2.1 20190827 (Red Hat 9.2.1-1)
REM options -cpp -mtune=generic -march=x86-64 -g -O0 -fpre-include=/usr/include/finclude/math-vector-fortran.h
REM seed -1911444657 510238227 154836375 2025978966 279252542 -1063692831 -577048311 1373531765 431663993 -555807303 -1652307645 -1719509665 -1566267149 -539808941 -1625438360 1372317043 815684356 2041062152 -1274659610 -1089934793 -327262006 386176514 1957476104 558811560 -863089185 -1945497114 15972194 1116807368 135518129 153118374 563024285 764949024 -395177291
REM
CELL 1.54180   50.00000   50.00000   50.00000   90.00000   90.00000   90.00000
LATT -1
SFAC C  
C      1  0.5314030000000  0.4013580000000  0.5116300000000 1.0
C      1  0.5522230000000  0.6014360000000  0.4726230000000 1.0
C      1  0.5524030000000  0.5944930000000  0.5189600000000 1.0
C      1  0.5447310000000  0.3922900000000  0.4632320000000 1.0
C      1  0.5124710000000  0.5487740000000  0.5918000000000 1.0
C      1  0.5218500000000  0.4714940000000  0.4050880000000 1.0
C      1  0.5352500000000  0.4693300000000  0.6004750000000 1.0
C      1  0.5114170000000  0.5560230000000  0.4063860000000 1.0
C      1  0.4860280000000  0.4131540000000  0.4791020000000 1.0
C      1  0.4933790000000  0.5747190000000  0.5315390000000 1.0
C      1  0.4919230000000  0.5905770000000  0.4706580000000 1.0
C      1  0.4964040000000  0.4290690000000  0.5342760000000 1.0
C      1  0.4562950000000  0.5535100000000  0.5856810000000 1.0
C      1  0.4693790000000  0.4466420000000  0.4084230000000 1.0
C      1  0.4694970000000  0.4424250000000  0.5947610000000 1.0
C      1  0.4696220000000  0.5567740000000  0.4135510000000 1.0
C      1  0.4620640000000  0.4205940000000  0.5697730000000 1.0
C      1  0.4703140000000  0.5740120000000  0.4417100000000 1.0
C      1  0.4765760000000  0.5718430000000  0.5716180000000 1.0
C      1  0.4641330000000  0.4303520000000  0.4374670000000 1.0
C      1  0.4563500000000  0.5406510000000  0.5165250000000 1.0
C      1  0.4478600000000  0.4522330000000  0.4790920000000 1.0
C      1  0.4560650000000  0.4615890000000  0.5295890000000 1.0
C      1  0.4395310000000  0.5442950000000  0.4871770000000 1.0
C      1  0.4353480000000  0.4339950000000  0.5527950000000 1.0
C      1  0.4328070000000  0.5633000000000  0.4514210000000 1.0
C      1  0.4248180000000  0.5555560000000  0.5433900000000 1.0
C      1  0.4329520000000  0.4343550000000  0.4466870000000 1.0
C      1  0.5198970000000  0.6070840000000  0.4668740000000 1.0
C      1  0.5153520000000  0.4036800000000  0.5378290000000 1.0
C      1  0.5117800000000  0.4014760000000  0.4633400000000 1.0
C      1  0.5198400000000  0.5959020000000  0.5286520000000 1.0
C      1  0.3997050000000  0.4708880000000  0.4748770000000 1.0
C      1  0.3921970000000  0.5325740000000  0.5230110000000 1.0
C      1  0.3912120000000  0.5258930000000  0.4752490000000 1.0
C      1  0.4040800000000  0.4704080000000  0.5197580000000 1.0
C      1  0.5585590000000  0.5411800000000  0.5204960000000 1.0
C      1  0.5524540000000  0.4767800000000  0.4689920000000 1.0
C      1  0.5522000000000  0.4665040000000  0.5139370000000 1.0
C      1  0.5510470000000  0.5432830000000  0.4769180000000 1.0
C      1  0.5207510000000  0.4808300000000  0.4744610000000 1.0
C      1  0.5081610000000  0.5058550000000  0.5238380000000 1.0
C      1  0.5104020000000  0.5132180000000  0.4745810000000 1.0
C      1  0.5000220000000  0.4784850000000  0.5382540000000 1.0
C      1  0.5069770000000  0.4657320000000  0.4312140000000 1.0
C      1  0.5109530000000  0.5129550000000  0.5542680000000 1.0
C      1  0.5172680000000  0.5208730000000  0.4428680000000 1.0
C      1  0.5039390000000  0.4786600000000  0.5720360000000 1.0
C      1  0.4822990000000  0.4749920000000  0.4097300000000 1.0
C      1  0.4827220000000  0.5331020000000  0.5893520000000 1.0
C      1  0.4855370000000  0.5284890000000  0.4186750000000 1.0
C      1  0.4809860000000  0.4731290000000  0.5965940000000 1.0
C      1  0.4882070000000  0.4744570000000  0.4674840000000 1.0
C      1  0.4837380000000  0.5228970000000  0.5195730000000 1.0
C      1  0.4814730000000  0.5271680000000  0.4799580000000 1.0
C      1  0.4765240000000  0.4815390000000  0.5169640000000 1.0
C      1  0.4466310000000  0.5906200000000  0.5292500000000 1.0
C      1  0.4556050000000  0.3994260000000  0.4725990000000 1.0
C      1  0.4565000000000  0.3934920000000  0.5188730000000 1.0
C      1  0.4435880000000  0.5973140000000  0.4741980000000 1.0
C      1  0.5460410000000  0.4340580000000  0.4397140000000 1.0
C      1  0.5488340000000  0.5718000000000  0.5635100000000 1.0
C      1  0.5418910000000  0.5697090000000  0.4358480000000 1.0
C      1  0.5512450000000  0.4430210000000  0.5592050000000 1.0
C      1  0.4770060000000  0.4424840000000  0.4644100000000 1.0
C      1  0.4718770000000  0.5513890000000  0.5448410000000 1.0
C      1  0.4613700000000  0.5476760000000  0.4613060000000 1.0
C      1  0.4737140000000  0.4448240000000  0.5508840000000 1.0
C      1  0.4315110000000  0.5531550000000  0.5733740000000 1.0
C      1  0.4374040000000  0.4504500000000  0.4161750000000 1.0
C      1  0.4376590000000  0.4479400000000  0.5841190000000 1.0
C      1  0.4384550000000  0.5570800000000  0.4212100000000 1.0
C      1  0.4081380000000  0.5327250000000  0.5716420000000 1.0
C      1  0.4226530000000  0.4757230000000  0.4162520000000 1.0
C      1  0.4362400000000  0.4808650000000  0.5808160000000 1.0
C      1  0.4215890000000  0.5306370000000  0.4286060000000 1.0
C      1  0.4999700000000  0.5412040000000  0.5610850000000 1.0
C      1  0.5087730000000  0.4439270000000  0.4523330000000 1.0
C      1  0.5176810000000  0.4501710000000  0.5785390000000 1.0
C      1  0.5022240000000  0.5503690000000  0.4386550000000 1.0
C      1  0.5912860000000  0.4329620000000  0.4575550000000 1.0
C      1  0.5908370000000  0.5643540000000  0.5233510000000 1.0
C      1  0.5874780000000  0.5637890000000  0.4726180000000 1.0
C      1  0.5979890000000  0.4267790000000  0.5107670000000 1.0
C      1  0.4643890000000  0.4858400000000  0.4359890000000 1.0
C      1  0.4584670000000  0.5236040000000  0.5592120000000 1.0
C      1  0.4603270000000  0.5255690000000  0.4367250000000 1.0
C      1  0.4655150000000  0.4710990000000  0.5672400000000 1.0
C      1  0.4284930000000  0.5249740000000  0.4614140000000 1.0
C      1  0.4297080000000  0.4674400000000  0.5502570000000 1.0
C      1  0.4332130000000  0.4673460000000  0.4537470000000 1.0
C      1  0.4307370000000  0.5264340000000  0.5306390000000 1.0
C      1  0.5906040000000  0.5252180000000  0.5615610000000 1.0
C      1  0.5888760000000  0.4567600000000  0.4353130000000 1.0
C      1  0.5925340000000  0.4664140000000  0.5392540000000 1.0
C      1  0.5905810000000  0.5182650000000  0.4499310000000 1.0
C      1  0.5471900000000  0.4753570000000  0.5690130000000 1.0
C      1  0.5402870000000  0.5425930000000  0.4304030000000 1.0
C      1  0.5459160000000  0.5416520000000  0.5627290000000 1.0
C      1  0.5577440000000  0.4656890000000  0.4388400000000 1.0
C      1  0.3932750000000  0.5353810000000  0.4456040000000 1.0
C      1  0.3968060000000  0.4597710000000  0.5464170000000 1.0
C      1  0.4022490000000  0.4723450000000  0.4406190000000 1.0
C      1  0.3896020000000  0.5375220000000  0.5506040000000 1.0
C      1  0.4640060000000  0.6004640000000  0.4571910000000 1.0
C      1  0.4874350000000  0.3902080000000  0.5314290000000 1.0
C      1  0.4495020000000  0.3777710000000  0.4597390000000 1.0
C      1  0.4686830000000  0.5959110000000  0.5408650000000 1.0
C      1  0.5162870000000  0.4180740000000  0.4357610000000 1.0
C      1  0.5238950000000  0.5863130000000  0.5610380000000 1.0
C      1  0.5154950000000  0.5883690000000  0.4384520000000 1.0
C      1  0.5267630000000  0.4201840000000  0.5652900000000 1.0
C      1  0.5040040000000  0.5769180000000  0.5784070000000 1.0
C      1  0.4900430000000  0.4210710000000  0.4178730000000 1.0
C      1  0.4945590000000  0.4252290000000  0.5786720000000 1.0
C      1  0.4923030000000  0.5820520000000  0.4170480000000 1.0
C      1  0.5544060000000  0.4909730000000  0.4174200000000 1.0
C      1  0.5560510000000  0.5335680000000  0.5900230000000 1.0
C      1  0.5577260000000  0.5300140000000  0.4097420000000 1.0
C      1  0.5572100000000  0.4940730000000  0.5942810000000 1.0
C      1  0.5149990000000  0.5675480000000  0.4652660000000 1.0
C      1  0.5154500000000  0.4522490000000  0.5445400000000 1.0
C      1  0.5264910000000  0.4475070000000  0.4780210000000 1.0
C      1  0.5170670000000  0.5503940000000  0.5333730000000 1.0
C      1  0.6088860000000  0.4469950000000  0.5266020000000 1.0
C      1  0.5924930000000  0.5361670000000  0.4749550000000 1.0
C      1  0.6007920000000  0.5367930000000  0.5344360000000 1.0
C      1  0.5908490000000  0.4657780000000  0.4677240000000 1.0
C      1  0.4135890000000  0.5700660000000  0.4710160000000 1.0
C      1  0.4208780000000  0.4301200000000  0.5224660000000 1.0
C      1  0.4186870000000  0.4250560000000  0.4735600000000 1.0
C      1  0.4139600000000  0.5695570000000  0.5206520000000 1.0
C      1  0.5278160000000  0.5035580000000  0.4003220000000 1.0
C      1  0.5328250000000  0.5302890000000  0.6053880000000 1.0
C      1  0.5287410000000  0.5362050000000  0.3930680000000 1.0
C      1  0.5232630000000  0.5005940000000  0.6064760000000 1.0
C      1  0.5620540000000  0.5698050000000  0.5366010000000 1.0
C      1  0.5640560000000  0.4159480000000  0.4609350000000 1.0
C      1  0.5660370000000  0.4575960000000  0.5385770000000 1.0
C      1  0.5594980000000  0.5714300000000  0.4595270000000 1.0
C      1  0.5927810000000  0.4982610000000  0.5409400000000 1.0
C      1  0.5876420000000  0.4951130000000  0.4737850000000 1.0
C      1  0.4819830000000  0.3872670000000  0.5007130000000 1.0
C      1  0.4770690000000  0.6114120000000  0.5052150000000 1.0
C      1  0.4810490000000  0.5780420000000  0.5000150000000 1.0
C      1  0.4884220000000  0.4331020000000  0.5056680000000 1.0
C      1  0.5416050000000  0.5078980000000  0.5605630000000 1.0
C      1  0.5443180000000  0.5052780000000  0.4434760000000 1.0
C      1  0.4394230000000  0.4994270000000  0.5447230000000 1.0
C      1  0.4453700000000  0.4956010000000  0.4584840000000 1.0
C      1  0.5625010000000  0.5126040000000  0.5362380000000 1.0
C      1  0.5580150000000  0.5103570000000  0.4715820000000 1.0
C      1  0.4181520000000  0.4508930000000  0.4956670000000 1.0
C      1  0.4067960000000  0.5472530000000  0.4960100000000 1.0
C      1  0.4802140000000  0.5015720000000  0.5638560000000 1.0
C      1  0.4953310000000  0.4951480000000  0.4414420000000 1.0
C      1  0.4961270000000  0.5474920000000  0.4994990000000 1.0
C      1  0.4930180000000  0.4642340000000  0.4979540000000 1.0
C      1  0.4057860000000  0.4998320000000  0.4580940000000 1.0
C      1  0.4059670000000  0.5041150000000  0.5238130000000 1.0
C      1  0.5311810000000  0.6092160000000  0.4988790000000 1.0
C      1  0.5271600000000  0.3851810000000  0.4889120000000 1.0
C      1  0.5293620000000  0.5411620000000  0.5030460000000 1.0
C      1  0.5223900000000  0.4534440000000  0.5112650000000 1.0
C      1  0.5665810000000  0.4569410000000  0.4886130000000 1.0
C      1  0.5864000000000  0.5296580000000  0.5044670000000 1.0
C      1  0.4179290000000  0.5924830000000  0.4961610000000 1.0
C      1  0.4394540000000  0.4146110000000  0.4983800000000 1.0
C      1  0.5365120000000  0.5704800000000  0.4914750000000 1.0
C      1  0.5417650000000  0.4273440000000  0.5012460000000 1.0
C      1  0.5803500000000  0.5155160000000  0.5875260000000 1.0
C      1  0.5785940000000  0.5136990000000  0.4249040000000 1.0
C      1  0.5725870000000  0.4264150000000  0.4921380000000 1.0
C      1  0.5697210000000  0.5741230000000  0.4979520000000 1.0
C      1  0.4628960000000  0.5062970000000  0.3942890000000 1.0
C      1  0.4582770000000  0.5053280000000  0.6033230000000 1.0
C      1  0.4948150000000  0.5044370000000  0.4014880000000 1.0
C      1  0.4914420000000  0.5032530000000  0.6031340000000 1.0
C      1  0.4341410000000  0.5140360000000  0.5810030000000 1.0
C      1  0.4404890000000  0.5037830000000  0.4197460000000 1.0
C      1  0.4471580000000  0.5753030000000  0.4988980000000 1.0
C      1  0.4581150000000  0.4413790000000  0.5063870000000 1.0
C      1  0.6672310000000  0.4660560000000  0.5010240000000 1.0
C      1  0.3843740000000  0.4965690000000  0.4910580000000 1.0
C      1  0.6913730000000  0.4566610000000  0.4970440000000 1.0
C      1  0.3326310000000  0.4878190000000  0.5086060000000 1.0
C      1  0.5867390000000  0.4983270000000  0.5074770000000 1.0
C      1  0.4660960000000  0.5050360000000  0.4998950000000 1.0
C      1  0.5529270000000  0.4960720000000  0.5105490000000 1.0
C      1  0.4179320000000  0.4990990000000  0.4959870000000 1.0
C      1  0.3568900000000  0.4919040000000  0.5018130000000 1.0
C      1  0.5277620000000  0.5088110000000  0.5019330000000 1.0
C      1  0.6432530000000  0.4774180000000  0.5032950000000 1.0
C      1  0.4414550000000  0.4986670000000  0.4881980000000 1.0
C      1  0.6184720000000  0.4863170000000  0.5052870000000 1.0
END
