TITL C-3289320-4661-604 -0.00315435204389471 125000 -691.847982981674 0 0 124 (C1) n - 1
REM
REM in /nfs/bkarasulu/CARBON/AIRSS/Generating-Clusters/AIREBO/with-SteepDescent/Higher-Symm/SD-CG/HFTN-CG
REM
REM
REM
REM
REM
REM ./C.cell (b20cbc046b6831c77cfcea5457e17084)
REM
REM compiler GCC version 9.2.1 20190827 (Red Hat 9.2.1-1)
REM options -cpp -mtune=generic -march=x86-64 -g -O0 -fpre-include=/usr/include/finclude/math-vector-fortran.h
REM seed -41164220 -1201833744 321139737 762296497 -2069676274 84154641 1432528573 827420713 141721172 126603664 1976864202 -246116967 -1854542357 -2027274717 -1202339933 -498001079 -2099159827 -881807288 519564050 -1983098702 -1227311939 -1286798532 -245761365 -1891498101 -370962303 -1887827235 -956200007 1669518992 2022480763 -941812765 27440537 -539941 -1153972288
REM
CELL 1.54180   50.00000   50.00000   50.00000   90.00000   90.00000   90.00000
LATT -1
SFAC C  
C      1  0.4893460000000  0.5625210000000  0.4815680000000 1.0
C      1  0.4814850000000  0.5635450000000  0.5329530000000 1.0
C      1  0.5246940000000  0.5579800000000  0.5001510000000 1.0
C      1  0.5154100000000  0.5515420000000  0.4683650000000 1.0
C      1  0.5130580000000  0.5523410000000  0.5294890000000 1.0
C      1  0.4809830000000  0.5482530000000  0.5059920000000 1.0
C      1  0.5429110000000  0.4799990000000  0.4572380000000 1.0
C      1  0.4215930000000  0.4641250000000  0.4749640000000 1.0
C      1  0.5294240000000  0.4781500000000  0.5730790000000 1.0
C      1  0.4595640000000  0.4786430000000  0.4499230000000 1.0
C      1  0.5721930000000  0.4707410000000  0.4863340000000 1.0
C      1  0.4800230000000  0.4892440000000  0.5664440000000 1.0
C      1  0.5511620000000  0.5076010000000  0.4119780000000 1.0
C      1  0.4019330000000  0.5179130000000  0.5032820000000 1.0
C      1  0.5795710000000  0.5178220000000  0.5711520000000 1.0
C      1  0.4412810000000  0.5090260000000  0.4189120000000 1.0
C      1  0.6050450000000  0.5132650000000  0.5082310000000 1.0
C      1  0.4229370000000  0.5152560000000  0.5714790000000 1.0
C      1  0.5168890000000  0.5191700000000  0.4736130000000 1.0
C      1  0.4701500000000  0.5183930000000  0.5021110000000 1.0
C      1  0.5152300000000  0.5196510000000  0.5301350000000 1.0
C      1  0.4848310000000  0.5142870000000  0.4728120000000 1.0
C      1  0.5337780000000  0.5247000000000  0.5023800000000 1.0
C      1  0.4832180000000  0.5121330000000  0.5312790000000 1.0
C      1  0.4685280000000  0.5634280000000  0.5780840000000 1.0
C      1  0.5780730000000  0.5514560000000  0.4878520000000 1.0
C      1  0.4327080000000  0.5528390000000  0.4474420000000 1.0
C      1  0.5307310000000  0.5541370000000  0.5759380000000 1.0
C      1  0.4239600000000  0.5622230000000  0.4883310000000 1.0
C      1  0.5617470000000  0.5476010000000  0.4443380000000 1.0
C      1  0.5301760000000  0.4745260000000  0.5055840000000 1.0
C      1  0.4887840000000  0.4822530000000  0.4775600000000 1.0
C      1  0.4838570000000  0.4790430000000  0.5359570000000 1.0
C      1  0.4638890000000  0.4849690000000  0.5018290000000 1.0
C      1  0.5217470000000  0.4860700000000  0.4795880000000 1.0
C      1  0.5137830000000  0.4868010000000  0.5273190000000 1.0
C      1  0.4738080000000  0.4576480000000  0.5715250000000 1.0
C      1  0.5623500000000  0.4444470000000  0.4730900000000 1.0
C      1  0.4552210000000  0.4473430000000  0.4469310000000 1.0
C      1  0.5040650000000  0.4573960000000  0.5670990000000 1.0
C      1  0.4356650000000  0.4392010000000  0.4685620000000 1.0
C      1  0.5495430000000  0.4519440000000  0.4436370000000 1.0
C      1  0.4382320000000  0.5353020000000  0.5600160000000 1.0
C      1  0.5830280000000  0.5315770000000  0.5217510000000 1.0
C      1  0.4611430000000  0.5323990000000  0.4284930000000 1.0
C      1  0.5614210000000  0.5348390000000  0.5594510000000 1.0
C      1  0.4139360000000  0.5406360000000  0.5199260000000 1.0
C      1  0.5339860000000  0.5351230000000  0.4187890000000 1.0
C      1  0.5597270000000  0.4810600000000  0.5162500000000 1.0
C      1  0.4855030000000  0.4873390000000  0.4304200000000 1.0
C      1  0.4513370000000  0.4972740000000  0.5500220000000 1.0
C      1  0.4413470000000  0.4864350000000  0.5235340000000 1.0
C      1  0.5173270000000  0.4849850000000  0.4340650000000 1.0
C      1  0.5481010000000  0.4900590000000  0.5470560000000 1.0
C      1  0.4529290000000  0.4288700000000  0.4888560000000 1.0
C      1  0.5383910000000  0.4297210000000  0.5397110000000 1.0
C      1  0.5187730000000  0.4045640000000  0.4495460000000 1.0
C      1  0.5469260000000  0.4279470000000  0.4899040000000 1.0
C      1  0.4648520000000  0.4281830000000  0.5405270000000 1.0
C      1  0.4891520000000  0.4230680000000  0.4474900000000 1.0
C      1  0.4829390000000  0.4506850000000  0.4663480000000 1.0
C      1  0.4815140000000  0.4494570000000  0.5252600000000 1.0
C      1  0.5232160000000  0.4447930000000  0.5031640000000 1.0
C      1  0.5287360000000  0.4315770000000  0.4544810000000 1.0
C      1  0.5138350000000  0.4527360000000  0.5348660000000 1.0
C      1  0.4702720000000  0.4533130000000  0.4977970000000 1.0
C      1  0.4844750000000  0.5400360000000  0.5765170000000 1.0
C      1  0.5838400000000  0.5200990000000  0.4836080000000 1.0
C      1  0.4298620000000  0.5190900000000  0.4494710000000 1.0
C      1  0.5116070000000  0.5279680000000  0.5806180000000 1.0
C      1  0.4175520000000  0.5311150000000  0.4770110000000 1.0
C      1  0.5597180000000  0.5159370000000  0.4425980000000 1.0
C      1  0.4621170000000  0.4568450000000  0.4166020000000 1.0
C      1  0.4439570000000  0.4575390000000  0.5747990000000 1.0
C      1  0.5958940000000  0.4661650000000  0.5088190000000 1.0
C      1  0.5403830000000  0.4583590000000  0.4151640000000 1.0
C      1  0.5576220000000  0.4614070000000  0.5732020000000 1.0
C      1  0.4140850000000  0.4660440000000  0.5026320000000 1.0
C      1  0.5105210000000  0.4574290000000  0.4160910000000 1.0
C      1  0.4279520000000  0.4555880000000  0.5285550000000 1.0
C      1  0.5607030000000  0.4439510000000  0.5510910000000 1.0
C      1  0.4880520000000  0.4425760000000  0.4213110000000 1.0
C      1  0.5773540000000  0.4552210000000  0.5309950000000 1.0
C      1  0.4404560000000  0.4408280000000  0.5493500000000 1.0
C      1  0.4402430000000  0.5285170000000  0.5020920000000 1.0
C      1  0.5330870000000  0.5190300000000  0.5566960000000 1.0
C      1  0.5267640000000  0.5134230000000  0.4430170000000 1.0
C      1  0.5607010000000  0.5123210000000  0.5065220000000 1.0
C      1  0.4686450000000  0.5258520000000  0.5552030000000 1.0
C      1  0.4763860000000  0.5145010000000  0.4445260000000 1.0
C      1  0.5498910000000  0.5862130000000  0.5160830000000 1.0
C      1  0.4799350000000  0.5795150000000  0.4467080000000 1.0
C      1  0.4596180000000  0.5981120000000  0.5511020000000 1.0
C      1  0.4465650000000  0.5948690000000  0.5230520000000 1.0
C      1  0.5103690000000  0.5822480000000  0.4432320000000 1.0
C      1  0.5370420000000  0.5926070000000  0.5443000000000 1.0
C      1  0.5251540000000  0.5897630000000  0.4937000000000 1.0
C      1  0.4762130000000  0.5917720000000  0.4780660000000 1.0
C      1  0.4858780000000  0.5958870000000  0.5292300000000 1.0
C      1  0.4668290000000  0.6039490000000  0.5026480000000 1.0
C      1  0.5077010000000  0.5960660000000  0.4702290000000 1.0
C      1  0.5147770000000  0.6015280000000  0.5239080000000 1.0
C      1  0.6142360000000  0.4872280000000  0.5110990000000 1.0
C      1  0.4575250000000  0.4865130000000  0.4111060000000 1.0
C      1  0.4335490000000  0.4853120000000  0.5735940000000 1.0
C      1  0.4102430000000  0.4939330000000  0.5117880000000 1.0
C      1  0.5516200000000  0.4813800000000  0.4032240000000 1.0
C      1  0.5697100000000  0.4910490000000  0.5719260000000 1.0
C      1  0.5155260000000  0.3911700000000  0.4779760000000 1.0
C      1  0.4710910000000  0.4072670000000  0.4950420000000 1.0
C      1  0.5133760000000  0.4123190000000  0.5250590000000 1.0
C      1  0.4871460000000  0.4004710000000  0.4728270000000 1.0
C      1  0.5288110000000  0.4054080000000  0.4993300000000 1.0
C      1  0.4831910000000  0.4096760000000  0.5225720000000 1.0
C      1  0.4606160000000  0.5616190000000  0.4377120000000 1.0
C      1  0.4513780000000  0.5645930000000  0.5487370000000 1.0
C      1  0.5647790000000  0.5589020000000  0.5182570000000 1.0
C      1  0.5310490000000  0.5592410000000  0.4422380000000 1.0
C      1  0.5428040000000  0.5590930000000  0.5445330000000 1.0
C      1  0.4318870000000  0.5675640000000  0.5210270000000 1.0
C      1  0.5055670000000  0.4972210000000  0.5796640000000 1.0
C      1  0.5716490000000  0.4963720000000  0.4652000000000 1.0
C      1  0.4333290000000  0.4876610000000  0.4589700000000 1.0
C      1  0.5127830000000  0.4423810000000  0.4750260000000 1.0
END
