TITL C-3289320-4661-422 -0.00212569210381264 125000 -1034.91568680817 0 0 189 (C1) n - 1
REM
REM in /nfs/bkarasulu/CARBON/AIRSS/Generating-Clusters/AIREBO/with-SteepDescent/Higher-Symm/SD-CG/HFTN-CG
REM
REM
REM
REM
REM
REM ./C.cell (b20cbc046b6831c77cfcea5457e17084)
REM
REM compiler GCC version 9.2.1 20190827 (Red Hat 9.2.1-1)
REM options -cpp -mtune=generic -march=x86-64 -g -O0 -fpre-include=/usr/include/finclude/math-vector-fortran.h
REM seed 1883336460 2135664819 -1614769026 1482512900 -324765795 1404412730 -1999641701 1905188598 -1941429917 -534470472 206133540 -1973900171 1224803536 -1720289963 -510117000 830705505 -1136455620 1677169475 -884450677 90826337 1506842345 28438999 -1013863465 -1661548470 1021849087 371016826 930018606 -1934899394 -62259934 1607536817 1779602947 -1469783079 -1381402972
REM
CELL 1.54180   50.00000   50.00000   50.00000   90.00000   90.00000   90.00000
LATT -1
SFAC C  
C      1  0.4291590000000  0.4181240000000  0.5196510000000 1.0
C      1  0.4423000000000  0.4786440000000  0.4198170000000 1.0
C      1  0.4357400000000  0.5774560000000  0.4803490000000 1.0
C      1  0.4308080000000  0.5165400000000  0.5799110000000 1.0
C      1  0.5783130000000  0.4342380000000  0.5321840000000 1.0
C      1  0.5848770000000  0.4759770000000  0.4198400000000 1.0
C      1  0.5818900000000  0.5679810000000  0.4692930000000 1.0
C      1  0.5803170000000  0.5198370000000  0.5631490000000 1.0
C      1  0.4724930000000  0.4559010000000  0.4857880000000 1.0
C      1  0.4745050000000  0.5221510000000  0.4483690000000 1.0
C      1  0.4732670000000  0.5439340000000  0.5168430000000 1.0
C      1  0.4706810000000  0.4667640000000  0.5524000000000 1.0
C      1  0.5331160000000  0.4468060000000  0.5946620000000 1.0
C      1  0.5352620000000  0.4114950000000  0.4392470000000 1.0
C      1  0.5334170000000  0.5608020000000  0.4077640000000 1.0
C      1  0.5386280000000  0.5839900000000  0.5620460000000 1.0
C      1  0.5708890000000  0.4277510000000  0.5634130000000 1.0
C      1  0.5807820000000  0.4528110000000  0.4386850000000 1.0
C      1  0.5783240000000  0.5666250000000  0.4354270000000 1.0
C      1  0.5835000000000  0.5532780000000  0.5686720000000 1.0
C      1  0.4344250000000  0.4939180000000  0.5951170000000 1.0
C      1  0.4356370000000  0.4069580000000  0.4950390000000 1.0
C      1  0.4409240000000  0.5033300000000  0.4070680000000 1.0
C      1  0.4411520000000  0.5907490000000  0.5044200000000 1.0
C      1  0.6009850000000  0.5192030000000  0.5010430000000 1.0
C      1  0.5986750000000  0.4870130000000  0.5123410000000 1.0
C      1  0.6030910000000  0.4724950000000  0.4830340000000 1.0
C      1  0.6037990000000  0.5033320000000  0.4762170000000 1.0
C      1  0.5452830000000  0.4758660000000  0.4985510000000 1.0
C      1  0.5465980000000  0.5026190000000  0.4776090000000 1.0
C      1  0.5457010000000  0.5288110000000  0.4992700000000 1.0
C      1  0.5454750000000  0.5019980000000  0.5203050000000 1.0
C      1  0.4605460000000  0.5707080000000  0.4618070000000 1.0
C      1  0.4550780000000  0.5285600000000  0.5656940000000 1.0
C      1  0.4530720000000  0.4234570000000  0.5387700000000 1.0
C      1  0.4668410000000  0.4618970000000  0.4310000000000 1.0
C      1  0.5154200000000  0.5257200000000  0.4840680000000 1.0
C      1  0.5135030000000  0.5125550000000  0.5153570000000 1.0
C      1  0.5144050000000  0.4788620000000  0.5124870000000 1.0
C      1  0.5138290000000  0.4919580000000  0.4811130000000 1.0
C      1  0.4081540000000  0.4657160000000  0.5099670000000 1.0
C      1  0.4209350000000  0.4890180000000  0.4618410000000 1.0
C      1  0.4070330000000  0.5336040000000  0.4903840000000 1.0
C      1  0.4040570000000  0.5094740000000  0.5366960000000 1.0
C      1  0.4634480000000  0.5274780000000  0.4934650000000 1.0
C      1  0.4640110000000  0.4946610000000  0.5341510000000 1.0
C      1  0.4631990000000  0.4682490000000  0.5112700000000 1.0
C      1  0.4623130000000  0.5006050000000  0.4702770000000 1.0
C      1  0.4936500000000  0.4024370000000  0.5237330000000 1.0
C      1  0.4913190000000  0.4728600000000  0.4014900000000 1.0
C      1  0.4915470000000  0.6028990000000  0.4795310000000 1.0
C      1  0.4850060000000  0.5341140000000  0.5915350000000 1.0
C      1  0.5502880000000  0.4012550000000  0.4615480000000 1.0
C      1  0.5520370000000  0.5397100000000  0.4015560000000 1.0
C      1  0.5567040000000  0.5933540000000  0.5417520000000 1.0
C      1  0.5456350000000  0.4716360000000  0.6023180000000 1.0
C      1  0.4196540000000  0.4453250000000  0.4434700000000 1.0
C      1  0.4178500000000  0.5526830000000  0.4450710000000 1.0
C      1  0.4208100000000  0.5538440000000  0.5542070000000 1.0
C      1  0.4145710000000  0.4431280000000  0.5566770000000 1.0
C      1  0.5030990000000  0.5460820000000  0.5572100000000 1.0
C      1  0.5006570000000  0.4366120000000  0.5463340000000 1.0
C      1  0.5039460000000  0.4513350000000  0.4461130000000 1.0
C      1  0.4977280000000  0.5598190000000  0.4518600000000 1.0
C      1  0.3943840000000  0.4790490000000  0.4805980000000 1.0
C      1  0.3896220000000  0.5114690000000  0.4713150000000 1.0
C      1  0.3864820000000  0.5323080000000  0.5174490000000 1.0
C      1  0.3851610000000  0.4812340000000  0.5315090000000 1.0
C      1  0.4447250000000  0.4239940000000  0.4482370000000 1.0
C      1  0.4425550000000  0.5559260000000  0.4218850000000 1.0
C      1  0.4485000000000  0.5736970000000  0.5517900000000 1.0
C      1  0.4436960000000  0.4468400000000  0.5742570000000 1.0
C      1  0.5661820000000  0.5365090000000  0.3783490000000 1.0
C      1  0.5734550000000  0.6149260000000  0.5437170000000 1.0
C      1  0.5644770000000  0.4992280000000  0.6093380000000 1.0
C      1  0.5591030000000  0.3918030000000  0.4932140000000 1.0
C      1  0.5416420000000  0.4841800000000  0.4321250000000 1.0
C      1  0.5344300000000  0.5765990000000  0.4827210000000 1.0
C      1  0.5305340000000  0.5172430000000  0.5951060000000 1.0
C      1  0.5307080000000  0.4290000000000  0.5212570000000 1.0
C      1  0.5044100000000  0.4377620000000  0.5015480000000 1.0
C      1  0.5141210000000  0.5036610000000  0.4361110000000 1.0
C      1  0.5101830000000  0.5682300000000  0.5050430000000 1.0
C      1  0.5011600000000  0.4916410000000  0.5587280000000 1.0
C      1  0.4036430000000  0.4747010000000  0.5592940000000 1.0
C      1  0.4072770000000  0.4475330000000  0.4745050000000 1.0
C      1  0.4048040000000  0.5214170000000  0.4421680000000 1.0
C      1  0.4096020000000  0.5566220000000  0.5229610000000 1.0
C      1  0.5619120000000  0.4874920000000  0.5777400000000 1.0
C      1  0.5575300000000  0.4247800000000  0.4850290000000 1.0
C      1  0.5532790000000  0.5153930000000  0.4253010000000 1.0
C      1  0.5536460000000  0.5776700000000  0.5117370000000 1.0
C      1  0.4249830000000  0.4827880000000  0.5340880000000 1.0
C      1  0.4321160000000  0.4677650000000  0.4859120000000 1.0
C      1  0.4280830000000  0.5208010000000  0.4669470000000 1.0
C      1  0.4265850000000  0.5274780000000  0.5186770000000 1.0
C      1  0.5041610000000  0.5404440000000  0.5236950000000 1.0
C      1  0.5002530000000  0.4689290000000  0.5357530000000 1.0
C      1  0.5037070000000  0.4622510000000  0.4779670000000 1.0
C      1  0.5043300000000  0.5265900000000  0.4548570000000 1.0
C      1  0.5787380000000  0.5387720000000  0.4548750000000 1.0
C      1  0.5782790000000  0.5406330000000  0.5375450000000 1.0
C      1  0.5779520000000  0.4680300000000  0.5315390000000 1.0
C      1  0.5805280000000  0.4597030000000  0.4655390000000 1.0
C      1  0.4535670000000  0.5390310000000  0.4663140000000 1.0
C      1  0.4532990000000  0.5249480000000  0.5320620000000 1.0
C      1  0.4453360000000  0.4555550000000  0.5347690000000 1.0
C      1  0.4564340000000  0.4706960000000  0.4622900000000 1.0
C      1  0.5095690000000  0.5923120000000  0.5628880000000 1.0
C      1  0.5027600000000  0.4434270000000  0.5939840000000 1.0
C      1  0.5016340000000  0.4132470000000  0.4341420000000 1.0
C      1  0.5047400000000  0.5624690000000  0.4057820000000 1.0
C      1  0.4802900000000  0.4229840000000  0.4825270000000 1.0
C      1  0.4702790000000  0.5280450000000  0.4181410000000 1.0
C      1  0.4821210000000  0.5751830000000  0.5232410000000 1.0
C      1  0.4777680000000  0.4834680000000  0.5797730000000 1.0
C      1  0.5444690000000  0.5711570000000  0.4328570000000 1.0
C      1  0.5503230000000  0.5552220000000  0.5749580000000 1.0
C      1  0.5462790000000  0.4370780000000  0.5713670000000 1.0
C      1  0.5529740000000  0.4353980000000  0.4293150000000 1.0
C      1  0.4287930000000  0.5811750000000  0.5272180000000 1.0
C      1  0.4255570000000  0.4706130000000  0.5827820000000 1.0
C      1  0.4256730000000  0.4199260000000  0.4728040000000 1.0
C      1  0.4285720000000  0.5257770000000  0.4185070000000 1.0
C      1  0.6116760000000  0.4851800000000  0.5428770000000 1.0
C      1  0.6067030000000  0.4412560000000  0.4893830000000 1.0
C      1  0.5956570000000  0.5142710000000  0.4520190000000 1.0
C      1  0.5931140000000  0.5432440000000  0.5112770000000 1.0
C      1  0.4822170000000  0.5729190000000  0.5563550000000 1.0
C      1  0.4767790000000  0.4393460000000  0.5715780000000 1.0
C      1  0.4781330000000  0.4300040000000  0.4521450000000 1.0
C      1  0.4760440000000  0.5607040000000  0.4256530000000 1.0
C      1  0.5373480000000  0.4570280000000  0.4490270000000 1.0
C      1  0.5310460000000  0.5560890000000  0.4575970000000 1.0
C      1  0.5347430000000  0.5463730000000  0.5494390000000 1.0
C      1  0.5326030000000  0.4482930000000  0.5466980000000 1.0
C      1  0.5256090000000  0.5963650000000  0.5163030000000 1.0
C      1  0.5299300000000  0.4869490000000  0.5691370000000 1.0
C      1  0.5258090000000  0.4137810000000  0.4904560000000 1.0
C      1  0.5259280000000  0.5097700000000  0.4058180000000 1.0
C      1  0.5559120000000  0.4630430000000  0.4096380000000 1.0
C      1  0.5571770000000  0.5860710000000  0.4606490000000 1.0
C      1  0.5625720000000  0.5279370000000  0.5911810000000 1.0
C      1  0.5574650000000  0.4091550000000  0.5217740000000 1.0
C      1  0.4641750000000  0.5096770000000  0.3909850000000 1.0
C      1  0.4671590000000  0.5980450000000  0.5107500000000 1.0
C      1  0.4603160000000  0.4919980000000  0.6048030000000 1.0
C      1  0.4620280000000  0.3992840000000  0.4915770000000 1.0
C      1  0.5119990000000  0.4943230000000  0.5971350000000 1.0
C      1  0.5093530000000  0.3908780000000  0.4808860000000 1.0
C      1  0.5063590000000  0.5158240000000  0.3875340000000 1.0
C      1  0.5088310000000  0.6175270000000  0.5226800000000 1.0
C      1  0.5853690000000  0.4287280000000  0.5012900000000 1.0
C      1  0.5837970000000  0.5020810000000  0.4291480000000 1.0
C      1  0.5836790000000  0.5679420000000  0.4987560000000 1.0
C      1  0.5844350000000  0.4897510000000  0.5576190000000 1.0
C      1  0.5117990000000  0.4040090000000  0.5460020000000 1.0
C      1  0.5092320000000  0.4521230000000  0.4124260000000 1.0
C      1  0.5064060000000  0.5925780000000  0.4565330000000 1.0
C      1  0.5145810000000  0.5448580000000  0.5895340000000 1.0
C      1  0.4119650000000  0.5282870000000  0.5629740000000 1.0
C      1  0.4105440000000  0.4370350000000  0.5282280000000 1.0
C      1  0.4215630000000  0.4725380000000  0.4364600000000 1.0
C      1  0.4147030000000  0.5612460000000  0.4720710000000 1.0
C      1  0.4852520000000  0.5695740000000  0.4819600000000 1.0
C      1  0.4860920000000  0.5181430000000  0.5618420000000 1.0
C      1  0.4780290000000  0.4304280000000  0.5217170000000 1.0
C      1  0.4933580000000  0.4814240000000  0.4343340000000 1.0
C      1  0.4870460000000  0.4939150000000  0.3839840000000 1.0
C      1  0.4870150000000  0.6185270000000  0.5039340000000 1.0
C      1  0.4844090000000  0.5088250000000  0.6097240000000 1.0
C      1  0.4883290000000  0.3878350000000  0.4998280000000 1.0
C      1  0.4915120000000  0.5383650000000  0.3963480000000 1.0
C      1  0.5054650000000  0.6183840000000  0.5509310000000 1.0
C      1  0.4927820000000  0.4686700000000  0.6038930000000 1.0
C      1  0.5068700000000  0.3876110000000  0.4540180000000 1.0
C      1  0.4763300000000  0.4315450000000  0.4185230000000 1.0
C      1  0.4644650000000  0.5909930000000  0.4358930000000 1.0
C      1  0.4656360000000  0.5568590000000  0.5813270000000 1.0
C      1  0.4626200000000  0.4088930000000  0.5662160000000 1.0
C      1  0.5410780000000  0.5458270000000  0.6108250000000 1.0
C      1  0.5370400000000  0.3951250000000  0.5428500000000 1.0
C      1  0.5314550000000  0.4471810000000  0.3979020000000 1.0
C      1  0.5307020000000  0.6036510000000  0.4514210000000 1.0
C      1  0.5484590000000  0.5285270000000  0.4563440000000 1.0
C      1  0.5503420000000  0.5477190000000  0.5234970000000 1.0
C      1  0.5478160000000  0.4782610000000  0.5415340000000 1.0
C      1  0.5523480000000  0.4548750000000  0.4776470000000 1.0
C      1  0.4573090000000  0.4983670000000  0.5024670000000 1.0
END
