TITL C-3289332-8317-21 -0.00204976918503069 125000 -882.42873842844 0 0 164 (C1) n - 1
REM
REM in /nfs/bkarasulu/CARBON/AIRSS/Generating-Clusters/AIREBO/with-SteepDescent/Higher-Symm/SD-CG/HFTN-CG
REM
REM
REM
REM
REM
REM ./C.cell (b20cbc046b6831c77cfcea5457e17084)
REM
REM compiler GCC version 9.2.1 20190827 (Red Hat 9.2.1-1)
REM options -cpp -mtune=generic -march=x86-64 -g -O0 -fpre-include=/usr/include/finclude/math-vector-fortran.h
REM seed 1691892550 1680132617 -1126118661 -1743489277 -1975518374 -1108942389 -154450947 548802629 2127438062 32071667 -697550766 1543912239 1685808706 -306178106 -2056944263 26916782 656173788 -224245278 704673912 -1761557886 1252286659 773069204 -1033892164 653036074 279789174 -1408762017 -399073317 -337465927 -310199869 -818678699 1791996955 292875737 -2064045385
REM
CELL 1.54180   50.00000   50.00000   50.00000   90.00000   90.00000   90.00000
LATT -1
SFAC C  
C      1  0.5140160000000  0.4888330000000  0.5661240000000 1.0
C      1  0.4357130000000  0.4961460000000  0.4866040000000 1.0
C      1  0.5510440000000  0.5091380000000  0.4567180000000 1.0
C      1  0.4424490000000  0.4755980000000  0.5923760000000 1.0
C      1  0.4535380000000  0.4809050000000  0.4026340000000 1.0
C      1  0.6051510000000  0.4818180000000  0.5152180000000 1.0
C      1  0.5941570000000  0.4725110000000  0.5437260000000 1.0
C      1  0.4228840000000  0.4714850000000  0.5685000000000 1.0
C      1  0.4848510000000  0.4738590000000  0.3954110000000 1.0
C      1  0.5129200000000  0.3966210000000  0.4712300000000 1.0
C      1  0.5214880000000  0.4067930000000  0.5322070000000 1.0
C      1  0.4596320000000  0.3902560000000  0.5101580000000 1.0
C      1  0.4910010000000  0.4269330000000  0.4329720000000 1.0
C      1  0.5620850000000  0.4296070000000  0.5187470000000 1.0
C      1  0.4385140000000  0.4236980000000  0.5410030000000 1.0
C      1  0.4858280000000  0.4606410000000  0.5642040000000 1.0
C      1  0.4476790000000  0.4624440000000  0.4508680000000 1.0
C      1  0.5592960000000  0.4674900000000  0.4779480000000 1.0
C      1  0.5586820000000  0.4356720000000  0.4689010000000 1.0
C      1  0.4978650000000  0.4289520000000  0.5668630000000 1.0
C      1  0.4385880000000  0.4310510000000  0.4602550000000 1.0
C      1  0.4756860000000  0.5654230000000  0.5820340000000 1.0
C      1  0.4204830000000  0.5597220000000  0.4359580000000 1.0
C      1  0.6015180000000  0.5618040000000  0.4510250000000 1.0
C      1  0.4696870000000  0.5197480000000  0.5568490000000 1.0
C      1  0.4666400000000  0.5225280000000  0.4551810000000 1.0
C      1  0.5686630000000  0.5280790000000  0.4949410000000 1.0
C      1  0.4967190000000  0.4463480000000  0.4115250000000 1.0
C      1  0.5709780000000  0.4474650000000  0.5462790000000 1.0
C      1  0.4191190000000  0.4455480000000  0.5468210000000 1.0
C      1  0.5495380000000  0.4220850000000  0.4914590000000 1.0
C      1  0.4720070000000  0.4210180000000  0.5462370000000 1.0
C      1  0.4690210000000  0.4253600000000  0.4512070000000 1.0
C      1  0.4633430000000  0.5734600000000  0.4631140000000 1.0
C      1  0.5709890000000  0.5791720000000  0.4904240000000 1.0
C      1  0.4896590000000  0.5723840000000  0.5423270000000 1.0
C      1  0.4647080000000  0.4906880000000  0.5957240000000 1.0
C      1  0.4373320000000  0.4979160000000  0.4258980000000 1.0
C      1  0.5977830000000  0.5012360000000  0.4898850000000 1.0
C      1  0.4563940000000  0.5232170000000  0.5257280000000 1.0
C      1  0.5021590000000  0.5301220000000  0.4544440000000 1.0
C      1  0.5453060000000  0.5311660000000  0.5175470000000 1.0
C      1  0.4960000000000  0.5276170000000  0.5244640000000 1.0
C      1  0.4866670000000  0.5455000000000  0.5019010000000 1.0
C      1  0.5157490000000  0.5442530000000  0.4940730000000 1.0
C      1  0.3843300000000  0.5010120000000  0.4725450000000 1.0
C      1  0.5724150000000  0.5021570000000  0.4227960000000 1.0
C      1  0.5239790000000  0.5033300000000  0.6098210000000 1.0
C      1  0.5251290000000  0.5154190000000  0.5001450000000 1.0
C      1  0.4804240000000  0.5008220000000  0.5239100000000 1.0
C      1  0.4913980000000  0.5024060000000  0.4669630000000 1.0
C      1  0.5111960000000  0.5277620000000  0.4088860000000 1.0
C      1  0.5711040000000  0.5289680000000  0.5597710000000 1.0
C      1  0.4127930000000  0.5231570000000  0.5391640000000 1.0
C      1  0.4263290000000  0.4299420000000  0.4856000000000 1.0
C      1  0.5452500000000  0.4313600000000  0.4449650000000 1.0
C      1  0.5256580000000  0.4306840000000  0.5717130000000 1.0
C      1  0.5661940000000  0.4829570000000  0.5287350000000 1.0
C      1  0.4371780000000  0.4802470000000  0.5389180000000 1.0
C      1  0.4876750000000  0.4862340000000  0.4255380000000 1.0
C      1  0.5209990000000  0.5751000000000  0.4860370000000 1.0
C      1  0.5145500000000  0.5766500000000  0.5173470000000 1.0
C      1  0.4689640000000  0.5710770000000  0.4967660000000 1.0
C      1  0.6112770000000  0.4984860000000  0.4613810000000 1.0
C      1  0.4765400000000  0.5062390000000  0.6160070000000 1.0
C      1  0.4070020000000  0.5042200000000  0.4289630000000 1.0
C      1  0.4718330000000  0.5330860000000  0.4061820000000 1.0
C      1  0.6010650000000  0.5490230000000  0.5274330000000 1.0
C      1  0.4278960000000  0.5328190000000  0.5811300000000 1.0
C      1  0.5770510000000  0.5524100000000  0.4727000000000 1.0
C      1  0.4907110000000  0.5437120000000  0.5606040000000 1.0
C      1  0.4453280000000  0.5490060000000  0.4537170000000 1.0
C      1  0.4843860000000  0.3780670000000  0.5088940000000 1.0
C      1  0.5088890000000  0.3747600000000  0.4883220000000 1.0
C      1  0.5147650000000  0.3821680000000  0.5204970000000 1.0
C      1  0.4371300000000  0.5223600000000  0.4984290000000 1.0
C      1  0.5280430000000  0.5172980000000  0.4364990000000 1.0
C      1  0.5441350000000  0.5190050000000  0.5464110000000 1.0
C      1  0.5015020000000  0.5186450000000  0.6108870000000 1.0
C      1  0.3974560000000  0.5145780000000  0.4523730000000 1.0
C      1  0.5988080000000  0.5077510000000  0.4391700000000 1.0
C      1  0.4833540000000  0.4462570000000  0.6219620000000 1.0
C      1  0.4161430000000  0.4513750000000  0.4034560000000 1.0
C      1  0.6150560000000  0.4525470000000  0.4632850000000 1.0
C      1  0.5364140000000  0.4540820000000  0.5865790000000 1.0
C      1  0.4058980000000  0.4481950000000  0.4922750000000 1.0
C      1  0.5497310000000  0.4489080000000  0.4233870000000 1.0
C      1  0.4703830000000  0.4330260000000  0.4843670000000 1.0
C      1  0.5225400000000  0.4176720000000  0.4898700000000 1.0
C      1  0.4994620000000  0.4271860000000  0.5270500000000 1.0
C      1  0.5210230000000  0.5644380000000  0.4278200000000 1.0
C      1  0.5489030000000  0.5727760000000  0.5610770000000 1.0
C      1  0.4251900000000  0.5669500000000  0.5256930000000 1.0
C      1  0.5561850000000  0.5315360000000  0.4237720000000 1.0
C      1  0.5342050000000  0.5425350000000  0.5935160000000 1.0
C      1  0.4103470000000  0.5376600000000  0.4917680000000 1.0
C      1  0.4284150000000  0.4589480000000  0.4246470000000 1.0
C      1  0.5912260000000  0.4593940000000  0.4695080000000 1.0
C      1  0.4832290000000  0.4517820000000  0.5969330000000 1.0
C      1  0.5711580000000  0.5814350000000  0.5185790000000 1.0
C      1  0.4575170000000  0.5704540000000  0.5533360000000 1.0
C      1  0.4852900000000  0.5784640000000  0.4394070000000 1.0
C      1  0.5274470000000  0.4706450000000  0.4663300000000 1.0
C      1  0.5054290000000  0.4567220000000  0.5366840000000 1.0
C      1  0.4524760000000  0.4601880000000  0.4844600000000 1.0
C      1  0.4783260000000  0.4632490000000  0.4426400000000 1.0
C      1  0.5573990000000  0.4600250000000  0.5094640000000 1.0
C      1  0.4566000000000  0.4570770000000  0.5531530000000 1.0
C      1  0.4816370000000  0.4712290000000  0.5257870000000 1.0
C      1  0.4818220000000  0.4726790000000  0.4808870000000 1.0
C      1  0.5266090000000  0.4815560000000  0.4962040000000 1.0
C      1  0.5444140000000  0.5584290000000  0.4144470000000 1.0
C      1  0.5469380000000  0.5669240000000  0.5871800000000 1.0
C      1  0.4058760000000  0.5636510000000  0.5071380000000 1.0
C      1  0.5291910000000  0.4685830000000  0.5248080000000 1.0
C      1  0.4606820000000  0.4510050000000  0.5224920000000 1.0
C      1  0.5007120000000  0.4497100000000  0.4643860000000 1.0
C      1  0.4575430000000  0.6091380000000  0.5006910000000 1.0
C      1  0.5258980000000  0.5964820000000  0.4629050000000 1.0
C      1  0.5295810000000  0.6035440000000  0.5317220000000 1.0
C      1  0.4328380000000  0.4738040000000  0.5066630000000 1.0
C      1  0.5179980000000  0.4863160000000  0.4382980000000 1.0
C      1  0.5392520000000  0.4888900000000  0.5486180000000 1.0
C      1  0.4657780000000  0.5895000000000  0.5251980000000 1.0
C      1  0.5045320000000  0.5972640000000  0.4450570000000 1.0
C      1  0.5572580000000  0.6046940000000  0.5278370000000 1.0
C      1  0.5577320000000  0.4674240000000  0.5666490000000 1.0
C      1  0.4055870000000  0.4617130000000  0.5230100000000 1.0
C      1  0.5227330000000  0.4649940000000  0.4147000000000 1.0
C      1  0.5749670000000  0.5591420000000  0.5440230000000 1.0
C      1  0.4312900000000  0.5487540000000  0.5518370000000 1.0
C      1  0.4929640000000  0.5557870000000  0.4152430000000 1.0
C      1  0.4510360000000  0.5538550000000  0.5176820000000 1.0
C      1  0.5208590000000  0.5572800000000  0.4570210000000 1.0
C      1  0.5357040000000  0.5587020000000  0.5350810000000 1.0
C      1  0.4650590000000  0.5304160000000  0.4874200000000 1.0
C      1  0.5444450000000  0.5433520000000  0.4760740000000 1.0
C      1  0.5170160000000  0.5346230000000  0.5454930000000 1.0
C      1  0.4682860000000  0.5110810000000  0.4242830000000 1.0
C      1  0.5950730000000  0.5230520000000  0.5155150000000 1.0
C      1  0.4374380000000  0.5090060000000  0.5578390000000 1.0
C      1  0.4131060000000  0.5389440000000  0.4616310000000 1.0
C      1  0.5813430000000  0.5347210000000  0.4439650000000 1.0
C      1  0.5012630000000  0.5444140000000  0.5929310000000 1.0
C      1  0.3950200000000  0.4803730000000  0.4966090000000 1.0
C      1  0.5527600000000  0.4802860000000  0.4100910000000 1.0
C      1  0.5454930000000  0.4872390000000  0.5906690000000 1.0
C      1  0.5165130000000  0.4228410000000  0.4507420000000 1.0
C      1  0.5467910000000  0.4224440000000  0.5480790000000 1.0
C      1  0.4497120000000  0.4218160000000  0.5089390000000 1.0
C      1  0.4454130000000  0.4953910000000  0.4585900000000 1.0
C      1  0.5664390000000  0.4986400000000  0.4790650000000 1.0
C      1  0.4816860000000  0.4936570000000  0.5702470000000 1.0
C      1  0.5861880000000  0.5060510000000  0.5406800000000 1.0
C      1  0.4052160000000  0.4990060000000  0.5621370000000 1.0
C      1  0.5014540000000  0.5005680000000  0.3909420000000 1.0
C      1  0.4522600000000  0.6015290000000  0.4771480000000 1.0
C      1  0.5532270000000  0.5963670000000  0.4757040000000 1.0
C      1  0.5147480000000  0.5921260000000  0.5540320000000 1.0
C      1  0.5311010000000  0.5012270000000  0.4000390000000 1.0
C      1  0.5507630000000  0.5204600000000  0.5856780000000 1.0
C      1  0.4007380000000  0.5113080000000  0.5096580000000 1.0
C      1  0.4995760000000  0.4375740000000  0.4961490000000 1.0
C      1  0.4969990000000  0.4967240000000  0.4990820000000 1.0
END
