TITL C-3289329-2751-531 -0.00207365668245307 125000 -1011.07235423015 0 0 178 (C1) n - 1
REM
REM in /nfs/bkarasulu/CARBON/AIRSS/Generating-Clusters/AIREBO/with-SteepDescent/Higher-Symm/SD-CG/HFTN-CG
REM
REM
REM
REM
REM
REM ./C.cell (b20cbc046b6831c77cfcea5457e17084)
REM
REM compiler GCC version 9.2.1 20190827 (Red Hat 9.2.1-1)
REM options -cpp -mtune=generic -march=x86-64 -g -O0 -fpre-include=/usr/include/finclude/math-vector-fortran.h
REM seed 1255663751 441182348 2125391741 1206616863 98474745 -1196552569 -1998739833 429358598 1085047510 1688551340 -43947203 2094252942 936356328 31440224 -1755447476 1487115425 1807815010 -2068970020 768336884 424117560 1901367101 2119974390 -382067232 496301234 1931123483 -1221831116 1243597940 973861287 1002083128 -1550908952 -299984771 1338679387 652708004
REM
CELL 1.54180   50.00000   50.00000   50.00000   90.00000   90.00000   90.00000
LATT -1
SFAC C  
C      1  0.5622540000000  0.5898470000000  0.5220640000000 1.0
C      1  0.5678980000000  0.5874320000000  0.4672180000000 1.0
C      1  0.5649950000000  0.5632500000000  0.4160990000000 1.0
C      1  0.5587500000000  0.4976980000000  0.4053520000000 1.0
C      1  0.5600650000000  0.4518530000000  0.4270070000000 1.0
C      1  0.5656930000000  0.4194250000000  0.4551290000000 1.0
C      1  0.5577410000000  0.4053310000000  0.5088500000000 1.0
C      1  0.5638190000000  0.4292780000000  0.5578020000000 1.0
C      1  0.5692600000000  0.4556840000000  0.5915710000000 1.0
C      1  0.5636790000000  0.5268200000000  0.6015460000000 1.0
C      1  0.5655940000000  0.5642090000000  0.5705800000000 1.0
C      1  0.5391050000000  0.4911680000000  0.4537480000000 1.0
C      1  0.5359190000000  0.4626300000000  0.4704460000000 1.0
C      1  0.5362170000000  0.4497320000000  0.5002100000000 1.0
C      1  0.5293730000000  0.4623040000000  0.5310610000000 1.0
C      1  0.5458490000000  0.4786230000000  0.5530170000000 1.0
C      1  0.5418540000000  0.5077150000000  0.5623180000000 1.0
C      1  0.5415780000000  0.5266490000000  0.5372230000000 1.0
C      1  0.5283050000000  0.5495390000000  0.5158610000000 1.0
C      1  0.5447260000000  0.5464100000000  0.4862530000000 1.0
C      1  0.5355670000000  0.5447000000000  0.4569100000000 1.0
C      1  0.5375340000000  0.5184800000000  0.4408080000000 1.0
C      1  0.5659780000000  0.4754610000000  0.4476410000000 1.0
C      1  0.5667250000000  0.4478860000000  0.4662180000000 1.0
C      1  0.5643650000000  0.4335690000000  0.5034910000000 1.0
C      1  0.5603650000000  0.4479960000000  0.5320510000000 1.0
C      1  0.5721680000000  0.4683220000000  0.5642410000000 1.0
C      1  0.5678500000000  0.5167600000000  0.5771090000000 1.0
C      1  0.5689440000000  0.5437590000000  0.5479190000000 1.0
C      1  0.5608240000000  0.5591130000000  0.5203440000000 1.0
C      1  0.5715140000000  0.5565480000000  0.4684600000000 1.0
C      1  0.5675770000000  0.5445770000000  0.4388570000000 1.0
C      1  0.5695620000000  0.5122030000000  0.4323670000000 1.0
C      1  0.5090580000000  0.4032780000000  0.4985880000000 1.0
C      1  0.5234110000000  0.4048120000000  0.5497670000000 1.0
C      1  0.5227730000000  0.4710660000000  0.6016260000000 1.0
C      1  0.5121100000000  0.5131150000000  0.6100020000000 1.0
C      1  0.5160250000000  0.5643030000000  0.5738670000000 1.0
C      1  0.5142080000000  0.5919150000000  0.5251600000000 1.0
C      1  0.5168570000000  0.5907910000000  0.4678570000000 1.0
C      1  0.5155670000000  0.5638590000000  0.4185340000000 1.0
C      1  0.5154700000000  0.5136200000000  0.3959660000000 1.0
C      1  0.5213860000000  0.4602520000000  0.3988600000000 1.0
C      1  0.5182140000000  0.4297930000000  0.4483960000000 1.0
C      1  0.4867630000000  0.3846120000000  0.4966350000000 1.0
C      1  0.4971880000000  0.3919130000000  0.5616510000000 1.0
C      1  0.4975970000000  0.4597660000000  0.6056080000000 1.0
C      1  0.4851390000000  0.5155200000000  0.6215450000000 1.0
C      1  0.4933140000000  0.5811860000000  0.5858740000000 1.0
C      1  0.4918630000000  0.6106750000000  0.5303630000000 1.0
C      1  0.4960700000000  0.6112040000000  0.4605360000000 1.0
C      1  0.4887590000000  0.5710030000000  0.4062590000000 1.0
C      1  0.4893280000000  0.5123810000000  0.3845300000000 1.0
C      1  0.4922540000000  0.4453160000000  0.3896050000000 1.0
C      1  0.4921850000000  0.4136030000000  0.4409780000000 1.0
C      1  0.6024100000000  0.5201840000000  0.4709740000000 1.0
C      1  0.5908700000000  0.4975110000000  0.4521260000000 1.0
C      1  0.6012690000000  0.4678560000000  0.4640400000000 1.0
C      1  0.5891120000000  0.4506920000000  0.4889930000000 1.0
C      1  0.6076020000000  0.4504150000000  0.5140030000000 1.0
C      1  0.5915020000000  0.4603430000000  0.5379180000000 1.0
C      1  0.5961810000000  0.4890200000000  0.5537530000000 1.0
C      1  0.5909720000000  0.5186430000000  0.5548550000000 1.0
C      1  0.6049330000000  0.5371920000000  0.5320380000000 1.0
C      1  0.5897700000000  0.5461830000000  0.5112860000000 1.0
C      1  0.5928290000000  0.5420280000000  0.4840840000000 1.0
C      1  0.4400570000000  0.4741660000000  0.4509510000000 1.0
C      1  0.4513110000000  0.4528790000000  0.4745370000000 1.0
C      1  0.4489890000000  0.4449230000000  0.5075750000000 1.0
C      1  0.4631600000000  0.4538510000000  0.5374660000000 1.0
C      1  0.4471820000000  0.4775910000000  0.5524180000000 1.0
C      1  0.4580210000000  0.5048040000000  0.5640610000000 1.0
C      1  0.4589050000000  0.5289980000000  0.5446590000000 1.0
C      1  0.4658820000000  0.5544940000000  0.4966670000000 1.0
C      1  0.4573320000000  0.5522550000000  0.4638340000000 1.0
C      1  0.4389010000000  0.5300060000000  0.4492760000000 1.0
C      1  0.4481610000000  0.5029980000000  0.4377520000000 1.0
C      1  0.4758530000000  0.4079300000000  0.5646400000000 1.0
C      1  0.4797000000000  0.4695920000000  0.5870140000000 1.0
C      1  0.4701480000000  0.5205120000000  0.5986500000000 1.0
C      1  0.4715660000000  0.5696550000000  0.5728130000000 1.0
C      1  0.4692910000000  0.6031080000000  0.5186360000000 1.0
C      1  0.4716750000000  0.6015020000000  0.4561860000000 1.0
C      1  0.4713470000000  0.5530760000000  0.4191030000000 1.0
C      1  0.4692500000000  0.5079700000000  0.4030640000000 1.0
C      1  0.4721190000000  0.4600480000000  0.4139610000000 1.0
C      1  0.4713020000000  0.4236490000000  0.4563410000000 1.0
C      1  0.4645370000000  0.3935430000000  0.5081720000000 1.0
C      1  0.4998040000000  0.5516170000000  0.4973640000000 1.0
C      1  0.4900170000000  0.5474200000000  0.4656840000000 1.0
C      1  0.4887530000000  0.5336050000000  0.4362400000000 1.0
C      1  0.4787760000000  0.5046300000000  0.4338950000000 1.0
C      1  0.4911200000000  0.4765110000000  0.4373840000000 1.0
C      1  0.4829190000000  0.4431870000000  0.4786780000000 1.0
C      1  0.4894000000000  0.4492750000000  0.5078930000000 1.0
C      1  0.4962360000000  0.4617330000000  0.5387860000000 1.0
C      1  0.4946810000000  0.4851900000000  0.5635090000000 1.0
C      1  0.4887800000000  0.5180810000000  0.5699010000000 1.0
C      1  0.4846530000000  0.5475180000000  0.5522360000000 1.0
C      1  0.4851030000000  0.5149240000000  0.3580420000000 1.0
C      1  0.4867940000000  0.4272530000000  0.3719350000000 1.0
C      1  0.4924830000000  0.3926120000000  0.4236200000000 1.0
C      1  0.4898490000000  0.3607860000000  0.4835960000000 1.0
C      1  0.4979160000000  0.3652620000000  0.5680700000000 1.0
C      1  0.4917340000000  0.4426090000000  0.6253970000000 1.0
C      1  0.4782500000000  0.5142300000000  0.6477230000000 1.0
C      1  0.4953190000000  0.5995480000000  0.6056810000000 1.0
C      1  0.4954750000000  0.6320430000000  0.5470100000000 1.0
C      1  0.5028330000000  0.6377250000000  0.4613020000000 1.0
C      1  0.4840430000000  0.5905830000000  0.3880910000000 1.0
C      1  0.4155900000000  0.5092770000000  0.5339170000000 1.0
C      1  0.4356660000000  0.5266810000000  0.5258610000000 1.0
C      1  0.4370780000000  0.5404190000000  0.5030540000000 1.0
C      1  0.4139840000000  0.5409670000000  0.4873270000000 1.0
C      1  0.4133220000000  0.5263790000000  0.4637920000000 1.0
C      1  0.4002310000000  0.5022170000000  0.4591680000000 1.0
C      1  0.4115820000000  0.4769080000000  0.4623910000000 1.0
C      1  0.4056800000000  0.4579430000000  0.4817730000000 1.0
C      1  0.4171920000000  0.4517930000000  0.5062690000000 1.0
C      1  0.4065690000000  0.4616510000000  0.5299620000000 1.0
C      1  0.4197880000000  0.4829220000000  0.5415670000000 1.0
C      1  0.5383960000000  0.5317040000000  0.6081360000000 1.0
C      1  0.5445660000000  0.5751780000000  0.5783710000000 1.0
C      1  0.5423980000000  0.6036350000000  0.5288870000000 1.0
C      1  0.5464000000000  0.5997250000000  0.4639690000000 1.0
C      1  0.5431260000000  0.5729630000000  0.4078510000000 1.0
C      1  0.5337430000000  0.4917990000000  0.3958370000000 1.0
C      1  0.5336170000000  0.4451100000000  0.4221290000000 1.0
C      1  0.5431390000000  0.4089410000000  0.4509920000000 1.0
C      1  0.5320500000000  0.4004750000000  0.5198600000000 1.0
C      1  0.5493550000000  0.4101850000000  0.5653660000000 1.0
C      1  0.5484500000000  0.4627210000000  0.6076200000000 1.0
C      1  0.4277720000000  0.5430280000000  0.5800930000000 1.0
C      1  0.4334780000000  0.5731550000000  0.5368730000000 1.0
C      1  0.4331620000000  0.5896950000000  0.4874630000000 1.0
C      1  0.4313230000000  0.5773340000000  0.4362660000000 1.0
C      1  0.4260450000000  0.5345070000000  0.4041620000000 1.0
C      1  0.4274100000000  0.4782450000000  0.4015510000000 1.0
C      1  0.4323570000000  0.4337770000000  0.4267210000000 1.0
C      1  0.4188970000000  0.4055000000000  0.4917720000000 1.0
C      1  0.4322980000000  0.4124600000000  0.5407870000000 1.0
C      1  0.4404430000000  0.4402260000000  0.5815540000000 1.0
C      1  0.4326030000000  0.4885180000000  0.5986640000000 1.0
C      1  0.4415710000000  0.4248370000000  0.4527510000000 1.0
C      1  0.4409110000000  0.4127580000000  0.5119060000000 1.0
C      1  0.4530740000000  0.4276250000000  0.5568110000000 1.0
C      1  0.4497080000000  0.4688610000000  0.5832270000000 1.0
C      1  0.4403200000000  0.5172240000000  0.5897450000000 1.0
C      1  0.4462940000000  0.5563420000000  0.5586030000000 1.0
C      1  0.4498370000000  0.5802310000000  0.5120470000000 1.0
C      1  0.4477140000000  0.5832350000000  0.4618630000000 1.0
C      1  0.4417510000000  0.5514170000000  0.4249700000000 1.0
C      1  0.4375850000000  0.5065170000000  0.4059000000000 1.0
C      1  0.4433450000000  0.4611120000000  0.4210210000000 1.0
C      1  0.5123900000000  0.5808290000000  0.4967310000000 1.0
C      1  0.5134790000000  0.5645840000000  0.4505910000000 1.0
C      1  0.5169870000000  0.5307170000000  0.4210690000000 1.0
C      1  0.4973750000000  0.4798150000000  0.4061120000000 1.0
C      1  0.5071810000000  0.4612120000000  0.4553070000000 1.0
C      1  0.5140980000000  0.4312820000000  0.4821290000000 1.0
C      1  0.5064990000000  0.4273250000000  0.5211600000000 1.0
C      1  0.5052180000000  0.4318710000000  0.5525260000000 1.0
C      1  0.5199190000000  0.4959490000000  0.5817110000000 1.0
C      1  0.5141710000000  0.5354330000000  0.5844350000000 1.0
C      1  0.5112900000000  0.5639820000000  0.5415170000000 1.0
C      1  0.4143620000000  0.3965920000000  0.5509950000000 1.0
C      1  0.4273220000000  0.4272550000000  0.5998880000000 1.0
C      1  0.4179940000000  0.4829010000000  0.6194600000000 1.0
C      1  0.4081530000000  0.5554820000000  0.5918960000000 1.0
C      1  0.4114700000000  0.5865440000000  0.5421240000000 1.0
C      1  0.4142300000000  0.6075730000000  0.4893450000000 1.0
C      1  0.4150620000000  0.5939790000000  0.4246860000000 1.0
C      1  0.4114810000000  0.5441260000000  0.3848970000000 1.0
C      1  0.4135530000000  0.4696640000000  0.3813260000000 1.0
C      1  0.4209240000000  0.4186550000000  0.4086930000000 1.0
C      1  0.4230370000000  0.4067250000000  0.4670430000000 1.0
C      1  0.5662120000000  0.4975120000000  0.5017130000000 1.0
C      1  0.5464070000000  0.5110960000000  0.5106990000000 1.0
END
