TITL C-3289327-5623-100 -0.00179993040691911 125000 -886.133733144773 0 0 164 (C1) n - 1
REM
REM in /nfs/bkarasulu/CARBON/AIRSS/Generating-Clusters/AIREBO/with-SteepDescent/Higher-Symm/SD-CG/HFTN-CG
REM
REM
REM
REM
REM
REM ./C.cell (b20cbc046b6831c77cfcea5457e17084)
REM
REM compiler GCC version 9.2.1 20190827 (Red Hat 9.2.1-1)
REM options -cpp -mtune=generic -march=x86-64 -g -O0 -fpre-include=/usr/include/finclude/math-vector-fortran.h
REM seed -480330244 -1179805751 1908115513 -1126173999 139502627 780504177 -1647225833 -655794206 1566926780 835999970 1937685249 150797232 1769207842 1792434944 1917049013 -897429350 -1759093401 1385222141 -691397779 1163258000 1354936467 -1786635165 780817627 -1412595496 -1699326701 1960496809 1716269729 -612057265 1807913210 1908046804 533962342 -921449770 1899639113
REM
CELL 1.54180   50.00000   50.00000   50.00000   90.00000   90.00000   90.00000
LATT -1
SFAC C  
C      1  0.5035400000000  0.4685480000000  0.3938200000000 1.0
C      1  0.5277970000000  0.4856100000000  0.3899710000000 1.0
C      1  0.5264920000000  0.5132190000000  0.3851410000000 1.0
C      1  0.5066420000000  0.5279000000000  0.3988690000000 1.0
C      1  0.4801800000000  0.5253110000000  0.3891650000000 1.0
C      1  0.4672850000000  0.5010440000000  0.3959470000000 1.0
C      1  0.4784710000000  0.4776350000000  0.3843860000000 1.0
C      1  0.5225550000000  0.3911750000000  0.5146150000000 1.0
C      1  0.6101860000000  0.4478640000000  0.5197940000000 1.0
C      1  0.5903420000000  0.5463610000000  0.5103130000000 1.0
C      1  0.5109880000000  0.6049120000000  0.5073790000000 1.0
C      1  0.4226360000000  0.5855140000000  0.5088700000000 1.0
C      1  0.3994560000000  0.5009720000000  0.5206900000000 1.0
C      1  0.4263710000000  0.4172460000000  0.5304470000000 1.0
C      1  0.4089890000000  0.4410410000000  0.4915340000000 1.0
C      1  0.4854200000000  0.3811900000000  0.4878110000000 1.0
C      1  0.5896160000000  0.4177600000000  0.4864390000000 1.0
C      1  0.6262590000000  0.5187680000000  0.4924600000000 1.0
C      1  0.5582270000000  0.5904120000000  0.4945370000000 1.0
C      1  0.4587760000000  0.6266950000000  0.5067310000000 1.0
C      1  0.3802160000000  0.5382420000000  0.4887430000000 1.0
C      1  0.5584890000000  0.5406390000000  0.5028630000000 1.0
C      1  0.5041940000000  0.5718200000000  0.5112800000000 1.0
C      1  0.4421450000000  0.5607570000000  0.5107310000000 1.0
C      1  0.4262950000000  0.4849210000000  0.5073190000000 1.0
C      1  0.4520380000000  0.4169730000000  0.5133020000000 1.0
C      1  0.5614970000000  0.4229970000000  0.4971430000000 1.0
C      1  0.5912650000000  0.4672990000000  0.5068510000000 1.0
C      1  0.4284950000000  0.5379190000000  0.5763680000000 1.0
C      1  0.4241810000000  0.4836070000000  0.5663060000000 1.0
C      1  0.4971210000000  0.4230030000000  0.5699410000000 1.0
C      1  0.5454820000000  0.4396600000000  0.5917940000000 1.0
C      1  0.5690280000000  0.4964770000000  0.5734140000000 1.0
C      1  0.5426510000000  0.5499640000000  0.6009020000000 1.0
C      1  0.4878070000000  0.5653390000000  0.5950950000000 1.0
C      1  0.5521930000000  0.5431690000000  0.4446860000000 1.0
C      1  0.4944810000000  0.5721490000000  0.4536970000000 1.0
C      1  0.4539880000000  0.5491340000000  0.4523490000000 1.0
C      1  0.4375450000000  0.4720530000000  0.4433580000000 1.0
C      1  0.4825150000000  0.4419040000000  0.4568710000000 1.0
C      1  0.5442070000000  0.4336510000000  0.4481910000000 1.0
C      1  0.5736150000000  0.5030750000000  0.4642540000000 1.0
C      1  0.5375130000000  0.4716370000000  0.5090170000000 1.0
C      1  0.5409700000000  0.5047430000000  0.5027890000000 1.0
C      1  0.5256820000000  0.5345470000000  0.4964400000000 1.0
C      1  0.4790560000000  0.5529300000000  0.4982690000000 1.0
C      1  0.4550330000000  0.5107810000000  0.4852430000000 1.0
C      1  0.4551510000000  0.4714770000000  0.4952660000000 1.0
C      1  0.4980100000000  0.4408240000000  0.5067220000000 1.0
C      1  0.5245580000000  0.4800780000000  0.5959270000000 1.0
C      1  0.5272990000000  0.5104090000000  0.6025820000000 1.0
C      1  0.5008330000000  0.5279210000000  0.5903710000000 1.0
C      1  0.4721750000000  0.5292060000000  0.6015360000000 1.0
C      1  0.4707210000000  0.4992360000000  0.5934940000000 1.0
C      1  0.4721910000000  0.4713390000000  0.5905790000000 1.0
C      1  0.4998670000000  0.4599900000000  0.5846660000000 1.0
C      1  0.5132740000000  0.5616330000000  0.4800500000000 1.0
C      1  0.4586810000000  0.5790970000000  0.4906480000000 1.0
C      1  0.4275500000000  0.5173860000000  0.4980870000000 1.0
C      1  0.4415130000000  0.4425730000000  0.4957230000000 1.0
C      1  0.5089400000000  0.4237570000000  0.4836340000000 1.0
C      1  0.5579570000000  0.4512810000000  0.4684970000000 1.0
C      1  0.5703910000000  0.5103000000000  0.4931690000000 1.0
C      1  0.5590280000000  0.5882090000000  0.4670080000000 1.0
C      1  0.4595380000000  0.6114610000000  0.4833140000000 1.0
C      1  0.3837940000000  0.5305800000000  0.4623600000000 1.0
C      1  0.4071770000000  0.4329170000000  0.4640210000000 1.0
C      1  0.4913530000000  0.3925100000000  0.4626290000000 1.0
C      1  0.5950380000000  0.4231510000000  0.4587200000000 1.0
C      1  0.6250220000000  0.5307030000000  0.4671960000000 1.0
C      1  0.5316360000000  0.4767690000000  0.4208010000000 1.0
C      1  0.5294890000000  0.5032680000000  0.4395350000000 1.0
C      1  0.5085680000000  0.5276020000000  0.4297340000000 1.0
C      1  0.4798030000000  0.5212140000000  0.4400600000000 1.0
C      1  0.4622580000000  0.4985510000000  0.4264870000000 1.0
C      1  0.4742810000000  0.4683760000000  0.4291420000000 1.0
C      1  0.5041430000000  0.4568530000000  0.4243540000000 1.0
C      1  0.6254050000000  0.4541650000000  0.5415200000000 1.0
C      1  0.5872660000000  0.5634430000000  0.5386810000000 1.0
C      1  0.4964400000000  0.6255080000000  0.5191820000000 1.0
C      1  0.4196730000000  0.5781640000000  0.5385020000000 1.0
C      1  0.3974610000000  0.4971020000000  0.5506460000000 1.0
C      1  0.4195870000000  0.3981200000000  0.5485450000000 1.0
C      1  0.5362200000000  0.4043030000000  0.5361200000000 1.0
C      1  0.5510900000000  0.4818430000000  0.4552520000000 1.0
C      1  0.5297480000000  0.5265990000000  0.4636270000000 1.0
C      1  0.5017890000000  0.5109610000000  0.4714520000000 1.0
C      1  0.4751080000000  0.5313430000000  0.4721860000000 1.0
C      1  0.4501240000000  0.4866290000000  0.4666070000000 1.0
C      1  0.4839970000000  0.4591790000000  0.4821120000000 1.0
C      1  0.5283160000000  0.4756780000000  0.4789520000000 1.0
C      1  0.5420290000000  0.6078180000000  0.5153060000000 1.0
C      1  0.4545140000000  0.6111760000000  0.5296460000000 1.0
C      1  0.3932380000000  0.5326160000000  0.5114440000000 1.0
C      1  0.4113810000000  0.4401800000000  0.5218560000000 1.0
C      1  0.4947850000000  0.3917360000000  0.5125140000000 1.0
C      1  0.6096100000000  0.4231200000000  0.5059460000000 1.0
C      1  0.6053600000000  0.5198020000000  0.5100050000000 1.0
C      1  0.4457360000000  0.4843050000000  0.5417050000000 1.0
C      1  0.4835040000000  0.4338590000000  0.5491610000000 1.0
C      1  0.5445430000000  0.4288610000000  0.5262010000000 1.0
C      1  0.5663440000000  0.4977970000000  0.5413750000000 1.0
C      1  0.5583120000000  0.5555120000000  0.5323380000000 1.0
C      1  0.4833770000000  0.5699710000000  0.5384570000000 1.0
C      1  0.4373480000000  0.5506890000000  0.5487330000000 1.0
C      1  0.5356350000000  0.5229610000000  0.5722800000000 1.0
C      1  0.5065790000000  0.5207430000000  0.5574380000000 1.0
C      1  0.4700170000000  0.5417610000000  0.5519790000000 1.0
C      1  0.4688000000000  0.5126120000000  0.5655570000000 1.0
C      1  0.4717740000000  0.4643890000000  0.5507320000000 1.0
C      1  0.5115410000000  0.4626790000000  0.5527550000000 1.0
C      1  0.5324070000000  0.4842240000000  0.5631050000000 1.0
C      1  0.5345980000000  0.5846140000000  0.4554950000000 1.0
C      1  0.4487780000000  0.5976140000000  0.4571510000000 1.0
C      1  0.4043120000000  0.5098810000000  0.4555350000000 1.0
C      1  0.4338580000000  0.4251460000000  0.4556820000000 1.0
C      1  0.5207620000000  0.4035360000000  0.4591680000000 1.0
C      1  0.5888510000000  0.4498920000000  0.4434640000000 1.0
C      1  0.6019510000000  0.5466750000000  0.4619440000000 1.0
C      1  0.5476180000000  0.5608970000000  0.4160330000000 1.0
C      1  0.4656310000000  0.5794610000000  0.4153880000000 1.0
C      1  0.4323860000000  0.5353580000000  0.4430460000000 1.0
C      1  0.4084380000000  0.4705290000000  0.4306820000000 1.0
C      1  0.4744120000000  0.4104710000000  0.4511070000000 1.0
C      1  0.5605380000000  0.4301440000000  0.4233980000000 1.0
C      1  0.5912880000000  0.5031060000000  0.4360470000000 1.0
C      1  0.5159420000000  0.5546530000000  0.5984690000000 1.0
C      1  0.4589210000000  0.5524470000000  0.5823060000000 1.0
C      1  0.4140730000000  0.5143330000000  0.5742060000000 1.0
C      1  0.4479450000000  0.4622200000000  0.5750260000000 1.0
C      1  0.5195730000000  0.4335580000000  0.5867740000000 1.0
C      1  0.5546940000000  0.4694150000000  0.5840810000000 1.0
C      1  0.5595540000000  0.5210380000000  0.5948700000000 1.0
C      1  0.4195440000000  0.4649880000000  0.5317940000000 1.0
C      1  0.4805620000000  0.4183470000000  0.5217660000000 1.0
C      1  0.5616180000000  0.4550570000000  0.5013270000000 1.0
C      1  0.5860000000000  0.4955230000000  0.5167790000000 1.0
C      1  0.5381910000000  0.5740720000000  0.5168900000000 1.0
C      1  0.4584820000000  0.5831800000000  0.5303790000000 1.0
C      1  0.4248960000000  0.5380910000000  0.5201860000000 1.0
C      1  0.5616450000000  0.4637470000000  0.4284650000000 1.0
C      1  0.5792870000000  0.5317510000000  0.4487060000000 1.0
C      1  0.5217210000000  0.5574230000000  0.4396460000000 1.0
C      1  0.4656980000000  0.5758430000000  0.4435890000000 1.0
C      1  0.4301340000000  0.5035920000000  0.4364380000000 1.0
C      1  0.4527200000000  0.4446260000000  0.4407850000000 1.0
C      1  0.5128520000000  0.4330920000000  0.4442980000000 1.0
C      1  0.5362740000000  0.4054340000000  0.4893810000000 1.0
C      1  0.5904220000000  0.4591800000000  0.4748360000000 1.0
C      1  0.5957140000000  0.5624240000000  0.4834430000000 1.0
C      1  0.5119380000000  0.5953680000000  0.4762160000000 1.0
C      1  0.4260920000000  0.5916270000000  0.4800570000000 1.0
C      1  0.3999010000000  0.5026840000000  0.4859910000000 1.0
C      1  0.4472340000000  0.4127180000000  0.4799130000000 1.0
C      1  0.5142860000000  0.5374500000000  0.5286870000000 1.0
C      1  0.4818380000000  0.5293000000000  0.5226280000000 1.0
C      1  0.4596230000000  0.5043090000000  0.5176540000000 1.0
C      1  0.4780500000000  0.4770190000000  0.5197910000000 1.0
C      1  0.5212100000000  0.4509110000000  0.5254270000000 1.0
C      1  0.5333670000000  0.5023030000000  0.5343260000000 1.0
C      1  0.5420320000000  0.5335940000000  0.5444500000000 1.0
C      1  0.5011110000000  0.5009720000000  0.5232930000000 1.0
C      1  0.4923770000000  0.4898820000000  0.5598180000000 1.0
C      1  0.5022460000000  0.4836540000000  0.4754880000000 1.0
END
