TITL C-3289322-3858-212 0.00060765850456976 125000 -534.327774091471 0 0 99 (C1) n - 1
REM
REM in /nfs/bkarasulu/CARBON/AIRSS/Generating-Clusters/AIREBO/with-SteepDescent/Higher-Symm/SD-CG/HFTN-CG
REM
REM
REM
REM
REM
REM ./C.cell (b20cbc046b6831c77cfcea5457e17084)
REM
REM compiler GCC version 9.2.1 20190827 (Red Hat 9.2.1-1)
REM options -cpp -mtune=generic -march=x86-64 -g -O0 -fpre-include=/usr/include/finclude/math-vector-fortran.h
REM seed -21784022 -1946857159 252573129 -977085284 -512846719 238310308 246805622 -1841333732 509603745 627610970 204391042 1775297049 161217201 1822202123 1816518280 2059853113 52667053 178505038 -1823554596 138324219 -1315671764 68779149 1381544544 561566585 -1579356760 89535814 380904163 -2135110059 -1542526149 2100658190 -1810600823 1284150219 -648124381
REM
CELL 1.54180   50.00000   50.00000   50.00000   90.00000   90.00000   90.00000
LATT -1
SFAC C  
C      1  0.5056530000000  0.4109560000000  0.5173930000000 1.0
C      1  0.5743140000000  0.4543490000000  0.4893480000000 1.0
C      1  0.4589960000000  0.5018710000000  0.5290930000000 1.0
C      1  0.5665560000000  0.5539430000000  0.4770560000000 1.0
C      1  0.4578890000000  0.4326120000000  0.4911760000000 1.0
C      1  0.5199990000000  0.4393460000000  0.5573860000000 1.0
C      1  0.4505140000000  0.4815180000000  0.4281070000000 1.0
C      1  0.5674560000000  0.4746160000000  0.4641720000000 1.0
C      1  0.5250720000000  0.4802540000000  0.5414750000000 1.0
C      1  0.4802570000000  0.4394730000000  0.4507440000000 1.0
C      1  0.4217360000000  0.5109450000000  0.4863790000000 1.0
C      1  0.4159780000000  0.4691230000000  0.5229200000000 1.0
C      1  0.4599810000000  0.5404740000000  0.4868570000000 1.0
C      1  0.5214340000000  0.5074500000000  0.4666150000000 1.0
C      1  0.5532170000000  0.4278720000000  0.4877540000000 1.0
C      1  0.5465230000000  0.5516460000000  0.5614700000000 1.0
C      1  0.4640490000000  0.4532300000000  0.5707870000000 1.0
C      1  0.4952440000000  0.4664730000000  0.4464400000000 1.0
C      1  0.4220680000000  0.5175710000000  0.4470480000000 1.0
C      1  0.4930200000000  0.5261270000000  0.4662390000000 1.0
C      1  0.4176440000000  0.4928830000000  0.4474270000000 1.0
C      1  0.5411150000000  0.5265860000000  0.4201110000000 1.0
C      1  0.5037050000000  0.5351870000000  0.4094940000000 1.0
C      1  0.5264820000000  0.5103500000000  0.5007170000000 1.0
C      1  0.4420740000000  0.4830030000000  0.5063480000000 1.0
C      1  0.5133290000000  0.5382180000000  0.4906810000000 1.0
C      1  0.5138870000000  0.5519540000000  0.5824740000000 1.0
C      1  0.5541210000000  0.5216220000000  0.5538260000000 1.0
C      1  0.4984520000000  0.5760340000000  0.5240900000000 1.0
C      1  0.5256400000000  0.4334450000000  0.5282980000000 1.0
C      1  0.4536630000000  0.5575680000000  0.5295990000000 1.0
C      1  0.5008470000000  0.5553260000000  0.4567710000000 1.0
C      1  0.5104030000000  0.5780060000000  0.4930490000000 1.0
C      1  0.4938340000000  0.4699860000000  0.4999380000000 1.0
C      1  0.4969990000000  0.4565570000000  0.5630550000000 1.0
C      1  0.4344350000000  0.5167750000000  0.5774630000000 1.0
C      1  0.5315700000000  0.5704070000000  0.5188300000000 1.0
C      1  0.4852320000000  0.5769360000000  0.4727090000000 1.0
C      1  0.5399760000000  0.4823250000000  0.5109840000000 1.0
C      1  0.5709820000000  0.5034050000000  0.4742270000000 1.0
C      1  0.5471760000000  0.4685170000000  0.5601280000000 1.0
C      1  0.5352600000000  0.5603940000000  0.4807320000000 1.0
C      1  0.4694850000000  0.4396060000000  0.5400720000000 1.0
C      1  0.4460150000000  0.5674200000000  0.4462990000000 1.0
C      1  0.5816810000000  0.5532230000000  0.4995760000000 1.0
C      1  0.4853860000000  0.5466070000000  0.5350350000000 1.0
C      1  0.5416590000000  0.4417200000000  0.5768350000000 1.0
C      1  0.4389750000000  0.5794240000000  0.5441990000000 1.0
C      1  0.4888680000000  0.5144920000000  0.4177520000000 1.0
C      1  0.4607930000000  0.4771110000000  0.5499430000000 1.0
C      1  0.5067480000000  0.5117330000000  0.5575950000000 1.0
C      1  0.5670620000000  0.5279720000000  0.4611850000000 1.0
C      1  0.4389730000000  0.4675930000000  0.4553450000000 1.0
C      1  0.5564400000000  0.4759600000000  0.4351750000000 1.0
C      1  0.4817330000000  0.4825560000000  0.4229030000000 1.0
C      1  0.5793100000000  0.4755550000000  0.5121170000000 1.0
C      1  0.4747210000000  0.4492350000000  0.5142200000000 1.0
C      1  0.4618550000000  0.5852840000000  0.4546610000000 1.0
C      1  0.5563880000000  0.4435450000000  0.5177610000000 1.0
C      1  0.5128900000000  0.4826800000000  0.4146490000000 1.0
C      1  0.4383560000000  0.5289000000000  0.5290760000000 1.0
C      1  0.4890280000000  0.4189670000000  0.4926860000000 1.0
C      1  0.4447530000000  0.4910100000000  0.4766370000000 1.0
C      1  0.4424220000000  0.5267860000000  0.4117810000000 1.0
C      1  0.5659090000000  0.5033770000000  0.5046150000000 1.0
C      1  0.4767990000000  0.5187940000000  0.5526140000000 1.0
C      1  0.4674290000000  0.4820380000000  0.5888420000000 1.0
C      1  0.5023620000000  0.4187290000000  0.4618810000000 1.0
C      1  0.5149760000000  0.5225470000000  0.5815540000000 1.0
C      1  0.5207890000000  0.4320000000000  0.4871860000000 1.0
C      1  0.5725070000000  0.5306600000000  0.5196570000000 1.0
C      1  0.5302660000000  0.5125470000000  0.5346450000000 1.0
C      1  0.5867790000000  0.5169430000000  0.5454010000000 1.0
C      1  0.4957230000000  0.4849080000000  0.4704430000000 1.0
C      1  0.4931170000000  0.4791030000000  0.5387630000000 1.0
C      1  0.5319260000000  0.4617060000000  0.4250750000000 1.0
C      1  0.4614340000000  0.5079340000000  0.5793430000000 1.0
C      1  0.4276830000000  0.4835480000000  0.5456530000000 1.0
C      1  0.4326920000000  0.5325020000000  0.4994440000000 1.0
C      1  0.4357860000000  0.4494720000000  0.5078580000000 1.0
C      1  0.5471810000000  0.4473590000000  0.4614430000000 1.0
C      1  0.4931100000000  0.4678490000000  0.5936770000000 1.0
C      1  0.5196980000000  0.4431230000000  0.4472940000000 1.0
C      1  0.5724720000000  0.4636630000000  0.5401200000000 1.0
C      1  0.5161410000000  0.5495570000000  0.5492360000000 1.0
C      1  0.4731910000000  0.5673160000000  0.5030690000000 1.0
C      1  0.5206640000000  0.5511820000000  0.4316370000000 1.0
C      1  0.5361520000000  0.5368850000000  0.4580480000000 1.0
C      1  0.4597340000000  0.5138970000000  0.4344080000000 1.0
C      1  0.4870800000000  0.4992990000000  0.5120630000000 1.0
C      1  0.5698160000000  0.4919330000000  0.5591420000000 1.0
C      1  0.5510320000000  0.5544880000000  0.5305790000000 1.0
C      1  0.4864370000000  0.5298670000000  0.5054530000000 1.0
C      1  0.5213340000000  0.4584380000000  0.5059390000000 1.0
C      1  0.5328770000000  0.5001410000000  0.4352140000000 1.0
C      1  0.4478430000000  0.5376590000000  0.4556470000000 1.0
C      1  0.4544480000000  0.4423890000000  0.4622690000000 1.0
C      1  0.4243830000000  0.5111790000000  0.5514790000000 1.0
C      1  0.4699130000000  0.5042550000000  0.4653940000000 1.0
END
