TITL C-3289321-8710-486 0.000485482961546948 125000 -455.950322103415 0 0 98 (C1) n - 1
REM
REM in /nfs/bkarasulu/CARBON/AIRSS/Generating-Clusters/AIREBO/with-SteepDescent/Higher-Symm/SD-CG/HFTN-CG
REM
REM
REM
REM
REM
REM ./C.cell (b20cbc046b6831c77cfcea5457e17084)
REM
REM compiler GCC version 9.2.1 20190827 (Red Hat 9.2.1-1)
REM options -cpp -mtune=generic -march=x86-64 -g -O0 -fpre-include=/usr/include/finclude/math-vector-fortran.h
REM seed 2055465152 1966116424 -1309055062 -1825579962 -722267404 -814672225 701101589 214429253 73251077 -1154362306 71980800 -1148128071 -1610972191 1145465469 -420884312 431025373 -427788328 -1784175213 988266005 123530531 503419349 2031058121 523349741 -1791901083 1864689796 -2030925730 -583324037 560340686 130711649 673184983 -9143725 -226860546 -1253987053
REM
CELL 1.54180   50.00000   50.00000   50.00000   90.00000   90.00000   90.00000
LATT -1
SFAC C  
C      1  0.4906060000000  0.5436870000000  0.4346620000000 1.0
C      1  0.4295860000000  0.5523150000000  0.5156440000000 1.0
C      1  0.5098390000000  0.5425740000000  0.5662610000000 1.0
C      1  0.5651830000000  0.5505550000000  0.4877680000000 1.0
C      1  0.4909840000000  0.4511590000000  0.4347200000000 1.0
C      1  0.4317120000000  0.4556650000000  0.5084400000000 1.0
C      1  0.4913650000000  0.4515800000000  0.5833310000000 1.0
C      1  0.5643340000000  0.4580570000000  0.4916990000000 1.0
C      1  0.4332970000000  0.5426860000000  0.4595470000000 1.0
C      1  0.4569450000000  0.5463220000000  0.5694460000000 1.0
C      1  0.5668770000000  0.5433620000000  0.5425020000000 1.0
C      1  0.5434430000000  0.5457600000000  0.4309250000000 1.0
C      1  0.4324190000000  0.4528530000000  0.4556770000000 1.0
C      1  0.4559870000000  0.4556400000000  0.5653260000000 1.0
C      1  0.5717480000000  0.4541650000000  0.5431470000000 1.0
C      1  0.5445380000000  0.4522330000000  0.4326580000000 1.0
C      1  0.4790470000000  0.5160350000000  0.5546300000000 1.0
C      1  0.5495810000000  0.5167150000000  0.5183340000000 1.0
C      1  0.5233140000000  0.5157940000000  0.4479820000000 1.0
C      1  0.4520470000000  0.5154240000000  0.4819150000000 1.0
C      1  0.4793320000000  0.4827850000000  0.5475090000000 1.0
C      1  0.5534490000000  0.4832860000000  0.5231850000000 1.0
C      1  0.5215990000000  0.4818780000000  0.4462830000000 1.0
C      1  0.4494550000000  0.4818500000000  0.4771860000000 1.0
C      1  0.4739120000000  0.5157660000000  0.5081190000000 1.0
C      1  0.5010220000000  0.5149530000000  0.5287090000000 1.0
C      1  0.5289660000000  0.5163720000000  0.4934600000000 1.0
C      1  0.5007990000000  0.5147830000000  0.4734560000000 1.0
C      1  0.4687440000000  0.4850050000000  0.5036610000000 1.0
C      1  0.5056330000000  0.4821430000000  0.5252260000000 1.0
C      1  0.5194480000000  0.4860020000000  0.4943850000000 1.0
C      1  0.4971510000000  0.4818060000000  0.4696310000000 1.0
C      1  0.5200960000000  0.5618370000000  0.4756100000000 1.0
C      1  0.4762050000000  0.5606580000000  0.4803800000000 1.0
C      1  0.4802620000000  0.5606100000000  0.5255180000000 1.0
C      1  0.5244280000000  0.5614750000000  0.5220240000000 1.0
C      1  0.5213000000000  0.4381040000000  0.4771050000000 1.0
C      1  0.4754960000000  0.4372400000000  0.4797390000000 1.0
C      1  0.4764580000000  0.4377160000000  0.5242830000000 1.0
C      1  0.5258220000000  0.4371930000000  0.5222670000000 1.0
C      1  0.4985960000000  0.4778920000000  0.5751040000000 1.0
C      1  0.5693850000000  0.4904660000000  0.4957200000000 1.0
C      1  0.4994770000000  0.4798840000000  0.4197510000000 1.0
C      1  0.4291860000000  0.4892070000000  0.5034810000000 1.0
C      1  0.5036940000000  0.5115550000000  0.5776310000000 1.0
C      1  0.5774390000000  0.5218080000000  0.4989580000000 1.0
C      1  0.4956370000000  0.5115730000000  0.4286880000000 1.0
C      1  0.4239940000000  0.5226020000000  0.5002260000000 1.0
C      1  0.5692810000000  0.5172490000000  0.4662660000000 1.0
C      1  0.4631430000000  0.5135270000000  0.4355990000000 1.0
C      1  0.4315070000000  0.5162020000000  0.5324360000000 1.0
C      1  0.5354870000000  0.5121970000000  0.5655940000000 1.0
C      1  0.5647510000000  0.4862810000000  0.4634150000000 1.0
C      1  0.4678100000000  0.4832270000000  0.4316730000000 1.0
C      1  0.4327250000000  0.4853400000000  0.5362310000000 1.0
C      1  0.5288390000000  0.4821450000000  0.5680100000000 1.0
C      1  0.5174070000000  0.5579320000000  0.4419330000000 1.0
C      1  0.4427510000000  0.5563210000000  0.4847020000000 1.0
C      1  0.4839760000000  0.5576450000000  0.5591950000000 1.0
C      1  0.5581890000000  0.5599620000000  0.5182050000000 1.0
C      1  0.5188530000000  0.4393500000000  0.4432070000000 1.0
C      1  0.4417770000000  0.4409690000000  0.4821740000000 1.0
C      1  0.4816730000000  0.4346890000000  0.5577450000000 1.0
C      1  0.5591620000000  0.4423370000000  0.5179290000000 1.0
C      1  0.4739020000000  0.5321660000000  0.4619560000000 1.0
C      1  0.4608020000000  0.5334540000000  0.5318860000000 1.0
C      1  0.5278300000000  0.5323590000000  0.5392690000000 1.0
C      1  0.5407670000000  0.5355400000000  0.4694700000000 1.0
C      1  0.4723680000000  0.4646120000000  0.4598000000000 1.0
C      1  0.4586610000000  0.4654760000000  0.5267850000000 1.0
C      1  0.5311030000000  0.4670800000000  0.5376040000000 1.0
C      1  0.5379150000000  0.4674080000000  0.4723830000000 1.0
C      1  0.4375790000000  0.5541800000000  0.5456040000000 1.0
C      1  0.5444230000000  0.5454440000000  0.5659220000000 1.0
C      1  0.5672350000000  0.5490850000000  0.4529530000000 1.0
C      1  0.4562350000000  0.5471210000000  0.4370290000000 1.0
C      1  0.4321320000000  0.4517450000000  0.5430540000000 1.0
C      1  0.5494250000000  0.4552290000000  0.5637140000000 1.0
C      1  0.5646770000000  0.4525190000000  0.4575800000000 1.0
C      1  0.4559490000000  0.4508300000000  0.4333960000000 1.0
C      1  0.5459410000000  0.4829010000000  0.4225620000000 1.0
C      1  0.4215600000000  0.4823230000000  0.4570490000000 1.0
C      1  0.4563790000000  0.4860130000000  0.5726310000000 1.0
C      1  0.5826810000000  0.4835780000000  0.5405500000000 1.0
C      1  0.5434390000000  0.5156240000000  0.4203840000000 1.0
C      1  0.4272610000000  0.5124460000000  0.4588220000000 1.0
C      1  0.4558020000000  0.5165710000000  0.5794380000000 1.0
C      1  0.5750250000000  0.5135270000000  0.5411000000000 1.0
C      1  0.4974800000000  0.4193760000000  0.4616510000000 1.0
C      1  0.4588610000000  0.4193030000000  0.5033620000000 1.0
C      1  0.5070270000000  0.4197460000000  0.5427350000000 1.0
C      1  0.5418480000000  0.4211260000000  0.4969110000000 1.0
C      1  0.4954260000000  0.5786740000000  0.4593520000000 1.0
C      1  0.4604880000000  0.5779150000000  0.5051380000000 1.0
C      1  0.5039770000000  0.5793750000000  0.5411180000000 1.0
C      1  0.5387290000000  0.5791800000000  0.4967490000000 1.0
C      1  0.4997750000000  0.4459330000000  0.5022350000000 1.0
C      1  0.5007550000000  0.5494380000000  0.5007930000000 1.0
END
