TITL C-3289332-8317-44 0.000641009606095084 125000 -332.589868661416 0 0 54 (C1) n - 1
REM
REM in /nfs/bkarasulu/CARBON/AIRSS/Generating-Clusters/AIREBO/with-SteepDescent/Higher-Symm/SD-CG/HFTN-CG
REM
REM
REM
REM
REM
REM ./C.cell (b20cbc046b6831c77cfcea5457e17084)
REM
REM compiler GCC version 9.2.1 20190827 (Red Hat 9.2.1-1)
REM options -cpp -mtune=generic -march=x86-64 -g -O0 -fpre-include=/usr/include/finclude/math-vector-fortran.h
REM seed -762578897 1450391408 -2002353120 -1354103903 -1844637157 246180028 1883983954 1576209558 -913935495 -702644665 -1259962619 1858348722 337989532 -1507270970 -2129218687 -2131235080 1368426749 1146373675 -482938184 -1824811202 56742031 -1334095158 -39795502 1308935330 792384705 870291791 -2103900670 1888239732 -441447379 284474391 -845776970 1399454536 466892163
REM
CELL 1.54180   50.00000   50.00000   50.00000   90.00000   90.00000   90.00000
LATT -1
SFAC C  
C      1  0.5100330000000  0.4870290000000  0.4332310000000 1.0
C      1  0.5102690000000  0.4473160000000  0.4596380000000 1.0
C      1  0.5079940000000  0.4295480000000  0.4983620000000 1.0
C      1  0.5098310000000  0.4487210000000  0.5454720000000 1.0
C      1  0.5098600000000  0.4886670000000  0.5672400000000 1.0
C      1  0.5070770000000  0.5384740000000  0.5577790000000 1.0
C      1  0.5088820000000  0.5628840000000  0.5225250000000 1.0
C      1  0.5088420000000  0.5633680000000  0.4747840000000 1.0
C      1  0.5108510000000  0.5319400000000  0.4421640000000 1.0
C      1  0.4659890000000  0.4359180000000  0.4774860000000 1.0
C      1  0.4677320000000  0.4380290000000  0.5230630000000 1.0
C      1  0.4670290000000  0.4676690000000  0.5576230000000 1.0
C      1  0.4672610000000  0.5127120000000  0.5639060000000 1.0
C      1  0.4648310000000  0.5523640000000  0.5414030000000 1.0
C      1  0.4670500000000  0.5657300000000  0.4980410000000 1.0
C      1  0.4673460000000  0.5498120000000  0.4554580000000 1.0
C      1  0.4680710000000  0.5099640000000  0.4337560000000 1.0
C      1  0.4684190000000  0.4655090000000  0.4431410000000 1.0
C      1  0.4485430000000  0.4790510000000  0.5365740000000 1.0
C      1  0.4493130000000  0.5078210000000  0.5404980000000 1.0
C      1  0.4472240000000  0.5330390000000  0.5259740000000 1.0
C      1  0.4488710000000  0.5419370000000  0.4981810000000 1.0
C      1  0.4486130000000  0.5318400000000  0.4708790000000 1.0
C      1  0.4490640000000  0.5062490000000  0.4568920000000 1.0
C      1  0.4496660000000  0.4778070000000  0.4629940000000 1.0
C      1  0.4479640000000  0.4590350000000  0.4853450000000 1.0
C      1  0.4496620000000  0.4602520000000  0.5144430000000 1.0
C      1  0.5272000000000  0.4640630000000  0.5260130000000 1.0
C      1  0.5280430000000  0.4969160000000  0.5441030000000 1.0
C      1  0.5207010000000  0.5250380000000  0.5378800000000 1.0
C      1  0.5322530000000  0.5409470000000  0.5131460000000 1.0
C      1  0.5236610000000  0.5424890000000  0.4830750000000 1.0
C      1  0.5344270000000  0.5205880000000  0.4629750000000 1.0
C      1  0.5246470000000  0.4915270000000  0.4553770000000 1.0
C      1  0.5334830000000  0.4672730000000  0.4732100000000 1.0
C      1  0.5214030000000  0.4536180000000  0.4991760000000 1.0
C      1  0.4830360000000  0.5339760000000  0.4375910000000 1.0
C      1  0.4822960000000  0.4858340000000  0.4290640000000 1.0
C      1  0.4824530000000  0.4440470000000  0.4554590000000 1.0
C      1  0.4800720000000  0.4264760000000  0.5002840000000 1.0
C      1  0.4816710000000  0.4457840000000  0.5467090000000 1.0
C      1  0.4815960000000  0.4888230000000  0.5700920000000 1.0
C      1  0.4792010000000  0.5382950000000  0.5614860000000 1.0
C      1  0.4808940000000  0.5671980000000  0.5228540000000 1.0
C      1  0.4810420000000  0.5670360000000  0.4734120000000 1.0
C      1  0.5557750000000  0.4718390000000  0.5271940000000 1.0
C      1  0.5591970000000  0.4963220000000  0.5418850000000 1.0
C      1  0.5714600000000  0.5204980000000  0.5347140000000 1.0
C      1  0.5622670000000  0.5366130000000  0.5134930000000 1.0
C      1  0.5738760000000  0.5358930000000  0.4878640000000 1.0
C      1  0.5642780000000  0.5186580000000  0.4677690000000 1.0
C      1  0.5746860000000  0.4926460000000  0.4649510000000 1.0
C      1  0.5631260000000  0.4709140000000  0.4785880000000 1.0
C      1  0.5709710000000  0.4640020000000  0.5047890000000 1.0
END
