TITL C-3289333-7213-467 0.000711140806209019 125000 -214.132619893906 0 0 37 (C1) n - 1
REM
REM in /nfs/bkarasulu/CARBON/AIRSS/Generating-Clusters/AIREBO/with-SteepDescent/Higher-Symm/SD-CG/HFTN-CG
REM
REM
REM
REM
REM
REM ./C.cell (b20cbc046b6831c77cfcea5457e17084)
REM
REM compiler GCC version 9.2.1 20190827 (Red Hat 9.2.1-1)
REM options -cpp -mtune=generic -march=x86-64 -g -O0 -fpre-include=/usr/include/finclude/math-vector-fortran.h
REM seed -833310209 -1399684600 549048493 833510481 86048655 -1641964133 -1442515757 1100666077 -829974268 -1188899657 -682436835 -1883041767 -765954622 1128683634 -1498840157 1554573312 -872467860 -335465508 -3942350 -593685803 1612597588 220265243 570567722 66645057 -524072194 -68888938 -412123073 1579430446 -1246063607 1627086688 1948447317 -1900153690 15990284
REM
CELL 1.54180   50.00000   50.00000   50.00000   90.00000   90.00000   90.00000
LATT -1
SFAC C  
C      1  0.5002770000000  0.4865310000000  0.4518650000000 1.0
C      1  0.5081020000000  0.4559170000000  0.5047050000000 1.0
C      1  0.4367540000000  0.4658240000000  0.4937960000000 1.0
C      1  0.5097310000000  0.5408070000000  0.4357800000000 1.0
C      1  0.4711500000000  0.5540030000000  0.5591460000000 1.0
C      1  0.4721910000000  0.4854090000000  0.5640730000000 1.0
C      1  0.5180840000000  0.5659300000000  0.5083210000000 1.0
C      1  0.4844460000000  0.5363320000000  0.4755450000000 1.0
C      1  0.4922950000000  0.4395910000000  0.4404320000000 1.0
C      1  0.5713850000000  0.4654050000000  0.4975270000000 1.0
C      1  0.4574160000000  0.4882730000000  0.5404210000000 1.0
C      1  0.5407550000000  0.5059240000000  0.5593370000000 1.0
C      1  0.4938350000000  0.4967320000000  0.5766430000000 1.0
C      1  0.4867840000000  0.4567440000000  0.4861090000000 1.0
C      1  0.4296330000000  0.4833460000000  0.5376470000000 1.0
C      1  0.4872870000000  0.5466460000000  0.5388950000000 1.0
C      1  0.5312590000000  0.5255500000000  0.4448980000000 1.0
C      1  0.4807120000000  0.5041850000000  0.4407020000000 1.0
C      1  0.5290710000000  0.5433660000000  0.4967640000000 1.0
C      1  0.4744160000000  0.5562070000000  0.4928870000000 1.0
C      1  0.4935190000000  0.4195320000000  0.4236090000000 1.0
C      1  0.5570440000000  0.4968520000000  0.5395030000000 1.0
C      1  0.4644220000000  0.4708700000000  0.4962640000000 1.0
C      1  0.5680020000000  0.4717350000000  0.4680180000000 1.0
C      1  0.4203160000000  0.4686780000000  0.5159900000000 1.0
C      1  0.5486030000000  0.4853300000000  0.5124730000000 1.0
C      1  0.5014290000000  0.5223900000000  0.5383570000000 1.0
C      1  0.5080990000000  0.5205370000000  0.4886210000000 1.0
C      1  0.5186570000000  0.4792830000000  0.5134250000000 1.0
C      1  0.5225000000000  0.5031180000000  0.4664600000000 1.0
C      1  0.4714870000000  0.4901370000000  0.5158230000000 1.0
C      1  0.4849460000000  0.5318310000000  0.4473570000000 1.0
C      1  0.4936190000000  0.4602070000000  0.4587340000000 1.0
C      1  0.5457970000000  0.4888960000000  0.4786920000000 1.0
C      1  0.5130980000000  0.5101340000000  0.5610190000000 1.0
C      1  0.4907060000000  0.5626870000000  0.5155090000000 1.0
C      1  0.4994120000000  0.5039200000000  0.5137650000000 1.0
END
