TITL C-3289328-6581-500 0.00146161729816543 125000 -829.365151097562 0 0 156 (C1) n - 1
REM
REM in /nfs/bkarasulu/CARBON/AIRSS/Generating-Clusters/AIREBO/with-SteepDescent/Higher-Symm/SD-CG/HFTN-CG
REM
REM
REM
REM
REM
REM ./C.cell (b20cbc046b6831c77cfcea5457e17084)
REM
REM compiler GCC version 9.2.1 20190827 (Red Hat 9.2.1-1)
REM options -cpp -mtune=generic -march=x86-64 -g -O0 -fpre-include=/usr/include/finclude/math-vector-fortran.h
REM seed 322182534 1425431163 -716683679 1118515659 165978559 -784650123 823702193 504859407 -216503884 -355728184 1726782014 -1683065775 -162736231 -653831303 1776197858 -678498642 -583525471 -910430339 -895516498 1904655525 1986826060 2044579114 456192549 1006331183 2135422606 -271099631 757594843 -968352600 1647107302 -1642501445 1978151648 -739831065 -744355105
REM
CELL 1.54180   50.00000   50.00000   50.00000   90.00000   90.00000   90.00000
LATT -1
SFAC C  
C      1  0.4880390000000  0.4726170000000  0.4109590000000 1.0
C      1  0.4272820000000  0.4854920000000  0.5862600000000 1.0
C      1  0.5062620000000  0.5774290000000  0.4485910000000 1.0
C      1  0.5606190000000  0.4805910000000  0.5595520000000 1.0
C      1  0.5698850000000  0.5319070000000  0.5432810000000 1.0
C      1  0.4856610000000  0.5405430000000  0.5175850000000 1.0
C      1  0.5501250000000  0.4313940000000  0.5449890000000 1.0
C      1  0.4738500000000  0.4784150000000  0.5962990000000 1.0
C      1  0.5037850000000  0.5504210000000  0.5631480000000 1.0
C      1  0.4548120000000  0.4317090000000  0.5000480000000 1.0
C      1  0.5249060000000  0.4412790000000  0.4735460000000 1.0
C      1  0.4029360000000  0.5113130000000  0.5379830000000 1.0
C      1  0.4827160000000  0.4068940000000  0.4653160000000 1.0
C      1  0.5160580000000  0.5778750000000  0.4184910000000 1.0
C      1  0.4649020000000  0.4563040000000  0.5720670000000 1.0
C      1  0.5332450000000  0.4710610000000  0.4255120000000 1.0
C      1  0.5759240000000  0.4226780000000  0.5023540000000 1.0
C      1  0.5383150000000  0.4614390000000  0.5436650000000 1.0
C      1  0.5084590000000  0.4272880000000  0.5292490000000 1.0
C      1  0.5333090000000  0.4348060000000  0.5729640000000 1.0
C      1  0.4113740000000  0.5514430000000  0.4907040000000 1.0
C      1  0.5429900000000  0.5079120000000  0.4088310000000 1.0
C      1  0.5207120000000  0.5091690000000  0.4344450000000 1.0
C      1  0.4928400000000  0.5271780000000  0.4901990000000 1.0
C      1  0.5450640000000  0.4294910000000  0.5122740000000 1.0
C      1  0.4101440000000  0.5510070000000  0.5245990000000 1.0
C      1  0.4622690000000  0.5058210000000  0.4521860000000 1.0
C      1  0.4696390000000  0.5309530000000  0.4145020000000 1.0
C      1  0.4006010000000  0.5008950000000  0.4755740000000 1.0
C      1  0.5239580000000  0.5178960000000  0.5002800000000 1.0
C      1  0.4463350000000  0.5706310000000  0.5301890000000 1.0
C      1  0.4225650000000  0.4335200000000  0.5278210000000 1.0
C      1  0.5056410000000  0.5450320000000  0.4254400000000 1.0
C      1  0.4455890000000  0.5743860000000  0.4552180000000 1.0
C      1  0.4826880000000  0.4916990000000  0.5670970000000 1.0
C      1  0.5150620000000  0.4977290000000  0.5625620000000 1.0
C      1  0.5798840000000  0.4276680000000  0.5316340000000 1.0
C      1  0.5886990000000  0.5259480000000  0.5155930000000 1.0
C      1  0.5502360000000  0.5509270000000  0.4879520000000 1.0
C      1  0.4662680000000  0.5947010000000  0.4575280000000 1.0
C      1  0.4313000000000  0.5055090000000  0.5104240000000 1.0
C      1  0.5103200000000  0.5354740000000  0.5376300000000 1.0
C      1  0.4517600000000  0.4192100000000  0.5385520000000 1.0
C      1  0.4835010000000  0.4276890000000  0.4384210000000 1.0
C      1  0.4854000000000  0.4816710000000  0.4583300000000 1.0
C      1  0.4470980000000  0.4543660000000  0.5203560000000 1.0
C      1  0.4908300000000  0.3954080000000  0.5106170000000 1.0
C      1  0.4238010000000  0.4565010000000  0.4663350000000 1.0
C      1  0.4412570000000  0.5105120000000  0.5679580000000 1.0
C      1  0.5581710000000  0.5131380000000  0.5691270000000 1.0
C      1  0.4412700000000  0.5603430000000  0.4814390000000 1.0
C      1  0.4992250000000  0.4475980000000  0.4884030000000 1.0
C      1  0.5572830000000  0.5581680000000  0.5385870000000 1.0
C      1  0.4254180000000  0.5286110000000  0.4379380000000 1.0
C      1  0.5154080000000  0.4352530000000  0.4438290000000 1.0
C      1  0.5222270000000  0.4081490000000  0.5077980000000 1.0
C      1  0.5606120000000  0.5060920000000  0.4776230000000 1.0
C      1  0.4793080000000  0.5489650000000  0.5849310000000 1.0
C      1  0.5063440000000  0.3961430000000  0.4802370000000 1.0
C      1  0.5708020000000  0.4597310000000  0.4690640000000 1.0
C      1  0.4589670000000  0.5068960000000  0.5949030000000 1.0
C      1  0.5310850000000  0.5516710000000  0.5230080000000 1.0
C      1  0.4798520000000  0.5252930000000  0.5993520000000 1.0
C      1  0.4930300000000  0.6035540000000  0.5348030000000 1.0
C      1  0.4905800000000  0.5047590000000  0.4211800000000 1.0
C      1  0.4793020000000  0.4982060000000  0.4874550000000 1.0
C      1  0.5758050000000  0.4616370000000  0.5112100000000 1.0
C      1  0.4474080000000  0.5514780000000  0.4301390000000 1.0
C      1  0.5470890000000  0.4577330000000  0.4934040000000 1.0
C      1  0.5027590000000  0.4529480000000  0.6069920000000 1.0
C      1  0.4374530000000  0.5001770000000  0.4327340000000 1.0
C      1  0.4877230000000  0.5477110000000  0.3966440000000 1.0
C      1  0.5384590000000  0.4379110000000  0.4194670000000 1.0
C      1  0.4542560000000  0.5542850000000  0.5655260000000 1.0
C      1  0.5318020000000  0.5602660000000  0.4610410000000 1.0
C      1  0.5027720000000  0.4845650000000  0.6135020000000 1.0
C      1  0.5448340000000  0.4617220000000  0.5830440000000 1.0
C      1  0.5748580000000  0.5794860000000  0.4541230000000 1.0
C      1  0.4593400000000  0.4999120000000  0.4086570000000 1.0
C      1  0.4287770000000  0.4691290000000  0.4399240000000 1.0
C      1  0.4081200000000  0.4626880000000  0.5179470000000 1.0
C      1  0.4687570000000  0.5358840000000  0.4597650000000 1.0
C      1  0.5251550000000  0.5708160000000  0.4994730000000 1.0
C      1  0.4049200000000  0.5236610000000  0.5081780000000 1.0
C      1  0.5967170000000  0.4817740000000  0.4686150000000 1.0
C      1  0.4867300000000  0.4754590000000  0.5374960000000 1.0
C      1  0.5623430000000  0.5008470000000  0.5316730000000 1.0
C      1  0.5254720000000  0.5312110000000  0.4014900000000 1.0
C      1  0.4697480000000  0.4263800000000  0.5603280000000 1.0
C      1  0.5596330000000  0.4088600000000  0.4619530000000 1.0
C      1  0.5785050000000  0.5350210000000  0.4777090000000 1.0
C      1  0.5988760000000  0.5099140000000  0.4877890000000 1.0
C      1  0.5779440000000  0.4269710000000  0.4748550000000 1.0
C      1  0.5483030000000  0.5872790000000  0.4619010000000 1.0
C      1  0.4800220000000  0.5743160000000  0.5582930000000 1.0
C      1  0.5145370000000  0.5028700000000  0.5289330000000 1.0
C      1  0.4822950000000  0.5007690000000  0.5183290000000 1.0
C      1  0.5039610000000  0.4250090000000  0.5586730000000 1.0
C      1  0.5113500000000  0.4642320000000  0.5575820000000 1.0
C      1  0.4457880000000  0.5265640000000  0.4820720000000 1.0
C      1  0.4974640000000  0.5973380000000  0.4710080000000 1.0
C      1  0.4662390000000  0.4067130000000  0.5159240000000 1.0
C      1  0.4156970000000  0.5277920000000  0.4674390000000 1.0
C      1  0.5289400000000  0.5238770000000  0.5793070000000 1.0
C      1  0.5254070000000  0.4815690000000  0.5906430000000 1.0
C      1  0.5651850000000  0.5363590000000  0.4326330000000 1.0
C      1  0.4535760000000  0.4727150000000  0.5445280000000 1.0
C      1  0.4155790000000  0.5753890000000  0.5406410000000 1.0
C      1  0.5372270000000  0.6007770000000  0.5090890000000 1.0
C      1  0.6120650000000  0.4941510000000  0.5148850000000 1.0
C      1  0.5056820000000  0.4452930000000  0.4128330000000 1.0
C      1  0.5547390000000  0.5233640000000  0.5073510000000 1.0
C      1  0.4585780000000  0.4085650000000  0.4249630000000 1.0
C      1  0.4741750000000  0.4376120000000  0.4757910000000 1.0
C      1  0.4156490000000  0.4401530000000  0.4950820000000 1.0
C      1  0.5988590000000  0.4716760000000  0.4985770000000 1.0
C      1  0.5158100000000  0.4795170000000  0.4504350000000 1.0
C      1  0.5362270000000  0.5390790000000  0.4390680000000 1.0
C      1  0.4694130000000  0.4563090000000  0.4487870000000 1.0
C      1  0.4485870000000  0.4928280000000  0.4788980000000 1.0
C      1  0.5054780000000  0.5142400000000  0.6019660000000 1.0
C      1  0.5221220000000  0.5955590000000  0.5375610000000 1.0
C      1  0.4562160000000  0.4675330000000  0.4198900000000 1.0
C      1  0.5228320000000  0.5141740000000  0.4680140000000 1.0
C      1  0.4650890000000  0.5984880000000  0.5244060000000 1.0
C      1  0.4587570000000  0.5393250000000  0.5353090000000 1.0
C      1  0.5990980000000  0.4912580000000  0.4380950000000 1.0
C      1  0.4788400000000  0.5609160000000  0.4390740000000 1.0
C      1  0.5343980000000  0.5766360000000  0.5539880000000 1.0
C      1  0.4244950000000  0.4755050000000  0.5589310000000 1.0
C      1  0.5301600000000  0.6039020000000  0.4777840000000 1.0
C      1  0.5304460000000  0.5576050000000  0.5783080000000 1.0
C      1  0.5621270000000  0.5896560000000  0.5283470000000 1.0
C      1  0.5186500000000  0.4779300000000  0.3990700000000 1.0
C      1  0.4517500000000  0.4098300000000  0.4545170000000 1.0
C      1  0.5814920000000  0.4583130000000  0.5445670000000 1.0
C      1  0.5012480000000  0.5347630000000  0.4579540000000 1.0
C      1  0.5616490000000  0.4866150000000  0.4503360000000 1.0
C      1  0.4206920000000  0.4795960000000  0.4911080000000 1.0
C      1  0.4925680000000  0.5700920000000  0.5287830000000 1.0
C      1  0.4924240000000  0.5799780000000  0.4971720000000 1.0
C      1  0.4960310000000  0.4484740000000  0.5802290000000 1.0
C      1  0.4360800000000  0.4258880000000  0.4732860000000 1.0
C      1  0.4589730000000  0.5747660000000  0.5008260000000 1.0
C      1  0.4241160000000  0.5540410000000  0.5617750000000 1.0
C      1  0.5029310000000  0.4539860000000  0.5167910000000 1.0
C      1  0.5287910000000  0.4737470000000  0.5172100000000 1.0
C      1  0.5335260000000  0.4106780000000  0.4696150000000 1.0
C      1  0.4170750000000  0.5268140000000  0.5573270000000 1.0
C      1  0.5338710000000  0.4851060000000  0.4786970000000 1.0
C      1  0.5603760000000  0.4550560000000  0.4370360000000 1.0
C      1  0.4056880000000  0.4833080000000  0.5399410000000 1.0
C      1  0.5919930000000  0.4883230000000  0.5360480000000 1.0
C      1  0.5802730000000  0.5512270000000  0.4517320000000 1.0
C      1  0.5710890000000  0.5059710000000  0.4257080000000 1.0
C      1  0.4532460000000  0.5057660000000  0.5364730000000 1.0
END
