TITL C-3289326-3776-732 0.000518700727757092 125000 -409.704760561957 0 0 71 (C1) n - 1
REM
REM in /nfs/bkarasulu/CARBON/AIRSS/Generating-Clusters/AIREBO/with-SteepDescent/Higher-Symm/SD-CG/HFTN-CG
REM
REM
REM
REM
REM
REM ./C.cell (b20cbc046b6831c77cfcea5457e17084)
REM
REM compiler GCC version 9.2.1 20190827 (Red Hat 9.2.1-1)
REM options -cpp -mtune=generic -march=x86-64 -g -O0 -fpre-include=/usr/include/finclude/math-vector-fortran.h
REM seed -1776431944 2007268333 -1781386891 -358274916 -835039851 -1301507247 50955695 -615479305 2015429246 -416797135 -1540674923 -2074936891 2065097395 651075641 436166794 423719485 -302251641 -1554231676 -1136045242 2000585568 1924402902 141740689 281925248 2041674537 1225839369 -1917328790 1749301545 -377922705 -43304271 2144877738 1538143742 -565408063 789780601
REM
CELL 1.54180   50.00000   50.00000   50.00000   90.00000   90.00000   90.00000
LATT -1
SFAC C  
C      1  0.5299760000000  0.4887920000000  0.4256240000000 1.0
C      1  0.4871270000000  0.4708550000000  0.4228510000000 1.0
C      1  0.4795250000000  0.5041110000000  0.4206070000000 1.0
C      1  0.5112340000000  0.5157060000000  0.4194130000000 1.0
C      1  0.5251770000000  0.5078260000000  0.5838230000000 1.0
C      1  0.4925200000000  0.5184780000000  0.5843510000000 1.0
C      1  0.4724210000000  0.4908350000000  0.5837260000000 1.0
C      1  0.5048590000000  0.4805810000000  0.5828040000000 1.0
C      1  0.4768910000000  0.4726540000000  0.4829100000000 1.0
C      1  0.4687200000000  0.5261390000000  0.4822430000000 1.0
C      1  0.5267650000000  0.5307590000000  0.4882980000000 1.0
C      1  0.5414970000000  0.4802910000000  0.4832690000000 1.0
C      1  0.4835190000000  0.5277950000000  0.5107560000000 1.0
C      1  0.4680260000000  0.4802830000000  0.5139050000000 1.0
C      1  0.5226910000000  0.4753820000000  0.5095570000000 1.0
C      1  0.5356220000000  0.5281140000000  0.5193720000000 1.0
C      1  0.5690240000000  0.4573150000000  0.5246220000000 1.0
C      1  0.4595350000000  0.4276840000000  0.5270220000000 1.0
C      1  0.4370400000000  0.5459340000000  0.5278400000000 1.0
C      1  0.5398740000000  0.5663690000000  0.5296700000000 1.0
C      1  0.5622220000000  0.5469630000000  0.4746850000000 1.0
C      1  0.4603540000000  0.5644760000000  0.4763440000000 1.0
C      1  0.4375580000000  0.4562810000000  0.4774780000000 1.0
C      1  0.5385900000000  0.4418580000000  0.4727180000000 1.0
C      1  0.4683740000000  0.5756030000000  0.5010770000000 1.0
C      1  0.5716750000000  0.5343540000000  0.4989420000000 1.0
C      1  0.5289920000000  0.4302120000000  0.4970860000000 1.0
C      1  0.4314450000000  0.4689080000000  0.5025650000000 1.0
C      1  0.4668710000000  0.4206060000000  0.5002610000000 1.0
C      1  0.5760950000000  0.4709140000000  0.5007690000000 1.0
C      1  0.5287350000000  0.5758460000000  0.5051260000000 1.0
C      1  0.4274320000000  0.5327080000000  0.5042260000000 1.0
C      1  0.4623270000000  0.5197940000000  0.5701860000000 1.0
C      1  0.5157880000000  0.5363170000000  0.5689530000000 1.0
C      1  0.5341010000000  0.4789320000000  0.5683590000000 1.0
C      1  0.4823620000000  0.4632850000000  0.5665980000000 1.0
C      1  0.4588420000000  0.4805190000000  0.4337130000000 1.0
C      1  0.5136510000000  0.4665370000000  0.4323370000000 1.0
C      1  0.5423950000000  0.5185980000000  0.4304300000000 1.0
C      1  0.4876920000000  0.5339070000000  0.4349400000000 1.0
C      1  0.5110160000000  0.5546480000000  0.4762150000000 1.0
C      1  0.5481010000000  0.5098320000000  0.4779440000000 1.0
C      1  0.4932720000000  0.4496250000000  0.4734600000000 1.0
C      1  0.4549660000000  0.4983120000000  0.4803040000000 1.0
C      1  0.5053340000000  0.4508390000000  0.5212520000000 1.0
C      1  0.5440180000000  0.4981530000000  0.5220970000000 1.0
C      1  0.5065210000000  0.5457800000000  0.5192220000000 1.0
C      1  0.4565700000000  0.5116300000000  0.5216510000000 1.0
C      1  0.4487120000000  0.4581270000000  0.5267340000000 1.0
C      1  0.4495130000000  0.5715260000000  0.5222820000000 1.0
C      1  0.5629810000000  0.5477250000000  0.5241930000000 1.0
C      1  0.5386870000000  0.4429960000000  0.5261270000000 1.0
C      1  0.4386380000000  0.5440580000000  0.4800840000000 1.0
C      1  0.4473320000000  0.4288010000000  0.4804370000000 1.0
C      1  0.5632540000000  0.4588930000000  0.4760720000000 1.0
C      1  0.5417720000000  0.5666380000000  0.4792450000000 1.0
C      1  0.4794850000000  0.4521430000000  0.5399040000000 1.0
C      1  0.4489100000000  0.5269220000000  0.5479470000000 1.0
C      1  0.5201940000000  0.5524610000000  0.5481590000000 1.0
C      1  0.5449140000000  0.4721570000000  0.5425830000000 1.0
C      1  0.4845720000000  0.5473070000000  0.4613960000000 1.0
C      1  0.4465820000000  0.4764980000000  0.4574840000000 1.0
C      1  0.5163510000000  0.4514040000000  0.4566150000000 1.0
C      1  0.5560140000000  0.5261260000000  0.4523590000000 1.0
C      1  0.5704950000000  0.5015420000000  0.5016290000000 1.0
C      1  0.4960780000000  0.4291020000000  0.4967890000000 1.0
C      1  0.4310130000000  0.5003090000000  0.5029990000000 1.0
C      1  0.4972280000000  0.5736720000000  0.5042920000000 1.0
C      1  0.4933670000000  0.4984750000000  0.5226330000000 1.0
C      1  0.4943550000000  0.4969070000000  0.4736530000000 1.0
C      1  0.5125980000000  0.5044340000000  0.4965710000000 1.0
END
