TITL C-3289335-9438-484 -0.000987350504837288 125000 -879.072549084264 0 0 173 (C1) n - 1
REM
REM in /nfs/bkarasulu/CARBON/AIRSS/Generating-Clusters/AIREBO/with-SteepDescent/Higher-Symm/SD-CG/HFTN-CG
REM
REM
REM
REM
REM
REM ./C.cell (b20cbc046b6831c77cfcea5457e17084)
REM
REM compiler GCC version 9.2.1 20190827 (Red Hat 9.2.1-1)
REM options -cpp -mtune=generic -march=x86-64 -g -O0 -fpre-include=/usr/include/finclude/math-vector-fortran.h
REM seed 617360243 619387918 496119170 -1473840969 -51730803 1595585742 147439525 -1736559707 -1051475151 1147184102 2076989354 1176891567 1958146952 1760505845 -147661737 1898349245 -364157829 -1961983379 -2124553600 1363588349 -68371132 645257804 -118624857 -800654798 -707025956 1695710812 -753051608 -1181895209 698682626 -1790708896 198418077 -54857646 1655044301
REM
CELL 1.54180   50.00000   50.00000   50.00000   90.00000   90.00000   90.00000
LATT -1
SFAC C  
C      1  0.4665070000000  0.5467190000000  0.5540140000000 1.0
C      1  0.4586460000000  0.5751150000000  0.4937710000000 1.0
C      1  0.4536340000000  0.5540240000000  0.4302040000000 1.0
C      1  0.4622460000000  0.4610980000000  0.4186940000000 1.0
C      1  0.4598550000000  0.4275610000000  0.4713470000000 1.0
C      1  0.4594200000000  0.4227660000000  0.5371120000000 1.0
C      1  0.4596830000000  0.4967020000000  0.5907190000000 1.0
C      1  0.3996010000000  0.5098490000000  0.5320180000000 1.0
C      1  0.3981750000000  0.5294100000000  0.5106840000000 1.0
C      1  0.3986470000000  0.5292110000000  0.4793200000000 1.0
C      1  0.3973690000000  0.4992670000000  0.4652340000000 1.0
C      1  0.4001460000000  0.4731100000000  0.4782560000000 1.0
C      1  0.3991910000000  0.4650050000000  0.5066040000000 1.0
C      1  0.3992430000000  0.4815100000000  0.5305230000000 1.0
C      1  0.4455990000000  0.5229080000000  0.4603620000000 1.0
C      1  0.4515090000000  0.4911110000000  0.4575090000000 1.0
C      1  0.4457020000000  0.4678020000000  0.5018570000000 1.0
C      1  0.4421750000000  0.4693590000000  0.5313860000000 1.0
C      1  0.4405720000000  0.4967530000000  0.5435670000000 1.0
C      1  0.4482810000000  0.5243580000000  0.5264670000000 1.0
C      1  0.4418120000000  0.5289610000000  0.4936040000000 1.0
C      1  0.5979890000000  0.5610090000000  0.4698640000000 1.0
C      1  0.6029090000000  0.5233470000000  0.4358180000000 1.0
C      1  0.5903790000000  0.4604560000000  0.4461720000000 1.0
C      1  0.5928460000000  0.4282890000000  0.5045490000000 1.0
C      1  0.5878740000000  0.4543010000000  0.5546870000000 1.0
C      1  0.5951270000000  0.5137630000000  0.5609240000000 1.0
C      1  0.5972490000000  0.5632860000000  0.5213900000000 1.0
C      1  0.5688400000000  0.4370120000000  0.4505020000000 1.0
C      1  0.5668790000000  0.4212200000000  0.5152020000000 1.0
C      1  0.5615520000000  0.4641590000000  0.5646180000000 1.0
C      1  0.5696070000000  0.5287420000000  0.5709400000000 1.0
C      1  0.5751920000000  0.5777240000000  0.5130470000000 1.0
C      1  0.5687430000000  0.5591490000000  0.4526240000000 1.0
C      1  0.5783400000000  0.5150580000000  0.4249600000000 1.0
C      1  0.4906830000000  0.5541930000000  0.4725450000000 1.0
C      1  0.5015580000000  0.5277330000000  0.4390980000000 1.0
C      1  0.5046050000000  0.4610580000000  0.4536230000000 1.0
C      1  0.4927410000000  0.4413240000000  0.5046550000000 1.0
C      1  0.4904340000000  0.4562730000000  0.5450510000000 1.0
C      1  0.4964440000000  0.5059330000000  0.5680910000000 1.0
C      1  0.4994430000000  0.5543840000000  0.5166080000000 1.0
C      1  0.4978940000000  0.5040570000000  0.5373000000000 1.0
C      1  0.4821230000000  0.5262380000000  0.5235870000000 1.0
C      1  0.4744870000000  0.5330770000000  0.4914880000000 1.0
C      1  0.4925870000000  0.5147370000000  0.4692070000000 1.0
C      1  0.4821610000000  0.4824060000000  0.4676830000000 1.0
C      1  0.4754890000000  0.4691870000000  0.4955680000000 1.0
C      1  0.4926720000000  0.4756110000000  0.5244700000000 1.0
C      1  0.4345370000000  0.5814510000000  0.4519820000000 1.0
C      1  0.4407760000000  0.5094570000000  0.4213360000000 1.0
C      1  0.4374590000000  0.4348610000000  0.4358750000000 1.0
C      1  0.4358250000000  0.4103030000000  0.5078220000000 1.0
C      1  0.4359660000000  0.4543190000000  0.5732580000000 1.0
C      1  0.4387680000000  0.5282670000000  0.5790700000000 1.0
C      1  0.4370300000000  0.5779620000000  0.5269500000000 1.0
C      1  0.4882160000000  0.6005370000000  0.4644290000000 1.0
C      1  0.4895010000000  0.5361930000000  0.4022510000000 1.0
C      1  0.4896520000000  0.4449190000000  0.4123520000000 1.0
C      1  0.4861320000000  0.3932460000000  0.4838070000000 1.0
C      1  0.4858820000000  0.4232780000000  0.5669990000000 1.0
C      1  0.4843770000000  0.5104480000000  0.6059480000000 1.0
C      1  0.4876930000000  0.5839890000000  0.5530470000000 1.0
C      1  0.4732520000000  0.4489130000000  0.4484710000000 1.0
C      1  0.4652080000000  0.4269700000000  0.5038530000000 1.0
C      1  0.4609630000000  0.4499400000000  0.5506140000000 1.0
C      1  0.4639780000000  0.5136440000000  0.5615480000000 1.0
C      1  0.4677090000000  0.5634780000000  0.5244290000000 1.0
C      1  0.4588810000000  0.5604950000000  0.4631850000000 1.0
C      1  0.4679400000000  0.5248860000000  0.4348040000000 1.0
C      1  0.5259700000000  0.5489370000000  0.4282680000000 1.0
C      1  0.5231850000000  0.4648080000000  0.4250840000000 1.0
C      1  0.5327510000000  0.4088680000000  0.4673800000000 1.0
C      1  0.5197630000000  0.4386360000000  0.5458100000000 1.0
C      1  0.5189210000000  0.4986090000000  0.5896530000000 1.0
C      1  0.5359570000000  0.5705120000000  0.5592400000000 1.0
C      1  0.5372580000000  0.5945550000000  0.4812640000000 1.0
C      1  0.4288430000000  0.5872180000000  0.4899180000000 1.0
C      1  0.4253420000000  0.5497920000000  0.4256130000000 1.0
C      1  0.4367640000000  0.4699620000000  0.4167940000000 1.0
C      1  0.4301310000000  0.4177740000000  0.4699650000000 1.0
C      1  0.4314730000000  0.4220200000000  0.5458050000000 1.0
C      1  0.4326190000000  0.4918430000000  0.5943870000000 1.0
C      1  0.4413660000000  0.5642020000000  0.5633450000000 1.0
C      1  0.4685390000000  0.4474270000000  0.5836640000000 1.0
C      1  0.4684960000000  0.5376030000000  0.5929040000000 1.0
C      1  0.4655620000000  0.5968420000000  0.5306430000000 1.0
C      1  0.4688660000000  0.5876290000000  0.4452810000000 1.0
C      1  0.4714830000000  0.5072470000000  0.4059400000000 1.0
C      1  0.4672950000000  0.4228500000000  0.4281350000000 1.0
C      1  0.4665720000000  0.3937300000000  0.5108690000000 1.0
C      1  0.4280080000000  0.5432190000000  0.5439480000000 1.0
C      1  0.4242290000000  0.5553020000000  0.4952430000000 1.0
C      1  0.4155670000000  0.5313160000000  0.4498460000000 1.0
C      1  0.4278640000000  0.4786810000000  0.4427180000000 1.0
C      1  0.4289800000000  0.4469650000000  0.4873620000000 1.0
C      1  0.4187300000000  0.4474420000000  0.5379270000000 1.0
C      1  0.4195410000000  0.4938210000000  0.5694490000000 1.0
C      1  0.4879800000000  0.4092010000000  0.5359190000000 1.0
C      1  0.4825380000000  0.4767170000000  0.5938210000000 1.0
C      1  0.4894910000000  0.5568510000000  0.5737840000000 1.0
C      1  0.4801490000000  0.5972860000000  0.4966560000000 1.0
C      1  0.4842330000000  0.5620270000000  0.4237730000000 1.0
C      1  0.4879440000000  0.4799030000000  0.4137340000000 1.0
C      1  0.4821680000000  0.4108270000000  0.4564170000000 1.0
C      1  0.5307530000000  0.4719820000000  0.4725180000000 1.0
C      1  0.5144560000000  0.4657030000000  0.5003030000000 1.0
C      1  0.5308950000000  0.4966040000000  0.5338890000000 1.0
C      1  0.5379990000000  0.5271950000000  0.5377810000000 1.0
C      1  0.5313080000000  0.5460640000000  0.5102990000000 1.0
C      1  0.5170540000000  0.5348360000000  0.4816340000000 1.0
C      1  0.5313360000000  0.5060480000000  0.4731010000000 1.0
C      1  0.5294830000000  0.3893590000000  0.5217050000000 1.0
C      1  0.5237850000000  0.4663050000000  0.5991380000000 1.0
C      1  0.5235100000000  0.5436410000000  0.6090620000000 1.0
C      1  0.5286970000000  0.6006630000000  0.5106870000000 1.0
C      1  0.5317170000000  0.5823260000000  0.4250210000000 1.0
C      1  0.5232060000000  0.4827980000000  0.3954600000000 1.0
C      1  0.5351230000000  0.4074480000000  0.4341100000000 1.0
C      1  0.5183520000000  0.5974770000000  0.4530220000000 1.0
C      1  0.5108490000000  0.5110580000000  0.4006000000000 1.0
C      1  0.5168220000000  0.4315120000000  0.4224550000000 1.0
C      1  0.5152950000000  0.3986040000000  0.4917870000000 1.0
C      1  0.5076050000000  0.4376280000000  0.5888860000000 1.0
C      1  0.5133800000000  0.5183010000000  0.6144870000000 1.0
C      1  0.5187240000000  0.5929230000000  0.5423730000000 1.0
C      1  0.4098890000000  0.5234660000000  0.5615860000000 1.0
C      1  0.4093920000000  0.5585260000000  0.5231260000000 1.0
C      1  0.4120860000000  0.5602530000000  0.4662290000000 1.0
C      1  0.4096460000000  0.5035960000000  0.4338160000000 1.0
C      1  0.4183470000000  0.4533470000000  0.4571210000000 1.0
C      1  0.4108320000000  0.4332770000000  0.5107100000000 1.0
C      1  0.4069460000000  0.4664490000000  0.5600440000000 1.0
C      1  0.5085090000000  0.4273130000000  0.4551580000000 1.0
C      1  0.5150120000000  0.4199420000000  0.5182730000000 1.0
C      1  0.5051570000000  0.4662530000000  0.5706940000000 1.0
C      1  0.5203860000000  0.5508590000000  0.5778740000000 1.0
C      1  0.5007550000000  0.5858000000000  0.5155090000000 1.0
C      1  0.5058490000000  0.5660080000000  0.4497250000000 1.0
C      1  0.5120370000000  0.4963490000000  0.4312380000000 1.0
C      1  0.5640500000000  0.5536990000000  0.5523300000000 1.0
C      1  0.5626420000000  0.5721200000000  0.4842340000000 1.0
C      1  0.5539040000000  0.5349850000000  0.4338610000000 1.0
C      1  0.5737920000000  0.4846110000000  0.4288720000000 1.0
C      1  0.5577760000000  0.4235030000000  0.4796820000000 1.0
C      1  0.5536080000000  0.4376750000000  0.5426540000000 1.0
C      1  0.5588700000000  0.4972390000000  0.5624700000000 1.0
C      1  0.5319590000000  0.4696760000000  0.5524330000000 1.0
C      1  0.5364280000000  0.5212510000000  0.5712250000000 1.0
C      1  0.5479610000000  0.5702590000000  0.5274260000000 1.0
C      1  0.5369090000000  0.5642050000000  0.4634630000000 1.0
C      1  0.5422840000000  0.5065370000000  0.4429840000000 1.0
C      1  0.5527860000000  0.4597560000000  0.4345030000000 1.0
C      1  0.5409720000000  0.4373090000000  0.5048110000000 1.0
C      1  0.6027830000000  0.5216170000000  0.4666470000000 1.0
C      1  0.6049410000000  0.4685440000000  0.4680460000000 1.0
C      1  0.5930540000000  0.4583460000000  0.4949260000000 1.0
C      1  0.5937570000000  0.4660560000000  0.5280530000000 1.0
C      1  0.6030730000000  0.4986640000000  0.5345560000000 1.0
C      1  0.5996320000000  0.5293860000000  0.5202880000000 1.0
C      1  0.6095910000000  0.5419160000000  0.4902700000000 1.0
C      1  0.5705800000000  0.5190370000000  0.4730270000000 1.0
C      1  0.5649550000000  0.4890230000000  0.4609460000000 1.0
C      1  0.5621020000000  0.4701910000000  0.4861750000000 1.0
C      1  0.5614720000000  0.4605940000000  0.5187960000000 1.0
C      1  0.5638460000000  0.4924530000000  0.5304340000000 1.0
C      1  0.5675970000000  0.5358170000000  0.5236170000000 1.0
C      1  0.5593720000000  0.5392100000000  0.4920750000000 1.0
C      1  0.5272830000000  0.4946290000000  0.5045810000000 1.0
C      1  0.5870110000000  0.4963330000000  0.5058340000000 1.0
C      1  0.4462460000000  0.4955350000000  0.4891720000000 1.0
C      1  0.6010800000000  0.4947130000000  0.4807260000000 1.0
C      1  0.4997420000000  0.5026620000000  0.4970990000000 1.0
END
