TITL C-3289331-6719-211 0.000341887245367577 125000 -70.9813289683479 0 0 17 (C1) n - 1
REM
REM in /nfs/bkarasulu/CARBON/AIRSS/Generating-Clusters/AIREBO/with-SteepDescent/Higher-Symm/SD-CG/HFTN-CG
REM
REM
REM
REM
REM
REM ./C.cell (b20cbc046b6831c77cfcea5457e17084)
REM
REM compiler GCC version 9.2.1 20190827 (Red Hat 9.2.1-1)
REM options -cpp -mtune=generic -march=x86-64 -g -O0 -fpre-include=/usr/include/finclude/math-vector-fortran.h
REM seed -920290055 -612705143 375386027 1650820825 1283703432 -820920072 1431952839 1345859259 -443882978 716262452 -1303443401 490991716 151627885 -681435412 1453519431 1263089311 -1574024730 1549473445 -1875973348 -645646589 -1740743988 955896029 978716721 -1032337848 -159392528 571033255 996763847 -1100701001 -509705108 641254397 897045180 -1218114025 2039008516
REM
CELL 1.54180   50.00000   50.00000   50.00000   90.00000   90.00000   90.00000
LATT -1
SFAC C  
C      1  0.4944910000000  0.4491460000000  0.4841530000000 1.0
C      1  0.4808900000000  0.5407510000000  0.4763040000000 1.0
C      1  0.5088870000000  0.5482580000000  0.5155080000000 1.0
C      1  0.5224540000000  0.4566870000000  0.5233960000000 1.0
C      1  0.4788810000000  0.5234120000000  0.5424150000000 1.0
C      1  0.5216390000000  0.4744020000000  0.4596170000000 1.0
C      1  0.4750110000000  0.4918630000000  0.4706100000000 1.0
C      1  0.5251190000000  0.5047370000000  0.5315040000000 1.0
C      1  0.4853090000000  0.4766780000000  0.5466120000000 1.0
C      1  0.5141130000000  0.5209910000000  0.4555450000000 1.0
C      1  0.5063240000000  0.4652640000000  0.5029330000000 1.0
C      1  0.4964140000000  0.5320840000000  0.4971950000000 1.0
C      1  0.4669940000000  0.4916560000000  0.4967930000000 1.0
C      1  0.5335140000000  0.5023540000000  0.5055590000000 1.0
C      1  0.4933740000000  0.5007120000000  0.5346400000000 1.0
C      1  0.5066580000000  0.4967520000000  0.4674940000000 1.0
C      1  0.5000120000000  0.4986210000000  0.5010320000000 1.0
END
