TITL C-3289323-3850-133 -0.000347268994454776 125000 -272.488128074978 0 0 57 (C1) n - 1
REM
REM in /nfs/bkarasulu/CARBON/AIRSS/Generating-Clusters/AIREBO/with-SteepDescent/Higher-Symm/SD-CG/HFTN-CG
REM
REM
REM
REM
REM
REM ./C.cell (b20cbc046b6831c77cfcea5457e17084)
REM
REM compiler GCC version 9.2.1 20190827 (Red Hat 9.2.1-1)
REM options -cpp -mtune=generic -march=x86-64 -g -O0 -fpre-include=/usr/include/finclude/math-vector-fortran.h
REM seed 1846662546 -205218937 -341939474 1522776874 71627562 176381333 818202771 -1662356805 934497848 -1586079713 1387508916 891852411 1967563920 1984870567 -1575523728 -1453967363 1312552512 356775569 -993951957 -1873383310 1120677698 209713708 -945119544 1419412865 255349016 1041935471 767651216 -1687899501 627847807 1432130992 -107951746 -356771199 1841048774
REM
CELL 1.54180   50.00000   50.00000   50.00000   90.00000   90.00000   90.00000
LATT -1
SFAC C  
C      1  0.5250080000000  0.5366510000000  0.5455520000000 1.0
C      1  0.5295980000000  0.5236430000000  0.4540240000000 1.0
C      1  0.5233990000000  0.4339140000000  0.5086500000000 1.0
C      1  0.4870930000000  0.4804520000000  0.5194600000000 1.0
C      1  0.4818450000000  0.5357540000000  0.5008950000000 1.0
C      1  0.4868520000000  0.4861840000000  0.4717270000000 1.0
C      1  0.5004060000000  0.4561720000000  0.4749910000000 1.0
C      1  0.5034640000000  0.5015430000000  0.5405130000000 1.0
C      1  0.5026240000000  0.5528390000000  0.4844410000000 1.0
C      1  0.4611850000000  0.5534580000000  0.5200640000000 1.0
C      1  0.4623620000000  0.4844490000000  0.4481720000000 1.0
C      1  0.4640550000000  0.4593780000000  0.5329290000000 1.0
C      1  0.5099290000000  0.5252860000000  0.5170060000000 1.0
C      1  0.5183360000000  0.5000990000000  0.4714210000000 1.0
C      1  0.5138950000000  0.4654920000000  0.5047830000000 1.0
C      1  0.5417270000000  0.4679770000000  0.4853610000000 1.0
C      1  0.5372980000000  0.5053010000000  0.5199280000000 1.0
C      1  0.5444650000000  0.5125300000000  0.4893210000000 1.0
C      1  0.4647400000000  0.4675900000000  0.4889040000000 1.0
C      1  0.4662660000000  0.5057320000000  0.5287510000000 1.0
C      1  0.4613780000000  0.5249600000000  0.4777080000000 1.0
C      1  0.4786540000000  0.5329180000000  0.5406460000000 1.0
C      1  0.4688550000000  0.5158020000000  0.4520690000000 1.0
C      1  0.4773260000000  0.4440730000000  0.5060750000000 1.0
C      1  0.5549360000000  0.4870190000000  0.4604760000000 1.0
C      1  0.5637260000000  0.4841100000000  0.5229600000000 1.0
C      1  0.5654970000000  0.5310540000000  0.5086380000000 1.0
C      1  0.5005850000000  0.5775550000000  0.4630720000000 1.0
C      1  0.4959400000000  0.4276780000000  0.4748370000000 1.0
C      1  0.5010020000000  0.5129290000000  0.5669380000000 1.0
C      1  0.5123750000000  0.5690790000000  0.5196690000000 1.0
C      1  0.5067750000000  0.4982500000000  0.4332410000000 1.0
C      1  0.5089260000000  0.4455120000000  0.5474190000000 1.0
C      1  0.4336800000000  0.4971540000000  0.4558460000000 1.0
C      1  0.4390470000000  0.4532330000000  0.5107180000000 1.0
C      1  0.4398430000000  0.5313850000000  0.5336840000000 1.0
C      1  0.5018380000000  0.5449190000000  0.5668910000000 1.0
C      1  0.5070860000000  0.5465090000000  0.4513980000000 1.0
C      1  0.4979450000000  0.4135030000000  0.5038910000000 1.0
C      1  0.4335410000000  0.5120050000000  0.4842580000000 1.0
C      1  0.4360710000000  0.4814310000000  0.4972910000000 1.0
C      1  0.4374810000000  0.5064920000000  0.5159320000000 1.0
C      1  0.5466890000000  0.4563520000000  0.4536980000000 1.0
C      1  0.5412500000000  0.4965720000000  0.5525560000000 1.0
C      1  0.5547730000000  0.5430120000000  0.4783210000000 1.0
C      1  0.4925600000000  0.5210950000000  0.4398280000000 1.0
C      1  0.4918270000000  0.4306470000000  0.5326090000000 1.0
C      1  0.4951810000000  0.5621360000000  0.5390170000000 1.0
C      1  0.5218140000000  0.4730770000000  0.5375000000000 1.0
C      1  0.5298010000000  0.5480390000000  0.5003580000000 1.0
C      1  0.5185790000000  0.4725850000000  0.4521670000000 1.0
C      1  0.4597010000000  0.4547420000000  0.5594890000000 1.0
C      1  0.4519770000000  0.5787330000000  0.5156070000000 1.0
C      1  0.4628870000000  0.4659080000000  0.4279070000000 1.0
C      1  0.5670530000000  0.5138030000000  0.4639340000000 1.0
C      1  0.5638890000000  0.4649860000000  0.5064550000000 1.0
C      1  0.5549660000000  0.5263030000000  0.5400050000000 1.0
END
