TITL C-3289329-2751-338 -0.0027733131820404 125000 -899.931965021359 0 0 160 (C1) n - 1
REM
REM in /nfs/bkarasulu/CARBON/AIRSS/Generating-Clusters/AIREBO/with-SteepDescent/Higher-Symm/SD-CG/HFTN-CG
REM
REM
REM
REM
REM
REM ./C.cell (b20cbc046b6831c77cfcea5457e17084)
REM
REM compiler GCC version 9.2.1 20190827 (Red Hat 9.2.1-1)
REM options -cpp -mtune=generic -march=x86-64 -g -O0 -fpre-include=/usr/include/finclude/math-vector-fortran.h
REM seed -803855069 -2053774655 1605741122 183078601 1789041786 -640469403 1376317211 427718427 187538335 -538037914 -1953571004 214942057 970084290 67815601 -88726125 -881604393 1740596001 1066801516 -1596359238 -1258269624 1986218707 -2038811527 -123713959 -1856513619 2057932477 1592580218 -29154557 -376000115 -2077141299 1514669532 2011260297 1802331509 1221522725
REM
CELL 1.54180   50.00000   50.00000   50.00000   90.00000   90.00000   90.00000
LATT -1
SFAC C  
C      1  0.4814630000000  0.4429300000000  0.5709950000000 1.0
C      1  0.5767580000000  0.4971910000000  0.4344300000000 1.0
C      1  0.4383110000000  0.5757730000000  0.4839920000000 1.0
C      1  0.4925440000000  0.5619370000000  0.4263460000000 1.0
C      1  0.5175700000000  0.5599610000000  0.5722820000000 1.0
C      1  0.5172710000000  0.4449080000000  0.4232130000000 1.0
C      1  0.5758200000000  0.5071350000000  0.5604550000000 1.0
C      1  0.4296970000000  0.5150570000000  0.4384000000000 1.0
C      1  0.4276460000000  0.4902230000000  0.5574720000000 1.0
C      1  0.4359580000000  0.4292770000000  0.5102580000000 1.0
C      1  0.5675540000000  0.4307760000000  0.4776950000000 1.0
C      1  0.5608540000000  0.5759230000000  0.5087310000000 1.0
C      1  0.4877760000000  0.5457250000000  0.5641420000000 1.0
C      1  0.5662360000000  0.4808390000000  0.5411260000000 1.0
C      1  0.5373960000000  0.5626530000000  0.4879970000000 1.0
C      1  0.4886110000000  0.4565270000000  0.4373800000000 1.0
C      1  0.5110880000000  0.4578140000000  0.5677980000000 1.0
C      1  0.5125580000000  0.5360780000000  0.4357050000000 1.0
C      1  0.5668230000000  0.5112310000000  0.4637750000000 1.0
C      1  0.4334110000000  0.5184150000000  0.5393450000000 1.0
C      1  0.4334480000000  0.4877110000000  0.4582580000000 1.0
C      1  0.5533780000000  0.4285490000000  0.5041960000000 1.0
C      1  0.4590290000000  0.4347250000000  0.4858580000000 1.0
C      1  0.4592840000000  0.5724340000000  0.5105940000000 1.0
C      1  0.5101780000000  0.4827810000000  0.4359440000000 1.0
C      1  0.4403130000000  0.5066240000000  0.4850880000000 1.0
C      1  0.4867130000000  0.4348130000000  0.5056060000000 1.0
C      1  0.5066800000000  0.5174640000000  0.5643760000000 1.0
C      1  0.4930680000000  0.5101560000000  0.4459180000000 1.0
C      1  0.4986940000000  0.4891870000000  0.5720700000000 1.0
C      1  0.4487400000000  0.4994620000000  0.5156330000000 1.0
C      1  0.5637190000000  0.4917230000000  0.4896820000000 1.0
C      1  0.5617710000000  0.5057540000000  0.5181430000000 1.0
C      1  0.4864120000000  0.5637380000000  0.4914530000000 1.0
C      1  0.5124570000000  0.5552140000000  0.5098940000000 1.0
C      1  0.5206170000000  0.4372670000000  0.5013380000000 1.0
C      1  0.5324330000000  0.3958620000000  0.5357140000000 1.0
C      1  0.5355590000000  0.5304610000000  0.3997830000000 1.0
C      1  0.4007370000000  0.5394740000000  0.5254260000000 1.0
C      1  0.5243910000000  0.5995500000000  0.4626360000000 1.0
C      1  0.4713500000000  0.6054490000000  0.5444880000000 1.0
C      1  0.4520150000000  0.3922020000000  0.4648020000000 1.0
C      1  0.5391160000000  0.4733090000000  0.6022910000000 1.0
C      1  0.4635430000000  0.4714870000000  0.4035310000000 1.0
C      1  0.4612500000000  0.5269820000000  0.6006600000000 1.0
C      1  0.3975530000000  0.4597770000000  0.4723790000000 1.0
C      1  0.5988140000000  0.4625840000000  0.5268580000000 1.0
C      1  0.6001650000000  0.5404170000000  0.4670050000000 1.0
C      1  0.4578830000000  0.4729720000000  0.4971640000000 1.0
C      1  0.5046470000000  0.4759660000000  0.4746230000000 1.0
C      1  0.4756130000000  0.4805040000000  0.4729160000000 1.0
C      1  0.4616420000000  0.5340620000000  0.5009490000000 1.0
C      1  0.5353370000000  0.5227650000000  0.4892460000000 1.0
C      1  0.5347800000000  0.4734650000000  0.5170600000000 1.0
C      1  0.4800930000000  0.5351800000000  0.5263300000000 1.0
C      1  0.5105560000000  0.5358340000000  0.4755080000000 1.0
C      1  0.5149730000000  0.4504750000000  0.5287930000000 1.0
C      1  0.4707640000000  0.5047200000000  0.5382130000000 1.0
C      1  0.5251540000000  0.5013010000000  0.4680690000000 1.0
C      1  0.5296040000000  0.4958450000000  0.5396760000000 1.0
C      1  0.4636220000000  0.6058400000000  0.5152170000000 1.0
C      1  0.5103890000000  0.4656700000000  0.6020550000000 1.0
C      1  0.6001090000000  0.5094060000000  0.4569640000000 1.0
C      1  0.4612040000000  0.4008160000000  0.4897610000000 1.0
C      1  0.5361880000000  0.4013310000000  0.5080770000000 1.0
C      1  0.5385540000000  0.5964930000000  0.4920710000000 1.0
C      1  0.5044560000000  0.5393780000000  0.4028130000000 1.0
C      1  0.4890010000000  0.5339140000000  0.5962260000000 1.0
C      1  0.4932420000000  0.4600610000000  0.4038220000000 1.0
C      1  0.5975420000000  0.4934640000000  0.5369860000000 1.0
C      1  0.3995690000000  0.4872380000000  0.4621190000000 1.0
C      1  0.4015550000000  0.5096950000000  0.5312200000000 1.0
C      1  0.5903560000000  0.5390990000000  0.4990560000000 1.0
C      1  0.5007230000000  0.5893430000000  0.5386220000000 1.0
C      1  0.5402270000000  0.5022570000000  0.6001980000000 1.0
C      1  0.6006350000000  0.4613560000000  0.4985150000000 1.0
C      1  0.3978120000000  0.4637530000000  0.5014610000000 1.0
C      1  0.4030060000000  0.5397140000000  0.4966870000000 1.0
C      1  0.5050540000000  0.4173120000000  0.4657500000000 1.0
C      1  0.4999970000000  0.4026050000000  0.5435240000000 1.0
C      1  0.4963440000000  0.5975450000000  0.4630670000000 1.0
C      1  0.5388760000000  0.5024130000000  0.3972430000000 1.0
C      1  0.4591080000000  0.4983400000000  0.6014890000000 1.0
C      1  0.4637080000000  0.4996430000000  0.4057990000000 1.0
C      1  0.4075450000000  0.5102180000000  0.4853160000000 1.0
C      1  0.4864910000000  0.4019020000000  0.5123060000000 1.0
C      1  0.5128000000000  0.4878450000000  0.4025570000000 1.0
C      1  0.3965500000000  0.4918370000000  0.5088850000000 1.0
C      1  0.5969200000000  0.4903270000000  0.4830030000000 1.0
C      1  0.5938230000000  0.5098640000000  0.5086020000000 1.0
C      1  0.4848770000000  0.5976870000000  0.4925940000000 1.0
C      1  0.5116510000000  0.5891890000000  0.5088270000000 1.0
C      1  0.5114080000000  0.3997200000000  0.4916710000000 1.0
C      1  0.5143810000000  0.5157250000000  0.5974500000000 1.0
C      1  0.4924390000000  0.5103570000000  0.4126050000000 1.0
C      1  0.4852960000000  0.4855080000000  0.6015250000000 1.0
C      1  0.4768030000000  0.4234390000000  0.5514500000000 1.0
C      1  0.5578500000000  0.4871720000000  0.4120730000000 1.0
C      1  0.4174660000000  0.5568350000000  0.4790390000000 1.0
C      1  0.4791860000000  0.5830950000000  0.4462080000000 1.0
C      1  0.5253610000000  0.5772610000000  0.5515990000000 1.0
C      1  0.5246210000000  0.4212250000000  0.4397220000000 1.0
C      1  0.5580490000000  0.5184130000000  0.5838780000000 1.0
C      1  0.4511650000000  0.5214200000000  0.4209890000000 1.0
C      1  0.4421990000000  0.4850120000000  0.5809910000000 1.0
C      1  0.4157520000000  0.4492640000000  0.5178710000000 1.0
C      1  0.5831740000000  0.4537450000000  0.4746160000000 1.0
C      1  0.5812410000000  0.5553310000000  0.5237850000000 1.0
C      1  0.5442700000000  0.4614210000000  0.4205070000000 1.0
C      1  0.4240940000000  0.5354300000000  0.4574730000000 1.0
C      1  0.4580210000000  0.4288260000000  0.5328080000000 1.0
C      1  0.5374560000000  0.5402480000000  0.5759170000000 1.0
C      1  0.4693270000000  0.5396080000000  0.4332990000000 1.0
C      1  0.4616780000000  0.4640490000000  0.5753770000000 1.0
C      1  0.4257560000000  0.4680630000000  0.5402430000000 1.0
C      1  0.5733230000000  0.4721750000000  0.4562290000000 1.0
C      1  0.5739830000000  0.5365090000000  0.5446330000000 1.0
C      1  0.4559410000000  0.5739740000000  0.4594800000000 1.0
C      1  0.5433580000000  0.5639570000000  0.5336200000000 1.0
C      1  0.5472620000000  0.4269660000000  0.4593980000000 1.0
C      1  0.5474350000000  0.4150310000000  0.5571930000000 1.0
C      1  0.5496880000000  0.5410260000000  0.4218040000000 1.0
C      1  0.4182450000000  0.5557570000000  0.5443640000000 1.0
C      1  0.5394300000000  0.5848540000000  0.4412340000000 1.0
C      1  0.4532670000000  0.5833900000000  0.5585760000000 1.0
C      1  0.4535110000000  0.4139810000000  0.4455680000000 1.0
C      1  0.5553040000000  0.4542500000000  0.5827200000000 1.0
C      1  0.4469630000000  0.4538730000000  0.4214320000000 1.0
C      1  0.4432380000000  0.5438460000000  0.5824670000000 1.0
C      1  0.4178970000000  0.4426100000000  0.4567680000000 1.0
C      1  0.5820390000000  0.4443500000000  0.5446090000000 1.0
C      1  0.5776360000000  0.5578290000000  0.4542390000000 1.0
C      1  0.4851730000000  0.5471150000000  0.4624950000000 1.0
C      1  0.4789730000000  0.4785980000000  0.5508990000000 1.0
C      1  0.5428580000000  0.4694100000000  0.4842400000000 1.0
C      1  0.4852110000000  0.4579010000000  0.5290320000000 1.0
C      1  0.5214670000000  0.4466690000000  0.4707510000000 1.0
C      1  0.5111140000000  0.5318550000000  0.5338810000000 1.0
C      1  0.4681330000000  0.5112570000000  0.4660840000000 1.0
C      1  0.5417510000000  0.5260370000000  0.5474550000000 1.0
C      1  0.5399230000000  0.4758980000000  0.4509640000000 1.0
C      1  0.5465170000000  0.5352300000000  0.5156650000000 1.0
C      1  0.4532650000000  0.5416320000000  0.4697080000000 1.0
C      1  0.4528060000000  0.4613470000000  0.5264700000000 1.0
C      1  0.5409910000000  0.5196380000000  0.4442040000000 1.0
C      1  0.4398210000000  0.5469590000000  0.5219820000000 1.0
C      1  0.5192780000000  0.4296830000000  0.5515880000000 1.0
C      1  0.5406860000000  0.4736660000000  0.5623980000000 1.0
C      1  0.4602940000000  0.4744340000000  0.4431870000000 1.0
C      1  0.4593620000000  0.5274620000000  0.5600910000000 1.0
C      1  0.4373190000000  0.4590880000000  0.4762400000000 1.0
C      1  0.5602570000000  0.4532930000000  0.5220810000000 1.0
C      1  0.5622800000000  0.5410690000000  0.4794570000000 1.0
C      1  0.5243670000000  0.5600910000000  0.4566910000000 1.0
C      1  0.4756940000000  0.5661210000000  0.5397380000000 1.0
C      1  0.4777620000000  0.4313700000000  0.4576570000000 1.0
C      1  0.4320940000000  0.5661170000000  0.5675550000000 1.0
C      1  0.5676540000000  0.4331380000000  0.5668750000000 1.0
C      1  0.5599480000000  0.5643540000000  0.4337810000000 1.0
C      1  0.4338610000000  0.4324650000000  0.4353650000000 1.0
END
