TITL C-3289333-7213-180 0.000737014250342009 125000 -462.511783004711 0 0 85 (C1) n - 1
REM
REM in /nfs/bkarasulu/CARBON/AIRSS/Generating-Clusters/AIREBO/with-SteepDescent/Higher-Symm/SD-CG/HFTN-CG
REM
REM
REM
REM
REM
REM ./C.cell (b20cbc046b6831c77cfcea5457e17084)
REM
REM compiler GCC version 9.2.1 20190827 (Red Hat 9.2.1-1)
REM options -cpp -mtune=generic -march=x86-64 -g -O0 -fpre-include=/usr/include/finclude/math-vector-fortran.h
REM seed -201071705 2125378962 1818834107 888354739 -1515250493 -515347896 504476618 -2146240101 -837576461 -677928162 864497409 -503762254 -213984234 2022812804 477701510 -954830270 1738566185 -20625571 -1167181425 1934863538 2119126976 -493856657 -958953099 837662695 489802996 855323585 381481050 -493958062 -301291667 -1821015153 309407117 1201128101 2127965647
REM
CELL 1.54180   50.00000   50.00000   50.00000   90.00000   90.00000   90.00000
LATT -1
SFAC C  
C      1  0.4762500000000  0.4787880000000  0.4862770000000 1.0
C      1  0.4654960000000  0.5103880000000  0.4833080000000 1.0
C      1  0.5199690000000  0.5355240000000  0.5596430000000 1.0
C      1  0.5324550000000  0.4985870000000  0.4285090000000 1.0
C      1  0.5124940000000  0.4697000000000  0.5480610000000 1.0
C      1  0.5690420000000  0.4331070000000  0.5262500000000 1.0
C      1  0.5018540000000  0.5046030000000  0.4682200000000 1.0
C      1  0.4984360000000  0.4470760000000  0.5679120000000 1.0
C      1  0.5283530000000  0.5689560000000  0.4674960000000 1.0
C      1  0.4566600000000  0.4520710000000  0.5461020000000 1.0
C      1  0.4332430000000  0.4925820000000  0.4439140000000 1.0
C      1  0.5404760000000  0.5109740000000  0.4020870000000 1.0
C      1  0.4536370000000  0.5478520000000  0.5270580000000 1.0
C      1  0.4247380000000  0.4910530000000  0.5198130000000 1.0
C      1  0.5171520000000  0.4499720000000  0.5138760000000 1.0
C      1  0.4796900000000  0.5282500000000  0.4577340000000 1.0
C      1  0.5482520000000  0.4554890000000  0.5111540000000 1.0
C      1  0.5530760000000  0.5608460000000  0.4795410000000 1.0
C      1  0.5280100000000  0.5057130000000  0.5558580000000 1.0
C      1  0.4952080000000  0.4360930000000  0.5358880000000 1.0
C      1  0.4435070000000  0.5735600000000  0.5097200000000 1.0
C      1  0.5751230000000  0.5049030000000  0.5305070000000 1.0
C      1  0.4571960000000  0.4921820000000  0.5298810000000 1.0
C      1  0.5612070000000  0.5359620000000  0.4692800000000 1.0
C      1  0.4887880000000  0.4486550000000  0.4775310000000 1.0
C      1  0.5757980000000  0.5031200000000  0.5028940000000 1.0
C      1  0.5770360000000  0.4441940000000  0.4979510000000 1.0
C      1  0.4412730000000  0.4436030000000  0.5243800000000 1.0
C      1  0.5583790000000  0.5019320000000  0.5514270000000 1.0
C      1  0.5812670000000  0.5222580000000  0.4832420000000 1.0
C      1  0.4472630000000  0.5321230000000  0.4652330000000 1.0
C      1  0.4287250000000  0.5173000000000  0.4463130000000 1.0
C      1  0.5120500000000  0.4948280000000  0.5297020000000 1.0
C      1  0.4723960000000  0.4447620000000  0.4499920000000 1.0
C      1  0.4902170000000  0.4779930000000  0.5795300000000 1.0
C      1  0.4572820000000  0.4805810000000  0.4581080000000 1.0
C      1  0.5074430000000  0.4760850000000  0.4270970000000 1.0
C      1  0.4874350000000  0.4860160000000  0.4488120000000 1.0
C      1  0.4731300000000  0.5562190000000  0.5003660000000 1.0
C      1  0.4929180000000  0.5393460000000  0.4858940000000 1.0
C      1  0.4884510000000  0.5969180000000  0.5185590000000 1.0
C      1  0.4955090000000  0.4718230000000  0.5109070000000 1.0
C      1  0.4702700000000  0.5136570000000  0.5149370000000 1.0
C      1  0.5474700000000  0.5697770000000  0.5294540000000 1.0
C      1  0.4366960000000  0.4655570000000  0.5032500000000 1.0
C      1  0.5858190000000  0.4614390000000  0.4765900000000 1.0
C      1  0.4970880000000  0.4155060000000  0.5144030000000 1.0
C      1  0.5524480000000  0.5357360000000  0.3573190000000 1.0
C      1  0.4871150000000  0.5302790000000  0.5666640000000 1.0
C      1  0.4877510000000  0.5921880000000  0.4907550000000 1.0
C      1  0.4323170000000  0.5232130000000  0.5279340000000 1.0
C      1  0.4898180000000  0.5320550000000  0.5327810000000 1.0
C      1  0.5364830000000  0.4489420000000  0.4565250000000 1.0
C      1  0.5380060000000  0.4649140000000  0.4333750000000 1.0
C      1  0.5361510000000  0.5542320000000  0.5486690000000 1.0
C      1  0.4514880000000  0.4744200000000  0.5667740000000 1.0
C      1  0.4205720000000  0.5414070000000  0.5055890000000 1.0
C      1  0.5188810000000  0.5328040000000  0.5197910000000 1.0
C      1  0.4845270000000  0.5850880000000  0.5428760000000 1.0
C      1  0.5604130000000  0.4797000000000  0.4907220000000 1.0
C      1  0.4593990000000  0.5808870000000  0.4814160000000 1.0
C      1  0.4798740000000  0.4728900000000  0.5387160000000 1.0
C      1  0.5100210000000  0.5892090000000  0.4740390000000 1.0
C      1  0.4743720000000  0.5566260000000  0.5496280000000 1.0
C      1  0.5326730000000  0.4960900000000  0.4798070000000 1.0
C      1  0.5266840000000  0.4337280000000  0.4855600000000 1.0
C      1  0.5179210000000  0.4655300000000  0.4772910000000 1.0
C      1  0.4386230000000  0.5037030000000  0.5552260000000 1.0
C      1  0.5371160000000  0.5175760000000  0.4538230000000 1.0
C      1  0.5164310000000  0.5429110000000  0.4634410000000 1.0
C      1  0.5452840000000  0.5232190000000  0.3792050000000 1.0
C      1  0.5416160000000  0.4239140000000  0.5347700000000 1.0
C      1  0.5162390000000  0.4910150000000  0.5817360000000 1.0
C      1  0.4797520000000  0.4248300000000  0.4943600000000 1.0
C      1  0.5268750000000  0.4116440000000  0.5116020000000 1.0
C      1  0.4838180000000  0.4531360000000  0.4264930000000 1.0
C      1  0.3955940000000  0.4856430000000  0.5263600000000 1.0
C      1  0.5386370000000  0.5230590000000  0.4996490000000 1.0
C      1  0.4490810000000  0.4521740000000  0.4744100000000 1.0
C      1  0.4375780000000  0.5541400000000  0.4824410000000 1.0
C      1  0.4708810000000  0.5024370000000  0.5659090000000 1.0
C      1  0.5594560000000  0.5724420000000  0.5047250000000 1.0
C      1  0.5294330000000  0.4409390000000  0.5545400000000 1.0
C      1  0.5011030000000  0.5102340000000  0.5014390000000 1.0
C      1  0.4513440000000  0.4291210000000  0.4989820000000 1.0
END
