TITL C-3289334-2237-348 -0.00181285349509757 125000 -935.432532506197 0 0 168 (C1) n - 1
REM
REM in /nfs/bkarasulu/CARBON/AIRSS/Generating-Clusters/AIREBO/with-SteepDescent/Higher-Symm/SD-CG/HFTN-CG
REM
REM
REM
REM
REM
REM ./C.cell (b20cbc046b6831c77cfcea5457e17084)
REM
REM compiler GCC version 9.2.1 20190827 (Red Hat 9.2.1-1)
REM options -cpp -mtune=generic -march=x86-64 -g -O0 -fpre-include=/usr/include/finclude/math-vector-fortran.h
REM seed -1623002482 1396892200 -1462591411 1697060917 -276057101 -1744708307 46482161 -1649689325 -155069446 1392153317 -525316409 1613851577 1004184369 -1640050424 -1692416353 516738955 -472379705 -1188292073 -938132804 1544710449 792053491 1773539314 703168580 1675458885 1288602055 1828887194 2115904625 1884551679 -143927431 -2143883792 809045502 2097440857 968267156
REM
CELL 1.54180   50.00000   50.00000   50.00000   90.00000   90.00000   90.00000
LATT -1
SFAC C  
C      1  0.4383880000000  0.5260640000000  0.4124920000000 1.0
C      1  0.4808810000000  0.5635960000000  0.4057650000000 1.0
C      1  0.5353340000000  0.5647710000000  0.4036260000000 1.0
C      1  0.5675720000000  0.5230490000000  0.4184900000000 1.0
C      1  0.5545430000000  0.4705220000000  0.4160010000000 1.0
C      1  0.5186420000000  0.4384270000000  0.4063630000000 1.0
C      1  0.4708020000000  0.4514510000000  0.4196210000000 1.0
C      1  0.4259800000000  0.4755980000000  0.4227800000000 1.0
C      1  0.4942070000000  0.4282560000000  0.4204520000000 1.0
C      1  0.4414750000000  0.4545150000000  0.4301260000000 1.0
C      1  0.4223050000000  0.5036530000000  0.4261380000000 1.0
C      1  0.4557410000000  0.5539840000000  0.4159520000000 1.0
C      1  0.5094170000000  0.5773000000000  0.4125810000000 1.0
C      1  0.5616040000000  0.5520610000000  0.4212390000000 1.0
C      1  0.5697570000000  0.4925520000000  0.4296810000000 1.0
C      1  0.5455130000000  0.4432180000000  0.4195610000000 1.0
C      1  0.5297060000000  0.4868040000000  0.4285190000000 1.0
C      1  0.5147830000000  0.4675480000000  0.4456950000000 1.0
C      1  0.4854840000000  0.4682200000000  0.4437900000000 1.0
C      1  0.4722160000000  0.4930550000000  0.4497940000000 1.0
C      1  0.4650390000000  0.5168430000000  0.4314930000000 1.0
C      1  0.4864380000000  0.5393440000000  0.4369320000000 1.0
C      1  0.5170360000000  0.5388460000000  0.4302890000000 1.0
C      1  0.5292050000000  0.5146430000000  0.4409480000000 1.0
C      1  0.5224490000000  0.4350620000000  0.4522740000000 1.0
C      1  0.4745510000000  0.4443160000000  0.4626200000000 1.0
C      1  0.4289850000000  0.4885090000000  0.4773450000000 1.0
C      1  0.4455840000000  0.5283650000000  0.4569070000000 1.0
C      1  0.4933170000000  0.5641020000000  0.4578690000000 1.0
C      1  0.5302420000000  0.5627240000000  0.4430660000000 1.0
C      1  0.5685270000000  0.5121480000000  0.4739460000000 1.0
C      1  0.5576050000000  0.4606120000000  0.4708230000000 1.0
C      1  0.5332790000000  0.5248140000000  0.5520920000000 1.0
C      1  0.5444760000000  0.4926380000000  0.5479380000000 1.0
C      1  0.5283610000000  0.4636650000000  0.5538200000000 1.0
C      1  0.4944580000000  0.4604480000000  0.5528770000000 1.0
C      1  0.4653140000000  0.4772630000000  0.5578440000000 1.0
C      1  0.4584690000000  0.5059600000000  0.5492190000000 1.0
C      1  0.4762130000000  0.5323530000000  0.5406830000000 1.0
C      1  0.5023540000000  0.5384990000000  0.5556260000000 1.0
C      1  0.4123260000000  0.5430360000000  0.5585380000000 1.0
C      1  0.4717060000000  0.5944920000000  0.5572840000000 1.0
C      1  0.5437360000000  0.5915580000000  0.5546880000000 1.0
C      1  0.5991010000000  0.5273580000000  0.5554990000000 1.0
C      1  0.5921040000000  0.4483900000000  0.5529550000000 1.0
C      1  0.5234030000000  0.4015590000000  0.5540550000000 1.0
C      1  0.4558240000000  0.4144460000000  0.5559290000000 1.0
C      1  0.4027510000000  0.4780560000000  0.5587850000000 1.0
C      1  0.4766030000000  0.4708510000000  0.4826410000000 1.0
C      1  0.4583930000000  0.4962920000000  0.4769030000000 1.0
C      1  0.4620760000000  0.5271910000000  0.4856310000000 1.0
C      1  0.5139060000000  0.5410060000000  0.4719710000000 1.0
C      1  0.5379150000000  0.5169650000000  0.4704920000000 1.0
C      1  0.5264660000000  0.4944790000000  0.4864170000000 1.0
C      1  0.5266570000000  0.4679810000000  0.4741890000000 1.0
C      1  0.5034520000000  0.4556070000000  0.4892970000000 1.0
C      1  0.4663190000000  0.5737130000000  0.4662950000000 1.0
C      1  0.5194810000000  0.6089880000000  0.4653150000000 1.0
C      1  0.5913730000000  0.5370850000000  0.4774470000000 1.0
C      1  0.6041170000000  0.4854400000000  0.4753680000000 1.0
C      1  0.5312640000000  0.4042660000000  0.4596610000000 1.0
C      1  0.4655620000000  0.3982800000000  0.4488200000000 1.0
C      1  0.4213820000000  0.4565330000000  0.4778750000000 1.0
C      1  0.4003420000000  0.5421930000000  0.4607450000000 1.0
C      1  0.4765490000000  0.4998980000000  0.4042310000000 1.0
C      1  0.4870570000000  0.5175620000000  0.3865370000000 1.0
C      1  0.5027100000000  0.5402890000000  0.3994820000000 1.0
C      1  0.5342580000000  0.5350340000000  0.3944670000000 1.0
C      1  0.5425490000000  0.5066870000000  0.4041080000000 1.0
C      1  0.5297720000000  0.4828220000000  0.3866970000000 1.0
C      1  0.5097600000000  0.4637480000000  0.3925520000000 1.0
C      1  0.4838930000000  0.4732220000000  0.4013340000000 1.0
C      1  0.5424210000000  0.4014780000000  0.4917200000000 1.0
C      1  0.4638160000000  0.4017550000000  0.4806650000000 1.0
C      1  0.4093800000000  0.4397710000000  0.4980050000000 1.0
C      1  0.3983050000000  0.5431630000000  0.4912000000000 1.0
C      1  0.4515980000000  0.5918880000000  0.4909730000000 1.0
C      1  0.5241600000000  0.6055690000000  0.4920730000000 1.0
C      1  0.5828950000000  0.5595400000000  0.4905830000000 1.0
C      1  0.6089510000000  0.4674250000000  0.4958350000000 1.0
C      1  0.5365050000000  0.4930190000000  0.5154180000000 1.0
C      1  0.5218220000000  0.4657030000000  0.5232890000000 1.0
C      1  0.4913540000000  0.4657540000000  0.5194340000000 1.0
C      1  0.4645480000000  0.4763710000000  0.5110010000000 1.0
C      1  0.4594990000000  0.5041110000000  0.5181320000000 1.0
C      1  0.4847860000000  0.5235000000000  0.5106760000000 1.0
C      1  0.5111260000000  0.5342570000000  0.5038310000000 1.0
C      1  0.5342680000000  0.5245880000000  0.5187110000000 1.0
C      1  0.5478720000000  0.5492880000000  0.5868100000000 1.0
C      1  0.5688940000000  0.4992250000000  0.5849520000000 1.0
C      1  0.5496850000000  0.4524820000000  0.5856900000000 1.0
C      1  0.5031590000000  0.4334300000000  0.5874090000000 1.0
C      1  0.4541200000000  0.4528700000000  0.5873820000000 1.0
C      1  0.4339260000000  0.4992560000000  0.5958090000000 1.0
C      1  0.4525350000000  0.5448430000000  0.5929060000000 1.0
C      1  0.4975530000000  0.5670430000000  0.5829990000000 1.0
C      1  0.4098790000000  0.4965980000000  0.5368900000000 1.0
C      1  0.4267900000000  0.5567500000000  0.5360910000000 1.0
C      1  0.4937460000000  0.5904740000000  0.5347790000000 1.0
C      1  0.5513340000000  0.5766620000000  0.5303810000000 1.0
C      1  0.5959420000000  0.5069720000000  0.5363300000000 1.0
C      1  0.5740960000000  0.4387020000000  0.5331720000000 1.0
C      1  0.5026780000000  0.4082980000000  0.5342480000000 1.0
C      1  0.4373650000000  0.4294220000000  0.5446110000000 1.0
C      1  0.5625640000000  0.5326420000000  0.5120030000000 1.0
C      1  0.5656580000000  0.4813310000000  0.5088260000000 1.0
C      1  0.5346370000000  0.4434070000000  0.5105100000000 1.0
C      1  0.4834770000000  0.4310070000000  0.4992150000000 1.0
C      1  0.4425020000000  0.4562400000000  0.5122810000000 1.0
C      1  0.4324050000000  0.5137100000000  0.5086620000000 1.0
C      1  0.4627340000000  0.5556270000000  0.5033380000000 1.0
C      1  0.5121950000000  0.5655680000000  0.4954960000000 1.0
C      1  0.4206800000000  0.4817800000000  0.5086650000000 1.0
C      1  0.4297060000000  0.5464130000000  0.5038280000000 1.0
C      1  0.4858770000000  0.5773840000000  0.5054950000000 1.0
C      1  0.5404080000000  0.5802810000000  0.4992920000000 1.0
C      1  0.5827690000000  0.5095030000000  0.5049360000000 1.0
C      1  0.5663230000000  0.4481970000000  0.5012600000000 1.0
C      1  0.5150830000000  0.4180220000000  0.5041190000000 1.0
C      1  0.4493200000000  0.4308840000000  0.4905510000000 1.0
C      1  0.4861810000000  0.4274550000000  0.5519540000000 1.0
C      1  0.4379990000000  0.4608090000000  0.5517550000000 1.0
C      1  0.4290360000000  0.5138680000000  0.5539680000000 1.0
C      1  0.4596040000000  0.5587010000000  0.5442780000000 1.0
C      1  0.5097180000000  0.5708910000000  0.5515610000000 1.0
C      1  0.5574880000000  0.5484020000000  0.5482800000000 1.0
C      1  0.5743670000000  0.4838560000000  0.5485330000000 1.0
C      1  0.5439950000000  0.4352710000000  0.5484880000000 1.0
C      1  0.5031060000000  0.4652340000000  0.5855660000000 1.0
C      1  0.4750180000000  0.4770580000000  0.5889330000000 1.0
C      1  0.4623690000000  0.5001970000000  0.6024590000000 1.0
C      1  0.4727360000000  0.5258460000000  0.6006850000000 1.0
C      1  0.4988170000000  0.5340610000000  0.5891540000000 1.0
C      1  0.5287180000000  0.5226160000000  0.5859010000000 1.0
C      1  0.5418670000000  0.4979450000000  0.5954670000000 1.0
C      1  0.5308250000000  0.4726770000000  0.5943720000000 1.0
C      1  0.5955510000000  0.4762300000000  0.5229560000000 1.0
C      1  0.5514170000000  0.4166170000000  0.5207630000000 1.0
C      1  0.4808240000000  0.3988530000000  0.5099670000000 1.0
C      1  0.4144480000000  0.4489130000000  0.5300440000000 1.0
C      1  0.3984660000000  0.5146790000000  0.5104510000000 1.0
C      1  0.4456700000000  0.5789900000000  0.5205440000000 1.0
C      1  0.5048780000000  0.6119730000000  0.5109030000000 1.0
C      1  0.5773740000000  0.5585440000000  0.5221900000000 1.0
C      1  0.5655870000000  0.4223360000000  0.4788520000000 1.0
C      1  0.4981930000000  0.3989960000000  0.4807350000000 1.0
C      1  0.4211300000000  0.4127850000000  0.4964340000000 1.0
C      1  0.3903140000000  0.5089360000000  0.4794260000000 1.0
C      1  0.4343100000000  0.5663470000000  0.4766600000000 1.0
C      1  0.4762070000000  0.6096180000000  0.4993400000000 1.0
C      1  0.5624380000000  0.5730530000000  0.4779370000000 1.0
C      1  0.6096330000000  0.5129750000000  0.4843760000000 1.0
C      1  0.5582810000000  0.5664950000000  0.4508840000000 1.0
C      1  0.5762470000000  0.4847740000000  0.4593210000000 1.0
C      1  0.5552410000000  0.4342610000000  0.4498430000000 1.0
C      1  0.4932300000000  0.4176670000000  0.4527540000000 1.0
C      1  0.4428260000000  0.4415430000000  0.4589070000000 1.0
C      1  0.4157250000000  0.5120920000000  0.4570390000000 1.0
C      1  0.4462170000000  0.5586180000000  0.4456830000000 1.0
C      1  0.5107760000000  0.5880440000000  0.4442630000000 1.0
C      1  0.4273370000000  0.5286420000000  0.5842220000000 1.0
C      1  0.4644520000000  0.5668780000000  0.5750020000000 1.0
C      1  0.5308570000000  0.5729940000000  0.5781080000000 1.0
C      1  0.5723120000000  0.5301780000000  0.5728870000000 1.0
C      1  0.5773840000000  0.4674490000000  0.5762500000000 1.0
C      1  0.5328860000000  0.4240320000000  0.5776260000000 1.0
C      1  0.4711610000000  0.4267830000000  0.5825400000000 1.0
C      1  0.4263770000000  0.4717870000000  0.5817660000000 1.0
END
