TITL C-3289322-3858-664 -0.00120950324867746 125000 -997.702122196521 0 0 189 (C1) n - 1
REM
REM in /nfs/bkarasulu/CARBON/AIRSS/Generating-Clusters/AIREBO/with-SteepDescent/Higher-Symm/SD-CG/HFTN-CG
REM
REM
REM
REM
REM
REM ./C.cell (b20cbc046b6831c77cfcea5457e17084)
REM
REM compiler GCC version 9.2.1 20190827 (Red Hat 9.2.1-1)
REM options -cpp -mtune=generic -march=x86-64 -g -O0 -fpre-include=/usr/include/finclude/math-vector-fortran.h
REM seed 215699035 1311853538 -946864514 -1120307758 1559843762 1810292441 -281302530 1026302705 2017191967 -235200673 168814505 1830350806 2001634841 -643595005 -632708731 709162278 -752261388 1631419763 1979537246 -801407780 -323531113 -768080975 -1376185481 -818162416 239980236 800238080 -247708029 1679655662 327643349 -300692011 -873882086 -1406069071 -504343522
REM
CELL 1.54180   50.00000   50.00000   50.00000   90.00000   90.00000   90.00000
LATT -1
SFAC C  
C      1  0.4398420000000  0.4217030000000  0.4659850000000 1.0
C      1  0.4357860000000  0.5694960000000  0.5446280000000 1.0
C      1  0.5632220000000  0.4330640000000  0.4567700000000 1.0
C      1  0.5607310000000  0.5719250000000  0.5411510000000 1.0
C      1  0.4438400000000  0.4245570000000  0.5353920000000 1.0
C      1  0.4361810000000  0.5746600000000  0.4534370000000 1.0
C      1  0.5700270000000  0.4253190000000  0.5388230000000 1.0
C      1  0.5690920000000  0.5685470000000  0.4581780000000 1.0
C      1  0.4846320000000  0.4072950000000  0.4263590000000 1.0
C      1  0.4828090000000  0.5899510000000  0.5707480000000 1.0
C      1  0.5145250000000  0.4087350000000  0.4333710000000 1.0
C      1  0.5137300000000  0.5926650000000  0.5679660000000 1.0
C      1  0.4813240000000  0.4060510000000  0.5720310000000 1.0
C      1  0.4905050000000  0.5948620000000  0.4241670000000 1.0
C      1  0.5119710000000  0.4064820000000  0.5737210000000 1.0
C      1  0.5160750000000  0.5959590000000  0.4364370000000 1.0
C      1  0.4586210000000  0.5106630000000  0.5735570000000 1.0
C      1  0.4451840000000  0.4781770000000  0.4416070000000 1.0
C      1  0.5403590000000  0.5112120000000  0.5661840000000 1.0
C      1  0.5535180000000  0.4830020000000  0.4247440000000 1.0
C      1  0.4529760000000  0.5112790000000  0.4424350000000 1.0
C      1  0.4607440000000  0.4775240000000  0.5699740000000 1.0
C      1  0.5488910000000  0.5109820000000  0.4391700000000 1.0
C      1  0.5515170000000  0.4788450000000  0.5608930000000 1.0
C      1  0.4872660000000  0.5680070000000  0.3900640000000 1.0
C      1  0.4912100000000  0.4460410000000  0.6203750000000 1.0
C      1  0.5108300000000  0.5568850000000  0.4040370000000 1.0
C      1  0.5116250000000  0.4323050000000  0.6130520000000 1.0
C      1  0.4857460000000  0.5657670000000  0.6087570000000 1.0
C      1  0.4915650000000  0.4303240000000  0.3877530000000 1.0
C      1  0.5110230000000  0.5699380000000  0.6082710000000 1.0
C      1  0.5170060000000  0.4302500000000  0.3894910000000 1.0
C      1  0.6302360000000  0.4937630000000  0.4724620000000 1.0
C      1  0.6220030000000  0.5009890000000  0.5231350000000 1.0
C      1  0.3930030000000  0.5122740000000  0.4743250000000 1.0
C      1  0.3731980000000  0.5147290000000  0.5153610000000 1.0
C      1  0.5978240000000  0.5080550000000  0.5272690000000 1.0
C      1  0.6068510000000  0.4818660000000  0.4696450000000 1.0
C      1  0.3982710000000  0.5180300000000  0.5187460000000 1.0
C      1  0.3678190000000  0.5085760000000  0.4762260000000 1.0
C      1  0.4873620000000  0.5926270000000  0.4755970000000 1.0
C      1  0.4910540000000  0.4053080000000  0.5389840000000 1.0
C      1  0.5158070000000  0.5964180000000  0.4652590000000 1.0
C      1  0.5247770000000  0.4050290000000  0.5435430000000 1.0
C      1  0.4846790000000  0.5954790000000  0.5409100000000 1.0
C      1  0.4850350000000  0.4081670000000  0.4603560000000 1.0
C      1  0.5168980000000  0.5893310000000  0.5337360000000 1.0
C      1  0.5182850000000  0.4051570000000  0.4633430000000 1.0
C      1  0.5137420000000  0.4368720000000  0.5480430000000 1.0
C      1  0.5161520000000  0.5584830000000  0.4494110000000 1.0
C      1  0.4802850000000  0.4366550000000  0.5465650000000 1.0
C      1  0.4867540000000  0.5676450000000  0.4537680000000 1.0
C      1  0.5138080000000  0.4455070000000  0.4489040000000 1.0
C      1  0.5115700000000  0.5588980000000  0.5474890000000 1.0
C      1  0.4827300000000  0.4390030000000  0.4500710000000 1.0
C      1  0.4830490000000  0.5482290000000  0.5468740000000 1.0
C      1  0.5127650000000  0.5266640000000  0.4096560000000 1.0
C      1  0.5099290000000  0.4704020000000  0.5837520000000 1.0
C      1  0.4837800000000  0.5311980000000  0.4215170000000 1.0
C      1  0.4786490000000  0.4630310000000  0.5949830000000 1.0
C      1  0.5169880000000  0.5294310000000  0.5829780000000 1.0
C      1  0.5227200000000  0.4701630000000  0.4181090000000 1.0
C      1  0.4856870000000  0.5275280000000  0.5860070000000 1.0
C      1  0.4884310000000  0.4706350000000  0.4145800000000 1.0
C      1  0.5551900000000  0.6199160000000  0.5202730000000 1.0
C      1  0.5508180000000  0.3905450000000  0.4859190000000 1.0
C      1  0.4412570000000  0.6159280000000  0.5325660000000 1.0
C      1  0.4539740000000  0.3725880000000  0.4850050000000 1.0
C      1  0.5701450000000  0.5967190000000  0.4751440000000 1.0
C      1  0.5571820000000  0.3861060000000  0.5124370000000 1.0
C      1  0.4443670000000  0.6184560000000  0.4837600000000 1.0
C      1  0.4552930000000  0.3780960000000  0.5117790000000 1.0
C      1  0.4301350000000  0.5208700000000  0.5260330000000 1.0
C      1  0.4374340000000  0.4902720000000  0.4786000000000 1.0
C      1  0.5682690000000  0.5160330000000  0.5294420000000 1.0
C      1  0.5781300000000  0.4876560000000  0.4754340000000 1.0
C      1  0.4232030000000  0.5148390000000  0.4696250000000 1.0
C      1  0.4331830000000  0.4882370000000  0.5297290000000 1.0
C      1  0.5624520000000  0.5111320000000  0.4691180000000 1.0
C      1  0.5492140000000  0.4944100000000  0.5264070000000 1.0
C      1  0.4825560000000  0.5197950000000  0.4531900000000 1.0
C      1  0.4856840000000  0.4883040000000  0.5545570000000 1.0
C      1  0.5152020000000  0.5181910000000  0.4424940000000 1.0
C      1  0.5185940000000  0.4807870000000  0.5525510000000 1.0
C      1  0.4819530000000  0.5180260000000  0.5419410000000 1.0
C      1  0.4780570000000  0.4808410000000  0.4453210000000 1.0
C      1  0.5146780000000  0.5140540000000  0.5464580000000 1.0
C      1  0.5101270000000  0.4858660000000  0.4441100000000 1.0
C      1  0.5671120000000  0.5396080000000  0.4414830000000 1.0
C      1  0.5651420000000  0.4469510000000  0.5579090000000 1.0
C      1  0.4283810000000  0.5347560000000  0.4425420000000 1.0
C      1  0.4435740000000  0.4526890000000  0.5551960000000 1.0
C      1  0.5654720000000  0.5323280000000  0.5572370000000 1.0
C      1  0.5716780000000  0.4615810000000  0.4418380000000 1.0
C      1  0.4253350000000  0.5386890000000  0.5545930000000 1.0
C      1  0.4379090000000  0.4468050000000  0.4427640000000 1.0
C      1  0.5891380000000  0.4289680000000  0.5151060000000 1.0
C      1  0.5872240000000  0.5702860000000  0.4879630000000 1.0
C      1  0.4159420000000  0.4195080000000  0.5177830000000 1.0
C      1  0.4202460000000  0.5692100000000  0.4840390000000 1.0
C      1  0.5829370000000  0.4362370000000  0.4847450000000 1.0
C      1  0.5826380000000  0.5645120000000  0.5162210000000 1.0
C      1  0.4181990000000  0.4281440000000  0.4909980000000 1.0
C      1  0.4159630000000  0.5715840000000  0.5170750000000 1.0
C      1  0.5436270000000  0.5911090000000  0.5186820000000 1.0
C      1  0.5418180000000  0.4202270000000  0.4787920000000 1.0
C      1  0.4569130000000  0.5879120000000  0.5253410000000 1.0
C      1  0.4622960000000  0.4034800000000  0.4817410000000 1.0
C      1  0.5406010000000  0.5845280000000  0.4853080000000 1.0
C      1  0.5522660000000  0.4034890000000  0.5341580000000 1.0
C      1  0.4600240000000  0.5932580000000  0.4918870000000 1.0
C      1  0.4648870000000  0.4065460000000  0.5182140000000 1.0
C      1  0.4766650000000  0.4387770000000  0.4162610000000 1.0
C      1  0.4735120000000  0.5582460000000  0.5779370000000 1.0
C      1  0.5281370000000  0.4366100000000  0.4194320000000 1.0
C      1  0.5242500000000  0.5622150000000  0.5788670000000 1.0
C      1  0.4696910000000  0.4344920000000  0.5788050000000 1.0
C      1  0.4758270000000  0.5642600000000  0.4218740000000 1.0
C      1  0.5215020000000  0.4385360000000  0.5811190000000 1.0
C      1  0.5322740000000  0.5702300000000  0.4229290000000 1.0
C      1  0.4602500000000  0.5633800000000  0.4746430000000 1.0
C      1  0.4690640000000  0.4530040000000  0.5230450000000 1.0
C      1  0.5327170000000  0.5530540000000  0.4750850000000 1.0
C      1  0.5242560000000  0.4525540000000  0.5248490000000 1.0
C      1  0.4678770000000  0.5566530000000  0.5214120000000 1.0
C      1  0.4653820000000  0.4531610000000  0.4711240000000 1.0
C      1  0.5306820000000  0.5534410000000  0.5228510000000 1.0
C      1  0.5322420000000  0.4524330000000  0.4735690000000 1.0
C      1  0.5762730000000  0.4892260000000  0.4002450000000 1.0
C      1  0.5784580000000  0.5169860000000  0.5846660000000 1.0
C      1  0.4230880000000  0.4891620000000  0.4181330000000 1.0
C      1  0.4248120000000  0.5106780000000  0.5739040000000 1.0
C      1  0.5736900000000  0.4897760000000  0.5842580000000 1.0
C      1  0.5792670000000  0.5137300000000  0.3899510000000 1.0
C      1  0.4170830000000  0.4923400000000  0.5926520000000 1.0
C      1  0.4173480000000  0.5159160000000  0.4157000000000 1.0
C      1  0.4368190000000  0.5396540000000  0.4812280000000 1.0
C      1  0.4378940000000  0.4591330000000  0.5162520000000 1.0
C      1  0.5622180000000  0.5393300000000  0.4844750000000 1.0
C      1  0.5520920000000  0.4663420000000  0.5127090000000 1.0
C      1  0.4394230000000  0.5478550000000  0.5114550000000 1.0
C      1  0.4337190000000  0.4573050000000  0.4828950000000 1.0
C      1  0.5596920000000  0.5416560000000  0.5151580000000 1.0
C      1  0.5630760000000  0.4625820000000  0.4836940000000 1.0
C      1  0.5288960000000  0.4852740000000  0.4686450000000 1.0
C      1  0.5231950000000  0.5240950000000  0.5207010000000 1.0
C      1  0.4711600000000  0.4859050000000  0.4782300000000 1.0
C      1  0.4617980000000  0.5124440000000  0.5162690000000 1.0
C      1  0.5174700000000  0.4848830000000  0.5187990000000 1.0
C      1  0.5296380000000  0.5190230000000  0.4732720000000 1.0
C      1  0.4663070000000  0.4829900000000  0.5307900000000 1.0
C      1  0.4780260000000  0.5180590000000  0.4868900000000 1.0
C      1  0.4427070000000  0.4730010000000  0.4020550000000 1.0
C      1  0.4480380000000  0.5335950000000  0.5963350000000 1.0
C      1  0.5565570000000  0.4612100000000  0.3988110000000 1.0
C      1  0.5546630000000  0.5341190000000  0.5955310000000 1.0
C      1  0.4367950000000  0.4736370000000  0.6024260000000 1.0
C      1  0.4403660000000  0.5315960000000  0.4046610000000 1.0
C      1  0.5557180000000  0.4706950000000  0.5996780000000 1.0
C      1  0.5566430000000  0.5303560000000  0.3936440000000 1.0
C      1  0.4672560000000  0.4884150000000  0.3983970000000 1.0
C      1  0.4685910000000  0.5132740000000  0.6119090000000 1.0
C      1  0.5336360000000  0.4862410000000  0.3902090000000 1.0
C      1  0.5332550000000  0.5131750000000  0.6053800000000 1.0
C      1  0.4619270000000  0.4862670000000  0.6133310000000 1.0
C      1  0.4643300000000  0.5163800000000  0.4033830000000 1.0
C      1  0.5307760000000  0.4851720000000  0.6030610000000 1.0
C      1  0.5330870000000  0.5145060000000  0.3924930000000 1.0
C      1  0.3988490000000  0.5556470000000  0.5398720000000 1.0
C      1  0.4118460000000  0.4426910000000  0.4609840000000 1.0
C      1  0.5898120000000  0.5540890000000  0.5477230000000 1.0
C      1  0.5960230000000  0.4553800000000  0.4606470000000 1.0
C      1  0.4064490000000  0.5573730000000  0.4553310000000 1.0
C      1  0.4164970000000  0.4447320000000  0.5384070000000 1.0
C      1  0.5905450000000  0.5437220000000  0.4661820000000 1.0
C      1  0.5822400000000  0.4575580000000  0.5185490000000 1.0
C      1  0.4406230000000  0.4489830000000  0.5888650000000 1.0
C      1  0.4440320000000  0.5588650000000  0.4243700000000 1.0
C      1  0.5519470000000  0.4464450000000  0.5843030000000 1.0
C      1  0.5560370000000  0.5502790000000  0.4140910000000 1.0
C      1  0.4466610000000  0.4470200000000  0.4133180000000 1.0
C      1  0.4410190000000  0.5589780000000  0.5769380000000 1.0
C      1  0.5600620000000  0.4367090000000  0.4226970000000 1.0
C      1  0.5552150000000  0.5605510000000  0.5731900000000 1.0
C      1  0.4835500000000  0.5500940000000  0.4955430000000 1.0
C      1  0.5100430000000  0.4520880000000  0.4971950000000 1.0
C      1  0.4844300000000  0.4524400000000  0.4969420000000 1.0
C      1  0.5119040000000  0.5551480000000  0.4985360000000 1.0
C      1  0.5091100000000  0.5098170000000  0.4972410000000 1.0
END
