TITL C-3289327-5623-13 0.00592906550820293 125000 -779.401979197087 0 0 139 (C1) n - 1
REM
REM in /nfs/bkarasulu/CARBON/AIRSS/Generating-Clusters/AIREBO/with-SteepDescent/Higher-Symm/SD-CG/HFTN-CG
REM
REM
REM
REM
REM
REM ./C.cell (b20cbc046b6831c77cfcea5457e17084)
REM
REM compiler GCC version 9.2.1 20190827 (Red Hat 9.2.1-1)
REM options -cpp -mtune=generic -march=x86-64 -g -O0 -fpre-include=/usr/include/finclude/math-vector-fortran.h
REM seed 1871775622 1307847921 467502707 949146030 1954303720 1515282762 -1619002980 910507870 -272264236 2086751114 1555324672 -1003028 -1980403621 -1604704093 1108553779 804036230 -289272194 758138176 -396448670 1225991890 -400550916 -1071690080 2139295378 402493562 514698978 773347342 -570872037 -1259099403 1464395333 -1896832765 -537560852 -391061135 467064615
REM
CELL 1.54180   50.00000   50.00000   50.00000   90.00000   90.00000   90.00000
LATT -1
SFAC C  
C      1  0.4528350000000  0.4585920000000  0.5212390000000 1.0
C      1  0.4521040000000  0.4969120000000  0.4621590000000 1.0
C      1  0.4511440000000  0.5375700000000  0.5243620000000 1.0
C      1  0.5459770000000  0.5287200000000  0.5254470000000 1.0
C      1  0.5490960000000  0.4970930000000  0.4503620000000 1.0
C      1  0.5538300000000  0.4694840000000  0.5278060000000 1.0
C      1  0.5503780000000  0.5232900000000  0.4737440000000 1.0
C      1  0.5453260000000  0.5023300000000  0.5489280000000 1.0
C      1  0.5515990000000  0.4666380000000  0.4759110000000 1.0
C      1  0.4551270000000  0.4664480000000  0.4776640000000 1.0
C      1  0.4515050000000  0.4912790000000  0.5318340000000 1.0
C      1  0.4470380000000  0.5294280000000  0.4911650000000 1.0
C      1  0.4470220000000  0.4494290000000  0.5604240000000 1.0
C      1  0.4491410000000  0.4729750000000  0.4244280000000 1.0
C      1  0.4555900000000  0.5784340000000  0.5128930000000 1.0
C      1  0.5501910000000  0.5539450000000  0.5616160000000 1.0
C      1  0.5493500000000  0.5287480000000  0.4139910000000 1.0
C      1  0.5616810000000  0.4235600000000  0.5213730000000 1.0
C      1  0.5507850000000  0.5477310000000  0.4398960000000 1.0
C      1  0.5410130000000  0.5284250000000  0.5788560000000 1.0
C      1  0.5562040000000  0.4263290000000  0.4879280000000 1.0
C      1  0.4579290000000  0.4468060000000  0.4422210000000 1.0
C      1  0.4567210000000  0.4780030000000  0.5720080000000 1.0
C      1  0.4384020000000  0.5756210000000  0.4899180000000 1.0
C      1  0.4824950000000  0.4700540000000  0.5185040000000 1.0
C      1  0.4814380000000  0.5079010000000  0.4649950000000 1.0
C      1  0.4793690000000  0.5282390000000  0.5142980000000 1.0
C      1  0.5185110000000  0.5218530000000  0.5107040000000 1.0
C      1  0.5204160000000  0.5031290000000  0.4576370000000 1.0
C      1  0.5251560000000  0.4701970000000  0.5169910000000 1.0
C      1  0.5198980000000  0.5238590000000  0.4823600000000 1.0
C      1  0.5214240000000  0.4975280000000  0.5293490000000 1.0
C      1  0.5248110000000  0.4683580000000  0.4879520000000 1.0
C      1  0.4826020000000  0.4670380000000  0.4894430000000 1.0
C      1  0.4817360000000  0.5009500000000  0.5269380000000 1.0
C      1  0.4798100000000  0.5319970000000  0.4824500000000 1.0
C      1  0.5202710000000  0.5966800000000  0.4780880000000 1.0
C      1  0.5179210000000  0.4652920000000  0.5891550000000 1.0
C      1  0.5140300000000  0.4314040000000  0.4201500000000 1.0
C      1  0.4773560000000  0.4118110000000  0.4853010000000 1.0
C      1  0.4834550000000  0.5338040000000  0.5968750000000 1.0
C      1  0.4856360000000  0.5677530000000  0.4297110000000 1.0
C      1  0.4801870000000  0.4088470000000  0.5190720000000 1.0
C      1  0.4796730000000  0.5362120000000  0.4199560000000 1.0
C      1  0.4805010000000  0.5540700000000  0.5736260000000 1.0
C      1  0.5233720000000  0.5863310000000  0.5073420000000 1.0
C      1  0.5188170000000  0.4621100000000  0.4137550000000 1.0
C      1  0.5091730000000  0.4348970000000  0.5766280000000 1.0
C      1  0.5816490000000  0.4474270000000  0.5101950000000 1.0
C      1  0.5766880000000  0.5184870000000  0.4314110000000 1.0
C      1  0.5773770000000  0.5454210000000  0.5430560000000 1.0
C      1  0.4163660000000  0.5587210000000  0.5292100000000 1.0
C      1  0.4214940000000  0.4864750000000  0.4389100000000 1.0
C      1  0.4185260000000  0.4575940000000  0.5410840000000 1.0
C      1  0.4162020000000  0.5594390000000  0.4985760000000 1.0
C      1  0.4255250000000  0.4831320000000  0.5610210000000 1.0
C      1  0.4266080000000  0.4554240000000  0.4522570000000 1.0
C      1  0.5840390000000  0.4440020000000  0.4790170000000 1.0
C      1  0.5738650000000  0.5224590000000  0.5680530000000 1.0
C      1  0.5802340000000  0.5424380000000  0.4560470000000 1.0
C      1  0.4710630000000  0.5810410000000  0.4509440000000 1.0
C      1  0.4713490000000  0.5059920000000  0.5965300000000 1.0
C      1  0.4677070000000  0.4094730000000  0.4527800000000 1.0
C      1  0.5239770000000  0.4177730000000  0.4461980000000 1.0
C      1  0.5278340000000  0.4941530000000  0.6043600000000 1.0
C      1  0.5343390000000  0.5875380000000  0.4555080000000 1.0
C      1  0.5242860000000  0.4219280000000  0.5558650000000 1.0
C      1  0.5248980000000  0.4953120000000  0.4033490000000 1.0
C      1  0.5288700000000  0.5845280000000  0.5413300000000 1.0
C      1  0.4748280000000  0.5797380000000  0.5495050000000 1.0
C      1  0.4715690000000  0.5058650000000  0.4051440000000 1.0
C      1  0.4649230000000  0.4160210000000  0.5478780000000 1.0
C      1  0.4226050000000  0.4760420000000  0.4790130000000 1.0
C      1  0.4133710000000  0.5283550000000  0.4868970000000 1.0
C      1  0.4183190000000  0.4980490000000  0.5315410000000 1.0
C      1  0.5822250000000  0.5258920000000  0.4853400000000 1.0
C      1  0.5803540000000  0.4774770000000  0.4839710000000 1.0
C      1  0.5759960000000  0.5058290000000  0.5378760000000 1.0
C      1  0.5780050000000  0.5298610000000  0.5140850000000 1.0
C      1  0.5819050000000  0.4807860000000  0.5168040000000 1.0
C      1  0.5810140000000  0.5021710000000  0.4610000000000 1.0
C      1  0.4239610000000  0.4719400000000  0.5104970000000 1.0
C      1  0.4199730000000  0.5260870000000  0.5201740000000 1.0
C      1  0.4197620000000  0.5065620000000  0.4662880000000 1.0
C      1  0.4530630000000  0.4281470000000  0.5120050000000 1.0
C      1  0.4550970000000  0.5208080000000  0.4381150000000 1.0
C      1  0.4558730000000  0.5452900000000  0.5556010000000 1.0
C      1  0.5451060000000  0.5607090000000  0.5136420000000 1.0
C      1  0.5465070000000  0.4724720000000  0.4277940000000 1.0
C      1  0.5545740000000  0.4575560000000  0.5531690000000 1.0
C      1  0.5541440000000  0.5541980000000  0.4838720000000 1.0
C      1  0.5437870000000  0.4776390000000  0.5722690000000 1.0
C      1  0.5531720000000  0.4537210000000  0.4508970000000 1.0
C      1  0.4522070000000  0.4344020000000  0.4797520000000 1.0
C      1  0.4497160000000  0.5142970000000  0.5567950000000 1.0
C      1  0.4475080000000  0.5408280000000  0.4608190000000 1.0
C      1  0.5084690000000  0.4098860000000  0.5322700000000 1.0
C      1  0.5016850000000  0.5199770000000  0.3997420000000 1.0
C      1  0.5048250000000  0.5761470000000  0.5648110000000 1.0
C      1  0.4987580000000  0.5935700000000  0.5296590000000 1.0
C      1  0.4945230000000  0.4809440000000  0.3992160000000 1.0
C      1  0.4801170000000  0.4251710000000  0.5732630000000 1.0
C      1  0.4899490000000  0.5977790000000  0.4693940000000 1.0
C      1  0.4904260000000  0.4814270000000  0.6010400000000 1.0
C      1  0.4862870000000  0.4203090000000  0.4332470000000 1.0
C      1  0.5046800000000  0.4082060000000  0.4678710000000 1.0
C      1  0.5098080000000  0.5162280000000  0.6004490000000 1.0
C      1  0.5146800000000  0.5805920000000  0.4311420000000 1.0
C      1  0.4424120000000  0.5724670000000  0.5417160000000 1.0
C      1  0.4341690000000  0.4274210000000  0.5398900000000 1.0
C      1  0.4392240000000  0.5026110000000  0.4141740000000 1.0
C      1  0.5503060000000  0.4305100000000  0.5501770000000 1.0
C      1  0.5612360000000  0.5756460000000  0.5395840000000 1.0
C      1  0.5582700000000  0.4976250000000  0.4108610000000 1.0
C      1  0.5497960000000  0.4258560000000  0.4545380000000 1.0
C      1  0.5634300000000  0.5727840000000  0.4578120000000 1.0
C      1  0.5574710000000  0.5017120000000  0.5894370000000 1.0
C      1  0.4489500000000  0.5687960000000  0.4637260000000 1.0
C      1  0.4363040000000  0.4225180000000  0.4521470000000 1.0
C      1  0.4391380000000  0.5018900000000  0.5866430000000 1.0
C      1  0.4870680000000  0.4798070000000  0.5686370000000 1.0
C      1  0.4903870000000  0.4500300000000  0.4460550000000 1.0
C      1  0.4911810000000  0.5704210000000  0.4837770000000 1.0
C      1  0.5099380000000  0.5227890000000  0.5692440000000 1.0
C      1  0.5190380000000  0.5522050000000  0.4449310000000 1.0
C      1  0.5241820000000  0.4281860000000  0.4851170000000 1.0
C      1  0.5192330000000  0.5275670000000  0.4260770000000 1.0
C      1  0.5174200000000  0.5486960000000  0.5540340000000 1.0
C      1  0.5285970000000  0.4302770000000  0.5166020000000 1.0
C      1  0.4819450000000  0.4754800000000  0.4287850000000 1.0
C      1  0.4810430000000  0.4520630000000  0.5540850000000 1.0
C      1  0.4847570000000  0.5698100000000  0.5121710000000 1.0
C      1  0.5052670000000  0.5475530000000  0.4703350000000 1.0
C      1  0.5046140000000  0.4494920000000  0.5311920000000 1.0
C      1  0.5022180000000  0.4477480000000  0.4730450000000 1.0
C      1  0.5040940000000  0.5463910000000  0.5261960000000 1.0
C      1  0.4997950000000  0.5007260000000  0.5524620000000 1.0
C      1  0.4968700000000  0.5038940000000  0.4358940000000 1.0
C      1  0.5017370000000  0.4872700000000  0.4762440000000 1.0
END
