TITL C-3289330-4660-394 -8.02403177575021e-07 125000 -138.450071890036 0 0 24 (S4) n - 1
REM
REM in /nfs/bkarasulu/CARBON/AIRSS/Generating-Clusters/AIREBO/with-SteepDescent/Higher-Symm/SD-CG/HFTN-CG
REM
REM
REM
REM
REM
REM ./C.cell (b20cbc046b6831c77cfcea5457e17084)
REM
REM compiler GCC version 9.2.1 20190827 (Red Hat 9.2.1-1)
REM options -cpp -mtune=generic -march=x86-64 -g -O0 -fpre-include=/usr/include/finclude/math-vector-fortran.h
REM seed -1556798658 1638295227 -14809275 -1730621398 1830533756 -1408401537 -207342636 -1613771720 2103844519 629324958 -453069814 724360183 2095744229 1459019492 162219871 -229618016 -725242589 295862007 -2092541261 -487510238 1362552550 -237039808 455481246 2063425145 2093811531 1492919628 685669001 2071803575 1240083634 1169517476 -802927745 344011094 1251924625
REM
CELL 1.54180   50.00000   50.00000   50.00000   90.00000   90.00000   90.00000
LATT -1
SFAC C  
C      1  0.5346330000000  0.4854600000000  0.4598450000000 1.0
C      1  0.4873670000000  0.4629600000000  0.5379730000000 1.0
C      1  0.4653500000000  0.5401460000000  0.4854740000000 1.0
C      1  0.5346620000000  0.5145360000000  0.5401330000000 1.0
C      1  0.4639770000000  0.4849060000000  0.5351550000000 1.0
C      1  0.4639560000000  0.5150980000000  0.4648680000000 1.0
C      1  0.4873470000000  0.5370420000000  0.4620350000000 1.0
C      1  0.5126280000000  0.4620300000000  0.4629550000000 1.0
C      1  0.5126570000000  0.5379680000000  0.5370370000000 1.0
C      1  0.4653540000000  0.4598580000000  0.5145490000000 1.0
C      1  0.5360410000000  0.5351410000000  0.5150840000000 1.0
C      1  0.5360260000000  0.4648540000000  0.4848920000000 1.0
C      1  0.4677400000000  0.4885810000000  0.4690370000000 1.0
C      1  0.5148160000000  0.4630860000000  0.5377230000000 1.0
C      1  0.5322470000000  0.5309710000000  0.4885680000000 1.0
C      1  0.4677620000000  0.5114230000000  0.5309840000000 1.0
C      1  0.5365860000000  0.4872740000000  0.5374010000000 1.0
C      1  0.5365630000000  0.5127210000000  0.4625750000000 1.0
C      1  0.5147960000000  0.5369120000000  0.4622670000000 1.0
C      1  0.4851800000000  0.4622730000000  0.4630920000000 1.0
C      1  0.4852090000000  0.5377290000000  0.5369180000000 1.0
C      1  0.5322500000000  0.4690240000000  0.5114100000000 1.0
C      1  0.4634330000000  0.5374160000000  0.5127360000000 1.0
C      1  0.4634190000000  0.4625890000000  0.4872880000000 1.0
END
