TITL C-3289320-4661-108 0.000112638923641476 125000 -558.57399949787 0 0 102 (C1) n - 1
REM
REM in /nfs/bkarasulu/CARBON/AIRSS/Generating-Clusters/AIREBO/with-SteepDescent/Higher-Symm/SD-CG/HFTN-CG
REM
REM
REM
REM
REM
REM ./C.cell (b20cbc046b6831c77cfcea5457e17084)
REM
REM compiler GCC version 9.2.1 20190827 (Red Hat 9.2.1-1)
REM options -cpp -mtune=generic -march=x86-64 -g -O0 -fpre-include=/usr/include/finclude/math-vector-fortran.h
REM seed -1086023688 -1921104407 -912498649 39655404 -788270943 1235571013 -1344897801 -1835989733 -1716701473 1313833509 1829026057 -922061138 -245388553 -1661866732 -646483618 -2142498129 -664733729 737951212 1680873089 28870091 -1644202058 1880764485 -2730283 -895889854 1950886185 2112896438 911964570 594820408 695947622 -761727005 1599041828 -1238533973 871817438
REM
CELL 1.54180   50.00000   50.00000   50.00000   90.00000   90.00000   90.00000
LATT -1
SFAC C  
C      1  0.4871140000000  0.4256480000000  0.5317040000000 1.0
C      1  0.4872890000000  0.4452270000000  0.4325410000000 1.0
C      1  0.4909310000000  0.5389880000000  0.4167680000000 1.0
C      1  0.4841140000000  0.5810290000000  0.5237910000000 1.0
C      1  0.4847920000000  0.5055070000000  0.5835600000000 1.0
C      1  0.5153770000000  0.4250090000000  0.5309290000000 1.0
C      1  0.5164570000000  0.4435310000000  0.4313710000000 1.0
C      1  0.5205000000000  0.5385940000000  0.4229080000000 1.0
C      1  0.5128740000000  0.5826650000000  0.5228850000000 1.0
C      1  0.5133450000000  0.5061710000000  0.5828870000000 1.0
C      1  0.5317010000000  0.4377500000000  0.4540340000000 1.0
C      1  0.5377440000000  0.5163840000000  0.4214050000000 1.0
C      1  0.5291100000000  0.5807240000000  0.5003350000000 1.0
C      1  0.5301420000000  0.5264990000000  0.5725260000000 1.0
C      1  0.5317310000000  0.4411680000000  0.5469430000000 1.0
C      1  0.4699190000000  0.4378520000000  0.4530340000000 1.0
C      1  0.4696000000000  0.5201980000000  0.4226760000000 1.0
C      1  0.4663550000000  0.5765640000000  0.5026540000000 1.0
C      1  0.4671040000000  0.5251550000000  0.5733510000000 1.0
C      1  0.4699020000000  0.4382850000000  0.5495590000000 1.0
C      1  0.4857970000000  0.5468760000000  0.4756360000000 1.0
C      1  0.4840330000000  0.5471630000000  0.5447940000000 1.0
C      1  0.4821430000000  0.4753390000000  0.5576090000000 1.0
C      1  0.4808020000000  0.4511980000000  0.4889260000000 1.0
C      1  0.4917380000000  0.4848750000000  0.4324990000000 1.0
C      1  0.5154600000000  0.5485710000000  0.4760630000000 1.0
C      1  0.5156160000000  0.5481670000000  0.5425530000000 1.0
C      1  0.5146600000000  0.4758040000000  0.5570440000000 1.0
C      1  0.5126560000000  0.4400940000000  0.4920860000000 1.0
C      1  0.5174100000000  0.4833160000000  0.4300490000000 1.0
C      1  0.5901310000000  0.5213300000000  0.5412330000000 1.0
C      1  0.5903280000000  0.4692330000000  0.5335340000000 1.0
C      1  0.5905280000000  0.4584600000000  0.4826430000000 1.0
C      1  0.5914820000000  0.5046200000000  0.4550710000000 1.0
C      1  0.5846040000000  0.5504760000000  0.4908120000000 1.0
C      1  0.4103580000000  0.5127050000000  0.5470400000000 1.0
C      1  0.4176000000000  0.4609030000000  0.5302440000000 1.0
C      1  0.4141830000000  0.4626470000000  0.4725780000000 1.0
C      1  0.4069210000000  0.5175560000000  0.4538970000000 1.0
C      1  0.4112960000000  0.5530030000000  0.5032150000000 1.0
C      1  0.5255810000000  0.4116800000000  0.5030120000000 1.0
C      1  0.5298150000000  0.4643030000000  0.4079020000000 1.0
C      1  0.5262180000000  0.5604110000000  0.4481490000000 1.0
C      1  0.5264650000000  0.5770570000000  0.5535720000000 1.0
C      1  0.5264490000000  0.4753300000000  0.5876950000000 1.0
C      1  0.4757800000000  0.4209640000000  0.5034820000000 1.0
C      1  0.4746990000000  0.4670790000000  0.4113450000000 1.0
C      1  0.4673280000000  0.5590630000000  0.4523960000000 1.0
C      1  0.4728160000000  0.5756270000000  0.5554130000000 1.0
C      1  0.4730130000000  0.4740830000000  0.5890700000000 1.0
C      1  0.4597830000000  0.5217930000000  0.5423270000000 1.0
C      1  0.4569260000000  0.4632910000000  0.5365370000000 1.0
C      1  0.4539460000000  0.4603440000000  0.4699080000000 1.0
C      1  0.4590370000000  0.5260970000000  0.4544610000000 1.0
C      1  0.4449650000000  0.5545490000000  0.5038640000000 1.0
C      1  0.5384680000000  0.5226810000000  0.5418280000000 1.0
C      1  0.5400030000000  0.4685140000000  0.5338770000000 1.0
C      1  0.5400560000000  0.4581850000000  0.4798920000000 1.0
C      1  0.5384690000000  0.5009440000000  0.4501020000000 1.0
C      1  0.5449580000000  0.5529100000000  0.4944760000000 1.0
C      1  0.5255650000000  0.5285650000000  0.4992240000000 1.0
C      1  0.5152680000000  0.5134000000000  0.5233820000000 1.0
C      1  0.5108530000000  0.4827430000000  0.5239620000000 1.0
C      1  0.5131980000000  0.4740650000000  0.4934020000000 1.0
C      1  0.5091270000000  0.4960960000000  0.4666290000000 1.0
C      1  0.4668060000000  0.5331010000000  0.4931420000000 1.0
C      1  0.4878440000000  0.5228420000000  0.5251140000000 1.0
C      1  0.4790800000000  0.4839750000000  0.5262490000000 1.0
C      1  0.4743460000000  0.4838380000000  0.4818940000000 1.0
C      1  0.4799260000000  0.5012550000000  0.4562140000000 1.0
C      1  0.4867990000000  0.5985440000000  0.5714230000000 1.0
C      1  0.4879650000000  0.4696070000000  0.6165750000000 1.0
C      1  0.4838310000000  0.3901920000000  0.4958850000000 1.0
C      1  0.4875150000000  0.4605680000000  0.3837420000000 1.0
C      1  0.4827390000000  0.5647610000000  0.4271040000000 1.0
C      1  0.5121150000000  0.5996750000000  0.5701280000000 1.0
C      1  0.5133390000000  0.4696020000000  0.6157370000000 1.0
C      1  0.5090380000000  0.3857890000000  0.4979350000000 1.0
C      1  0.5127530000000  0.4584650000000  0.3822490000000 1.0
C      1  0.5055830000000  0.5795900000000  0.4315690000000 1.0
C      1  0.5646320000000  0.5131060000000  0.5260750000000 1.0
C      1  0.5644910000000  0.4806640000000  0.5209950000000 1.0
C      1  0.5646790000000  0.4744830000000  0.4884870000000 1.0
C      1  0.5652300000000  0.5026440000000  0.4710100000000 1.0
C      1  0.5652200000000  0.5256380000000  0.4960700000000 1.0
C      1  0.4348940000000  0.5108760000000  0.5285420000000 1.0
C      1  0.4370890000000  0.4821990000000  0.5164410000000 1.0
C      1  0.4346140000000  0.4838480000000  0.4850780000000 1.0
C      1  0.4324770000000  0.5144680000000  0.4704400000000 1.0
C      1  0.4286800000000  0.5252360000000  0.5013420000000 1.0
C      1  0.4729260000000  0.4164510000000  0.4698950000000 1.0
C      1  0.4606360000000  0.4973900000000  0.4109520000000 1.0
C      1  0.4689070000000  0.5830240000000  0.4759000000000 1.0
C      1  0.4632180000000  0.5524170000000  0.5783730000000 1.0
C      1  0.4700320000000  0.4425070000000  0.5767760000000 1.0
C      1  0.5411150000000  0.4186590000000  0.4742930000000 1.0
C      1  0.5447250000000  0.4949120000000  0.4035110000000 1.0
C      1  0.5339970000000  0.5836580000000  0.4714670000000 1.0
C      1  0.5339450000000  0.5538940000000  0.5773460000000 1.0
C      1  0.5329810000000  0.4447950000000  0.5742380000000 1.0
C      1  0.4702020000000  0.5040120000000  0.5048590000000 1.0
C      1  0.5315800000000  0.5022720000000  0.4886520000000 1.0
END
