TITL C-3289334-2237-634 0.000358640578342925 125000 -1021.70440298079 0 0 194 (C1) n - 1
REM
REM in /nfs/bkarasulu/CARBON/AIRSS/Generating-Clusters/AIREBO/with-SteepDescent/Higher-Symm/SD-CG/HFTN-CG
REM
REM
REM
REM
REM
REM ./C.cell (b20cbc046b6831c77cfcea5457e17084)
REM
REM compiler GCC version 9.2.1 20190827 (Red Hat 9.2.1-1)
REM options -cpp -mtune=generic -march=x86-64 -g -O0 -fpre-include=/usr/include/finclude/math-vector-fortran.h
REM seed -942669175 -337462609 1476738017 401920158 358365045 1896039227 395294978 -840059579 746791779 1567062749 1955773461 345620335 908943822 -588516195 715003730 1109091124 -1196218136 -1283422909 1133219774 2144486516 -1927797702 846887346 89969446 -228069785 -2138105919 2098047490 -1897365817 193750754 -729936385 -680169851 -1149259055 365031057 1741394219
REM
CELL 1.54180   50.00000   50.00000   50.00000   90.00000   90.00000   90.00000
LATT -1
SFAC C  
C      1  0.5711010000000  0.4346550000000  0.5028880000000 1.0
C      1  0.5726710000000  0.5649110000000  0.4962700000000 1.0
C      1  0.5722050000000  0.5680450000000  0.4399270000000 1.0
C      1  0.5622030000000  0.4335840000000  0.5645370000000 1.0
C      1  0.4935180000000  0.4662590000000  0.5396290000000 1.0
C      1  0.4769070000000  0.5369940000000  0.4573380000000 1.0
C      1  0.4834740000000  0.4736460000000  0.3889410000000 1.0
C      1  0.5139330000000  0.5361830000000  0.6059100000000 1.0
C      1  0.4717700000000  0.4744570000000  0.5645280000000 1.0
C      1  0.4923110000000  0.5242090000000  0.4312210000000 1.0
C      1  0.6041700000000  0.4934360000000  0.4085880000000 1.0
C      1  0.5781700000000  0.5001700000000  0.5895530000000 1.0
C      1  0.3908220000000  0.4743020000000  0.5458300000000 1.0
C      1  0.3932630000000  0.5241520000000  0.4612930000000 1.0
C      1  0.5831070000000  0.4791150000000  0.4198430000000 1.0
C      1  0.5796740000000  0.5291000000000  0.5890780000000 1.0
C      1  0.4702560000000  0.4543150000000  0.5916310000000 1.0
C      1  0.4774690000000  0.5434830000000  0.4083790000000 1.0
C      1  0.4415470000000  0.4083570000000  0.5260910000000 1.0
C      1  0.4399000000000  0.5836200000000  0.4584420000000 1.0
C      1  0.5027810000000  0.5001570000000  0.3981010000000 1.0
C      1  0.5074030000000  0.4882750000000  0.5908220000000 1.0
C      1  0.4760530000000  0.4501570000000  0.4024620000000 1.0
C      1  0.4869640000000  0.5454980000000  0.6013420000000 1.0
C      1  0.5017610000000  0.5562410000000  0.5726780000000 1.0
C      1  0.5030290000000  0.4433940000000  0.4220290000000 1.0
C      1  0.4745340000000  0.5221170000000  0.5324360000000 1.0
C      1  0.4658910000000  0.4675790000000  0.4675770000000 1.0
C      1  0.6057890000000  0.5647100000000  0.4975620000000 1.0
C      1  0.6019230000000  0.4283230000000  0.5124000000000 1.0
C      1  0.4824010000000  0.4935350000000  0.4238130000000 1.0
C      1  0.4776330000000  0.5025730000000  0.5827290000000 1.0
C      1  0.5793570000000  0.5541150000000  0.5278400000000 1.0
C      1  0.5764290000000  0.4561770000000  0.4787590000000 1.0
C      1  0.5462800000000  0.5155660000000  0.5217470000000 1.0
C      1  0.5387230000000  0.4919730000000  0.5012820000000 1.0
C      1  0.6118610000000  0.5317650000000  0.4951870000000 1.0
C      1  0.6163530000000  0.4541690000000  0.5104310000000 1.0
C      1  0.4754400000000  0.5831970000000  0.5117490000000 1.0
C      1  0.4758760000000  0.4189920000000  0.4860400000000 1.0
C      1  0.4761080000000  0.4926710000000  0.5303840000000 1.0
C      1  0.4749580000000  0.5052930000000  0.4617570000000 1.0
C      1  0.5392040000000  0.4007750000000  0.5405090000000 1.0
C      1  0.5423340000000  0.6118380000000  0.4609280000000 1.0
C      1  0.4511850000000  0.4477280000000  0.4903430000000 1.0
C      1  0.4390310000000  0.5674530000000  0.5085420000000 1.0
C      1  0.5188370000000  0.5574220000000  0.4375900000000 1.0
C      1  0.5113230000000  0.4397120000000  0.5625900000000 1.0
C      1  0.5022960000000  0.4854710000000  0.4575550000000 1.0
C      1  0.5161130000000  0.5188620000000  0.5476600000000 1.0
C      1  0.4290640000000  0.4994540000000  0.5167110000000 1.0
C      1  0.4308930000000  0.4967660000000  0.4828510000000 1.0
C      1  0.4630320000000  0.5507170000000  0.5809800000000 1.0
C      1  0.4534370000000  0.4426880000000  0.4179530000000 1.0
C      1  0.5321210000000  0.6135830000000  0.4883960000000 1.0
C      1  0.5314680000000  0.4113200000000  0.5091240000000 1.0
C      1  0.3996180000000  0.5664300000000  0.5038010000000 1.0
C      1  0.3993610000000  0.4284090000000  0.4991420000000 1.0
C      1  0.5024550000000  0.5824820000000  0.4640770000000 1.0
C      1  0.5030270000000  0.4110650000000  0.5259710000000 1.0
C      1  0.4538620000000  0.4790970000000  0.5148390000000 1.0
C      1  0.4560530000000  0.5193890000000  0.4862710000000 1.0
C      1  0.4793770000000  0.4170650000000  0.5772940000000 1.0
C      1  0.5006140000000  0.5896840000000  0.4282250000000 1.0
C      1  0.4523270000000  0.4205070000000  0.5559720000000 1.0
C      1  0.4545670000000  0.5704280000000  0.4347500000000 1.0
C      1  0.5189750000000  0.4614030000000  0.6038040000000 1.0
C      1  0.5151670000000  0.5308590000000  0.3991330000000 1.0
C      1  0.5534590000000  0.5410670000000  0.5385970000000 1.0
C      1  0.5488300000000  0.4665490000000  0.4625770000000 1.0
C      1  0.6126550000000  0.4770170000000  0.5279130000000 1.0
C      1  0.6060780000000  0.5097910000000  0.4709660000000 1.0
C      1  0.4196550000000  0.5621710000000  0.5530480000000 1.0
C      1  0.4275430000000  0.4372290000000  0.4609960000000 1.0
C      1  0.4586300000000  0.4233110000000  0.4402420000000 1.0
C      1  0.4683090000000  0.5763700000000  0.5611080000000 1.0
C      1  0.5206990000000  0.6056780000000  0.5544110000000 1.0
C      1  0.5162590000000  0.4146450000000  0.4350980000000 1.0
C      1  0.5591310000000  0.5914620000000  0.5226370000000 1.0
C      1  0.5614630000000  0.4086910000000  0.4742830000000 1.0
C      1  0.4980340000000  0.4402030000000  0.5936690000000 1.0
C      1  0.5039370000000  0.5619900000000  0.4073710000000 1.0
C      1  0.5402950000000  0.4539720000000  0.4118700000000 1.0
C      1  0.5375910000000  0.5631360000000  0.5885810000000 1.0
C      1  0.4011540000000  0.5518190000000  0.5346220000000 1.0
C      1  0.3973630000000  0.4542560000000  0.4806950000000 1.0
C      1  0.5031560000000  0.3995170000000  0.4626380000000 1.0
C      1  0.4998190000000  0.6092000000000  0.5292270000000 1.0
C      1  0.6094590000000  0.4599050000000  0.4822980000000 1.0
C      1  0.6063230000000  0.5384110000000  0.5271760000000 1.0
C      1  0.5048860000000  0.6170670000000  0.4977360000000 1.0
C      1  0.5107850000000  0.3902740000000  0.4920320000000 1.0
C      1  0.5637370000000  0.4656210000000  0.5264800000000 1.0
C      1  0.5613980000000  0.5243930000000  0.4831690000000 1.0
C      1  0.4408870000000  0.4746020000000  0.5523660000000 1.0
C      1  0.4408790000000  0.5194920000000  0.4453180000000 1.0
C      1  0.4401000000000  0.5403930000000  0.5582640000000 1.0
C      1  0.4128190000000  0.4529900000000  0.4411240000000 1.0
C      1  0.4662100000000  0.6063890000000  0.5348480000000 1.0
C      1  0.4699700000000  0.3942680000000  0.4628000000000 1.0
C      1  0.4350130000000  0.5141850000000  0.4062240000000 1.0
C      1  0.4351500000000  0.4733710000000  0.5918430000000 1.0
C      1  0.4164360000000  0.5881520000000  0.5232900000000 1.0
C      1  0.4272400000000  0.4093790000000  0.4949870000000 1.0
C      1  0.4034620000000  0.5358270000000  0.4894780000000 1.0
C      1  0.3950450000000  0.4546900000000  0.5205680000000 1.0
C      1  0.5643560000000  0.4608940000000  0.4012200000000 1.0
C      1  0.5524370000000  0.5389910000000  0.5847680000000 1.0
C      1  0.4189540000000  0.5622900000000  0.4747430000000 1.0
C      1  0.4205360000000  0.4350420000000  0.5244120000000 1.0
C      1  0.5401840000000  0.5896740000000  0.5021110000000 1.0
C      1  0.5377260000000  0.4294820000000  0.4818260000000 1.0
C      1  0.5485850000000  0.4169690000000  0.4454410000000 1.0
C      1  0.5464280000000  0.5863770000000  0.5505810000000 1.0
C      1  0.4594490000000  0.6090700000000  0.4697310000000 1.0
C      1  0.4629230000000  0.3820380000000  0.5231710000000 1.0
C      1  0.3922920000000  0.5133750000000  0.5097990000000 1.0
C      1  0.3999010000000  0.4841160000000  0.5082730000000 1.0
C      1  0.5654610000000  0.4943160000000  0.4396310000000 1.0
C      1  0.5628970000000  0.5020670000000  0.5481760000000 1.0
C      1  0.4210000000000  0.4947810000000  0.4211180000000 1.0
C      1  0.4255650000000  0.4987430000000  0.5802730000000 1.0
C      1  0.4964140000000  0.5595300000000  0.5054880000000 1.0
C      1  0.4950080000000  0.4454120000000  0.4927040000000 1.0
C      1  0.5151200000000  0.4904330000000  0.5383000000000 1.0
C      1  0.5145170000000  0.5146310000000  0.4657410000000 1.0
C      1  0.4809360000000  0.4736630000000  0.4958020000000 1.0
C      1  0.4826960000000  0.5310340000000  0.5040200000000 1.0
C      1  0.5539960000000  0.5627050000000  0.4747450000000 1.0
C      1  0.5440760000000  0.4409490000000  0.5200620000000 1.0
C      1  0.4558490000000  0.5821170000000  0.4883470000000 1.0
C      1  0.4652610000000  0.4306540000000  0.5161760000000 1.0
C      1  0.4504930000000  0.4868810000000  0.4469510000000 1.0
C      1  0.4441900000000  0.5258360000000  0.5319410000000 1.0
C      1  0.5546860000000  0.4812600000000  0.5737980000000 1.0
C      1  0.5539040000000  0.5213590000000  0.4313270000000 1.0
C      1  0.5700100000000  0.4834150000000  0.4980960000000 1.0
C      1  0.5851020000000  0.5131460000000  0.5048030000000 1.0
C      1  0.5648170000000  0.5397810000000  0.4529870000000 1.0
C      1  0.5680090000000  0.4593980000000  0.5548640000000 1.0
C      1  0.5846020000000  0.4057380000000  0.4937590000000 1.0
C      1  0.5886840000000  0.5897750000000  0.5130500000000 1.0
C      1  0.4837700000000  0.4280060000000  0.5453960000000 1.0
C      1  0.4855920000000  0.5627180000000  0.4424950000000 1.0
C      1  0.4448190000000  0.5447150000000  0.4648160000000 1.0
C      1  0.4443040000000  0.4535430000000  0.5291570000000 1.0
C      1  0.5071770000000  0.4879240000000  0.5062700000000 1.0
C      1  0.5083950000000  0.5172310000000  0.4953300000000 1.0
C      1  0.5323280000000  0.4623300000000  0.4888370000000 1.0
C      1  0.5347440000000  0.5354040000000  0.4966400000000 1.0
C      1  0.5872990000000  0.5564800000000  0.5764450000000 1.0
C      1  0.5894020000000  0.4489390000000  0.4298820000000 1.0
C      1  0.5757080000000  0.5697410000000  0.5552010000000 1.0
C      1  0.5753620000000  0.4373670000000  0.4504510000000 1.0
C      1  0.5111710000000  0.4532230000000  0.4638230000000 1.0
C      1  0.5069910000000  0.5483910000000  0.5334900000000 1.0
C      1  0.4886470000000  0.5268720000000  0.5616270000000 1.0
C      1  0.4833050000000  0.4658600000000  0.4382940000000 1.0
C      1  0.5473100000000  0.4629790000000  0.6015060000000 1.0
C      1  0.5430190000000  0.5295060000000  0.4026510000000 1.0
C      1  0.5781600000000  0.4988290000000  0.4682830000000 1.0
C      1  0.5910330000000  0.4944120000000  0.5306580000000 1.0
C      1  0.4339840000000  0.5379250000000  0.5043310000000 1.0
C      1  0.4274860000000  0.4664040000000  0.4784650000000 1.0
C      1  0.5246800000000  0.5278070000000  0.4400860000000 1.0
C      1  0.5231660000000  0.4715720000000  0.5654240000000 1.0
C      1  0.5391440000000  0.5173750000000  0.5671040000000 1.0
C      1  0.5324640000000  0.4862460000000  0.4418490000000 1.0
C      1  0.4880580000000  0.4291380000000  0.4562660000000 1.0
C      1  0.4928030000000  0.5778930000000  0.5405200000000 1.0
C      1  0.3981500000000  0.5236360000000  0.5361080000000 1.0
C      1  0.3958400000000  0.4724030000000  0.4547780000000 1.0
C      1  0.4441400000000  0.4469520000000  0.5719920000000 1.0
C      1  0.4462530000000  0.5425150000000  0.4218520000000 1.0
C      1  0.4878660000000  0.6051240000000  0.4782350000000 1.0
C      1  0.4895020000000  0.3834930000000  0.5173760000000 1.0
C      1  0.5376920000000  0.4205190000000  0.5595250000000 1.0
C      1  0.5415720000000  0.5802110000000  0.4484140000000 1.0
C      1  0.5127160000000  0.4325310000000  0.3923030000000 1.0
C      1  0.5175860000000  0.5864510000000  0.5782130000000 1.0
C      1  0.5234680000000  0.5134380000000  0.5948450000000 1.0
C      1  0.5162260000000  0.4741150000000  0.4157260000000 1.0
C      1  0.4354850000000  0.4664780000000  0.4256040000000 1.0
C      1  0.4482490000000  0.5196500000000  0.5814740000000 1.0
C      1  0.5222060000000  0.5653730000000  0.4865290000000 1.0
C      1  0.5100480000000  0.4438120000000  0.5200270000000 1.0
C      1  0.4155470000000  0.4968320000000  0.5478340000000 1.0
C      1  0.4137120000000  0.5008650000000  0.4537790000000 1.0
C      1  0.4432390000000  0.5827050000000  0.5433070000000 1.0
C      1  0.4416860000000  0.4107830000000  0.4669850000000 1.0
C      1  0.4654780000000  0.5134190000000  0.4030270000000 1.0
C      1  0.4615990000000  0.4830590000000  0.6061490000000 1.0
C      1  0.5374370000000  0.4466810000000  0.4419890000000 1.0
C      1  0.5313010000000  0.5566240000000  0.5557880000000 1.0
END
