TITL C-3289325-7307-499 0.000263994671890312 125000 -317.618756877839 0 0 58 (C1) n - 1
REM
REM in /nfs/bkarasulu/CARBON/AIRSS/Generating-Clusters/AIREBO/with-SteepDescent/Higher-Symm/SD-CG/HFTN-CG
REM
REM
REM
REM
REM
REM ./C.cell (b20cbc046b6831c77cfcea5457e17084)
REM
REM compiler GCC version 9.2.1 20190827 (Red Hat 9.2.1-1)
REM options -cpp -mtune=generic -march=x86-64 -g -O0 -fpre-include=/usr/include/finclude/math-vector-fortran.h
REM seed 2111808563 1794027954 1296350934 1080761010 -1454159550 -150881379 1883099358 1077770533 1504708307 -782746537 -1685284821 1506459796 -468471984 646633520 1678291579 1847233536 1309416440 -1077662028 982826632 -1514800997 -257339052 767948596 694025064 1526984655 -1337082349 -2113374148 -848135014 -526162964 1515549941 1699436517 -618971188 426230883 1750903823
REM
CELL 1.54180   50.00000   50.00000   50.00000   90.00000   90.00000   90.00000
LATT -1
SFAC C  
C      1  0.4857580000000  0.4324050000000  0.4995910000000 1.0
C      1  0.5134980000000  0.4320320000000  0.5011180000000 1.0
C      1  0.4876340000000  0.5703900000000  0.5006010000000 1.0
C      1  0.5151250000000  0.5700160000000  0.5040510000000 1.0
C      1  0.5377920000000  0.5556930000000  0.4940010000000 1.0
C      1  0.4624000000000  0.5586220000000  0.5071740000000 1.0
C      1  0.5396150000000  0.4424390000000  0.4941140000000 1.0
C      1  0.4616680000000  0.4454120000000  0.5089030000000 1.0
C      1  0.4801960000000  0.4710550000000  0.4579600000000 1.0
C      1  0.5161740000000  0.4797530000000  0.5322050000000 1.0
C      1  0.4829370000000  0.5277600000000  0.4597300000000 1.0
C      1  0.5126360000000  0.5195620000000  0.5317370000000 1.0
C      1  0.4715100000000  0.4706840000000  0.5569200000000 1.0
C      1  0.5292030000000  0.4749160000000  0.4648270000000 1.0
C      1  0.4644820000000  0.5299520000000  0.5505320000000 1.0
C      1  0.5236650000000  0.5246790000000  0.4578990000000 1.0
C      1  0.4314360000000  0.4817860000000  0.4493820000000 1.0
C      1  0.5541490000000  0.4727380000000  0.5550480000000 1.0
C      1  0.4465550000000  0.5211390000000  0.4449000000000 1.0
C      1  0.5541260000000  0.5243810000000  0.5564210000000 1.0
C      1  0.5254190000000  0.4821530000000  0.5648410000000 1.0
C      1  0.4562940000000  0.4829000000000  0.4385700000000 1.0
C      1  0.5245290000000  0.5154480000000  0.5625870000000 1.0
C      1  0.4761060000000  0.5084550000000  0.4337720000000 1.0
C      1  0.5140750000000  0.4488490000000  0.5459060000000 1.0
C      1  0.4887410000000  0.4438640000000  0.4464020000000 1.0
C      1  0.5106220000000  0.5494560000000  0.5470050000000 1.0
C      1  0.4885580000000  0.5573020000000  0.4527280000000 1.0
C      1  0.5137510000000  0.5688130000000  0.4530740000000 1.0
C      1  0.4849180000000  0.5567460000000  0.5532640000000 1.0
C      1  0.5268690000000  0.4501760000000  0.4432940000000 1.0
C      1  0.4883650000000  0.4424010000000  0.5535060000000 1.0
C      1  0.5532320000000  0.4676550000000  0.5074240000000 1.0
C      1  0.4470940000000  0.4704420000000  0.4936210000000 1.0
C      1  0.5553830000000  0.5327820000000  0.5088980000000 1.0
C      1  0.4489010000000  0.5357260000000  0.4910700000000 1.0
C      1  0.5100890000000  0.5072120000000  0.4351770000000 1.0
C      1  0.4908040000000  0.5192390000000  0.5657450000000 1.0
C      1  0.5249520000000  0.4819300000000  0.4327720000000 1.0
C      1  0.4937500000000  0.4905150000000  0.5669060000000 1.0
C      1  0.4341560000000  0.5198890000000  0.4719520000000 1.0
C      1  0.5627790000000  0.5148750000000  0.5303410000000 1.0
C      1  0.4305180000000  0.4885400000000  0.4784720000000 1.0
C      1  0.5618640000000  0.4836760000000  0.5295760000000 1.0
C      1  0.4762400000000  0.5204130000000  0.4983510000000 1.0
C      1  0.5435820000000  0.5176570000000  0.4832960000000 1.0
C      1  0.4778150000000  0.4804650000000  0.4988750000000 1.0
C      1  0.5474190000000  0.4865630000000  0.4840240000000 1.0
C      1  0.4849580000000  0.4837990000000  0.5285510000000 1.0
C      1  0.5036610000000  0.4824810000000  0.4779310000000 1.0
C      1  0.4814850000000  0.5144360000000  0.5271640000000 1.0
C      1  0.5040690000000  0.5138190000000  0.4816110000000 1.0
C      1  0.4583470000000  0.5584290000000  0.5351600000000 1.0
C      1  0.5346540000000  0.5529470000000  0.4656060000000 1.0
C      1  0.4609610000000  0.4459240000000  0.5369220000000 1.0
C      1  0.5448590000000  0.4382200000000  0.4657280000000 1.0
C      1  0.4683820000000  0.4997510000000  0.4725020000000 1.0
C      1  0.5312360000000  0.5009230000000  0.5102610000000 1.0
END
