TITL C-3289334-2237-72 8.89019448739363e-05 125000 -222.123320009759 0 0 41 (C1) n - 1
REM
REM in /nfs/bkarasulu/CARBON/AIRSS/Generating-Clusters/AIREBO/with-SteepDescent/Higher-Symm/SD-CG/HFTN-CG
REM
REM
REM
REM
REM
REM ./C.cell (b20cbc046b6831c77cfcea5457e17084)
REM
REM compiler GCC version 9.2.1 20190827 (Red Hat 9.2.1-1)
REM options -cpp -mtune=generic -march=x86-64 -g -O0 -fpre-include=/usr/include/finclude/math-vector-fortran.h
REM seed 435869825 2130734619 -1668637701 -1008957543 -1327527996 -1771419775 -515827761 -2033956997 -1084595007 -1727521936 -196418699 -1251251513 -61122974 -765951686 -886481461 -1320243207 2102390593 1007355675 529890031 836356438 1496094790 -424056479 1009927355 537962266 1924682921 -1298015182 -1801751606 -312138495 1240510113 1416613209 721435107 -956748426 149366190
REM
CELL 1.54180   50.00000   50.00000   50.00000   90.00000   90.00000   90.00000
LATT -1
SFAC C  
C      1  0.5253060000000  0.5138880000000  0.4339750000000 1.0
C      1  0.4875790000000  0.5106390000000  0.5627020000000 1.0
C      1  0.5236900000000  0.4860700000000  0.4354720000000 1.0
C      1  0.4830150000000  0.4832420000000  0.5619090000000 1.0
C      1  0.4647950000000  0.4522670000000  0.5123900000000 1.0
C      1  0.5397810000000  0.4412180000000  0.5035690000000 1.0
C      1  0.4595050000000  0.5582950000000  0.5020040000000 1.0
C      1  0.5346210000000  0.5532720000000  0.4851210000000 1.0
C      1  0.4774370000000  0.4732330000000  0.5348320000000 1.0
C      1  0.5191070000000  0.4779080000000  0.4620780000000 1.0
C      1  0.4812370000000  0.5238750000000  0.5385060000000 1.0
C      1  0.5317740000000  0.5316890000000  0.4613940000000 1.0
C      1  0.4281660000000  0.4895380000000  0.4947350000000 1.0
C      1  0.5621610000000  0.4867780000000  0.5153220000000 1.0
C      1  0.4356530000000  0.5196050000000  0.4863910000000 1.0
C      1  0.5674700000000  0.5178330000000  0.5143300000000 1.0
C      1  0.4864820000000  0.4661990000000  0.5829990000000 1.0
C      1  0.5260390000000  0.4692700000000  0.4146730000000 1.0
C      1  0.4978200000000  0.5235140000000  0.5839910000000 1.0
C      1  0.5017600000000  0.5293380000000  0.4492780000000 1.0
C      1  0.5310210000000  0.4821550000000  0.5139830000000 1.0
C      1  0.4609220000000  0.4832300000000  0.4868460000000 1.0
C      1  0.5336650000000  0.5249990000000  0.5163670000000 1.0
C      1  0.4522100000000  0.5224660000000  0.4647840000000 1.0
C      1  0.4437810000000  0.5355010000000  0.5087850000000 1.0
C      1  0.5642310000000  0.5447090000000  0.4926600000000 1.0
C      1  0.4349850000000  0.4606430000000  0.5124530000000 1.0
C      1  0.5592930000000  0.4610400000000  0.4960690000000 1.0
C      1  0.4909960000000  0.4765280000000  0.4750900000000 1.0
C      1  0.5004690000000  0.4782270000000  0.5137830000000 1.0
C      1  0.4824260000000  0.5269680000000  0.4715140000000 1.0
C      1  0.5023640000000  0.5256370000000  0.5169390000000 1.0
C      1  0.5476080000000  0.5155880000000  0.4868120000000 1.0
C      1  0.4554940000000  0.5186700000000  0.5281650000000 1.0
C      1  0.5411110000000  0.4850830000000  0.4815380000000 1.0
C      1  0.4519300000000  0.4893810000000  0.5190670000000 1.0
C      1  0.4837330000000  0.4492340000000  0.4920650000000 1.0
C      1  0.5128330000000  0.4484950000000  0.5027570000000 1.0
C      1  0.4842600000000  0.5524400000000  0.4896840000000 1.0
C      1  0.5115190000000  0.5542760000000  0.5010120000000 1.0
C      1  0.4931810000000  0.5048610000000  0.4937720000000 1.0
END
