TITL C-3289335-9438-351 0.00328841469660981 125000 -1019.72325849538 0 0 188 (C1) n - 1
REM
REM in /nfs/bkarasulu/CARBON/AIRSS/Generating-Clusters/AIREBO/with-SteepDescent/Higher-Symm/SD-CG/HFTN-CG
REM
REM
REM
REM
REM
REM ./C.cell (b20cbc046b6831c77cfcea5457e17084)
REM
REM compiler GCC version 9.2.1 20190827 (Red Hat 9.2.1-1)
REM options -cpp -mtune=generic -march=x86-64 -g -O0 -fpre-include=/usr/include/finclude/math-vector-fortran.h
REM seed -1709049831 -1633619795 882145870 1427311089 91603353 1552330445 -1713226614 476162034 1252309631 228393006 -1912040461 1135267186 -1357487887 -204874432 1374921431 1098516844 547870582 1942657654 324646460 1376100315 -1922371919 -1959815260 1529168393 185171565 383369303 1495084051 -1076567664 -1060988526 -494592206 -1559318633 -1222246600 -1630416869 -32296595
REM
CELL 1.54180   50.00000   50.00000   50.00000   90.00000   90.00000   90.00000
LATT -1
SFAC C  
C      1  0.4336880000000  0.5190120000000  0.5547840000000 1.0
C      1  0.5428920000000  0.5486880000000  0.5480980000000 1.0
C      1  0.5176860000000  0.4287400000000  0.5591420000000 1.0
C      1  0.4337710000000  0.4767310000000  0.4570760000000 1.0
C      1  0.5453400000000  0.4503870000000  0.4466610000000 1.0
C      1  0.5141740000000  0.5626450000000  0.4356950000000 1.0
C      1  0.5634090000000  0.4762600000000  0.4512300000000 1.0
C      1  0.4558460000000  0.4524360000000  0.4493840000000 1.0
C      1  0.4821610000000  0.5599070000000  0.4406350000000 1.0
C      1  0.5586360000000  0.5215480000000  0.5571470000000 1.0
C      1  0.4496300000000  0.5468620000000  0.5473220000000 1.0
C      1  0.4867230000000  0.4387670000000  0.5492990000000 1.0
C      1  0.5190230000000  0.4049190000000  0.4424070000000 1.0
C      1  0.4135710000000  0.5305630000000  0.4469760000000 1.0
C      1  0.5681990000000  0.5610410000000  0.4396300000000 1.0
C      1  0.5176470000000  0.5950620000000  0.5598750000000 1.0
C      1  0.4144660000000  0.4733370000000  0.5531200000000 1.0
C      1  0.5706390000000  0.4393880000000  0.5539670000000 1.0
C      1  0.4843430000000  0.5895700000000  0.5640640000000 1.0
C      1  0.5801020000000  0.4718820000000  0.5490130000000 1.0
C      1  0.4308290000000  0.4446520000000  0.5599880000000 1.0
C      1  0.4850550000000  0.4050790000000  0.4399010000000 1.0
C      1  0.5851290000000  0.5318250000000  0.4439980000000 1.0
C      1  0.4281680000000  0.5612260000000  0.4424360000000 1.0
C      1  0.5537150000000  0.5898440000000  0.4377560000000 1.0
C      1  0.5515080000000  0.4031410000000  0.4420140000000 1.0
C      1  0.3940990000000  0.5043510000000  0.4375010000000 1.0
C      1  0.5595120000000  0.4075570000000  0.5583660000000 1.0
C      1  0.5508350000000  0.5952020000000  0.5627240000000 1.0
C      1  0.3925970000000  0.4966640000000  0.5550950000000 1.0
C      1  0.4457820000000  0.4144010000000  0.5642620000000 1.0
C      1  0.4504860000000  0.5925180000000  0.5652950000000 1.0
C      1  0.5995800000000  0.4947720000000  0.5620640000000 1.0
C      1  0.4429110000000  0.5889780000000  0.4382060000000 1.0
C      1  0.4520850000000  0.4042150000000  0.4440260000000 1.0
C      1  0.6040610000000  0.5040040000000  0.4389060000000 1.0
C      1  0.4897430000000  0.5304970000000  0.3900470000000 1.0
C      1  0.5267380000000  0.5065890000000  0.3763950000000 1.0
C      1  0.4822050000000  0.4853380000000  0.3817590000000 1.0
C      1  0.4837000000000  0.4713580000000  0.6112710000000 1.0
C      1  0.5264440000000  0.4939820000000  0.6192720000000 1.0
C      1  0.4858710000000  0.5214140000000  0.6178700000000 1.0
C      1  0.5135650000000  0.4721940000000  0.6069200000000 1.0
C      1  0.4704190000000  0.4982600000000  0.6063580000000 1.0
C      1  0.5152640000000  0.5187520000000  0.6111500000000 1.0
C      1  0.5179520000000  0.5324060000000  0.3856570000000 1.0
C      1  0.4744350000000  0.5117010000000  0.3752340000000 1.0
C      1  0.5116990000000  0.4840290000000  0.3860730000000 1.0
C      1  0.5218860000000  0.5668240000000  0.5012080000000 1.0
C      1  0.5500030000000  0.4612050000000  0.4960810000000 1.0
C      1  0.4319160000000  0.4857160000000  0.4899140000000 1.0
C      1  0.5203700000000  0.4348940000000  0.4991090000000 1.0
C      1  0.5524520000000  0.5412560000000  0.5163270000000 1.0
C      1  0.4429810000000  0.5250920000000  0.5027480000000 1.0
C      1  0.4941040000000  0.4303980000000  0.5171780000000 1.0
C      1  0.4396640000000  0.5473400000000  0.5169160000000 1.0
C      1  0.5600900000000  0.5107840000000  0.5028950000000 1.0
C      1  0.4902100000000  0.5683120000000  0.5036910000000 1.0
C      1  0.4441000000000  0.4576540000000  0.4959000000000 1.0
C      1  0.5717380000000  0.4777770000000  0.4841750000000 1.0
C      1  0.4385840000000  0.5124200000000  0.5868160000000 1.0
C      1  0.5357170000000  0.5490420000000  0.5813320000000 1.0
C      1  0.5173970000000  0.4361200000000  0.5905780000000 1.0
C      1  0.4427850000000  0.4940610000000  0.4309280000000 1.0
C      1  0.5266060000000  0.4493680000000  0.4222170000000 1.0
C      1  0.5304210000000  0.5444580000000  0.4113380000000 1.0
C      1  0.5627700000000  0.4931630000000  0.4214570000000 1.0
C      1  0.4707350000000  0.4524410000000  0.4222720000000 1.0
C      1  0.4666470000000  0.5479670000000  0.4159170000000 1.0
C      1  0.5685430000000  0.5400690000000  0.5835300000000 1.0
C      1  0.4545400000000  0.5425690000000  0.5799560000000 1.0
C      1  0.4845600000000  0.4431310000000  0.5829540000000 1.0
C      1  0.4280230000000  0.5760390000000  0.5143760000000 1.0
C      1  0.6026970000000  0.5294980000000  0.5138800000000 1.0
C      1  0.4750260000000  0.4053800000000  0.5093130000000 1.0
C      1  0.4306550000000  0.4294030000000  0.4887990000000 1.0
C      1  0.6026350000000  0.4689590000000  0.4934800000000 1.0
C      1  0.4743440000000  0.5936030000000  0.4908640000000 1.0
C      1  0.5810950000000  0.4220250000000  0.4876780000000 1.0
C      1  0.3941930000000  0.4701100000000  0.4921170000000 1.0
C      1  0.5237650000000  0.5981120000000  0.4886680000000 1.0
C      1  0.5691900000000  0.5682710000000  0.5078190000000 1.0
C      1  0.3935280000000  0.5306110000000  0.5075310000000 1.0
C      1  0.5267050000000  0.3929380000000  0.5041530000000 1.0
C      1  0.6053170000000  0.4974610000000  0.5118450000000 1.0
C      1  0.4455330000000  0.4132100000000  0.5243170000000 1.0
C      1  0.4513790000000  0.5961410000000  0.5255060000000 1.0
C      1  0.6042830000000  0.4997520000000  0.4784040000000 1.0
C      1  0.4446270000000  0.5847420000000  0.4882040000000 1.0
C      1  0.4518100000000  0.4086130000000  0.4846080000000 1.0
C      1  0.3977930000000  0.5003410000000  0.4768440000000 1.0
C      1  0.5525770000000  0.5846080000000  0.4830560000000 1.0
C      1  0.5519140000000  0.4088260000000  0.4875960000000 1.0
C      1  0.3979390000000  0.4989310000000  0.5096160000000 1.0
C      1  0.5481630000000  0.4148950000000  0.5187690000000 1.0
C      1  0.5539270000000  0.5949470000000  0.5223820000000 1.0
C      1  0.5646870000000  0.4269790000000  0.4457010000000 1.0
C      1  0.4033820000000  0.4794400000000  0.4432620000000 1.0
C      1  0.5260030000000  0.5901670000000  0.4413120000000 1.0
C      1  0.5642540000000  0.5728520000000  0.5539010000000 1.0
C      1  0.4038750000000  0.5213330000000  0.5512420000000 1.0
C      1  0.5320740000000  0.4036630000000  0.5534410000000 1.0
C      1  0.4334180000000  0.5743870000000  0.5539450000000 1.0
C      1  0.5902860000000  0.5253210000000  0.5616060000000 1.0
C      1  0.4713260000000  0.4096180000000  0.5544940000000 1.0
C      1  0.4383390000000  0.4271550000000  0.4496550000000 1.0
C      1  0.5965770000000  0.4780720000000  0.4450010000000 1.0
C      1  0.4700580000000  0.5882940000000  0.4435750000000 1.0
C      1  0.4674390000000  0.5013670000000  0.5726170000000 1.0
C      1  0.5175180000000  0.5213230000000  0.5772290000000 1.0
C      1  0.5176450000000  0.4658910000000  0.5737520000000 1.0
C      1  0.4732190000000  0.5006430000000  0.4328620000000 1.0
C      1  0.5165710000000  0.4757490000000  0.4156310000000 1.0
C      1  0.5187940000000  0.5234170000000  0.4327690000000 1.0
C      1  0.5323080000000  0.4958880000000  0.4300450000000 1.0
C      1  0.4841630000000  0.4778290000000  0.4143770000000 1.0
C      1  0.4887720000000  0.5248170000000  0.4226120000000 1.0
C      1  0.5336830000000  0.4947320000000  0.5729870000000 1.0
C      1  0.4850800000000  0.5283600000000  0.5845960000000 1.0
C      1  0.4855850000000  0.4754550000000  0.5774830000000 1.0
C      1  0.4803880000000  0.4138570000000  0.4705920000000 1.0
C      1  0.4376930000000  0.5563350000000  0.4728120000000 1.0
C      1  0.5758200000000  0.5177940000000  0.4735480000000 1.0
C      1  0.4793880000000  0.5860680000000  0.5305990000000 1.0
C      1  0.4366290000000  0.4448100000000  0.5264850000000 1.0
C      1  0.5747080000000  0.4838230000000  0.5176030000000 1.0
C      1  0.5250870000000  0.5882950000000  0.5273870000000 1.0
C      1  0.5562780000000  0.4453640000000  0.5249550000000 1.0
C      1  0.4248830000000  0.4862110000000  0.5233930000000 1.0
C      1  0.5285720000000  0.4217600000000  0.4689700000000 1.0
C      1  0.5599650000000  0.5552360000000  0.4707110000000 1.0
C      1  0.4281410000000  0.5153930000000  0.4737140000000 1.0
C      1  0.5160290000000  0.4641030000000  0.5162170000000 1.0
C      1  0.4650590000000  0.5072610000000  0.5145010000000 1.0
C      1  0.5257370000000  0.5219730000000  0.5195150000000 1.0
C      1  0.5194100000000  0.5352110000000  0.4888580000000 1.0
C      1  0.4725460000000  0.4945970000000  0.4872850000000 1.0
C      1  0.5234910000000  0.4727360000000  0.4841870000000 1.0
C      1  0.4862730000000  0.5408920000000  0.4892600000000 1.0
C      1  0.5261440000000  0.5032960000000  0.4792380000000 1.0
C      1  0.4722640000000  0.4648910000000  0.4894370000000 1.0
C      1  0.4846250000000  0.4606200000000  0.5159710000000 1.0
C      1  0.5356090000000  0.4919020000000  0.5170890000000 1.0
C      1  0.4864080000000  0.5285720000000  0.5199630000000 1.0
C      1  0.4677860000000  0.5422350000000  0.4659100000000 1.0
C      1  0.5477690000000  0.5054940000000  0.4587670000000 1.0
C      1  0.4842570000000  0.4463940000000  0.4670810000000 1.0
C      1  0.4635840000000  0.4618100000000  0.5383680000000 1.0
C      1  0.5482380000000  0.4965910000000  0.5446420000000 1.0
C      1  0.4792580000000  0.5531940000000  0.5393330000000 1.0
C      1  0.5295850000000  0.4542140000000  0.5441160000000 1.0
C      1  0.4524250000000  0.4937400000000  0.5418710000000 1.0
C      1  0.5118760000000  0.5600950000000  0.5400970000000 1.0
C      1  0.5308770000000  0.5429490000000  0.4578590000000 1.0
C      1  0.4599290000000  0.5114440000000  0.4622600000000 1.0
C      1  0.5156840000000  0.4520930000000  0.4633470000000 1.0
C      1  0.5168950000000  0.3889450000000  0.5348990000000 1.0
C      1  0.3959890000000  0.5419020000000  0.5336270000000 1.0
C      1  0.5872870000000  0.5672240000000  0.5365490000000 1.0
C      1  0.5117600000000  0.6031280000000  0.4616720000000 1.0
C      1  0.3989660000000  0.4579650000000  0.4630010000000 1.0
C      1  0.5878230000000  0.4311150000000  0.4616960000000 1.0
C      1  0.4839380000000  0.6018890000000  0.4632820000000 1.0
C      1  0.6041630000000  0.4552690000000  0.4623920000000 1.0
C      1  0.4126150000000  0.4338030000000  0.4626060000000 1.0
C      1  0.4879250000000  0.3905590000000  0.5370640000000 1.0
C      1  0.6003170000000  0.5424240000000  0.5388290000000 1.0
C      1  0.4073140000000  0.5679700000000  0.5374760000000 1.0
C      1  0.5746410000000  0.5174480000000  0.4156900000000 1.0
C      1  0.4831280000000  0.4282180000000  0.4158790000000 1.0
C      1  0.4395370000000  0.5432310000000  0.4195440000000 1.0
C      1  0.5571850000000  0.4709760000000  0.5733630000000 1.0
C      1  0.4826490000000  0.5622900000000  0.5846070000000 1.0
C      1  0.4528460000000  0.4533070000000  0.5827580000000 1.0
C      1  0.4348020000000  0.4794100000000  0.5793300000000 1.0
C      1  0.5144030000000  0.5716610000000  0.5824840000000 1.0
C      1  0.5491610000000  0.4424100000000  0.5801580000000 1.0
C      1  0.4284740000000  0.5159320000000  0.4211730000000 1.0
C      1  0.5121640000000  0.4259840000000  0.4195610000000 1.0
C      1  0.5602270000000  0.5437260000000  0.4151640000000 1.0
C      1  0.5855120000000  0.4429860000000  0.5077230000000 1.0
C      1  0.4104610000000  0.5413850000000  0.4867250000000 1.0
C      1  0.5868790000000  0.5456630000000  0.4895850000000 1.0
C      1  0.4079010000000  0.4460470000000  0.5083240000000 1.0
C      1  0.4999890000000  0.3939860000000  0.4892370000000 1.0
C      1  0.5001710000000  0.6059440000000  0.5124260000000 1.0
C      1  0.4968700000000  0.5047560000000  0.4760360000000 1.0
C      1  0.5090860000000  0.5275260000000  0.5455630000000 1.0
END
