TITL C-3289327-5623-57 0.000197445200850643 125000 -261.95043586151 0 0 47 (C1) n - 1
REM
REM in /nfs/bkarasulu/CARBON/AIRSS/Generating-Clusters/AIREBO/with-SteepDescent/Higher-Symm/SD-CG/HFTN-CG
REM
REM
REM
REM
REM
REM ./C.cell (b20cbc046b6831c77cfcea5457e17084)
REM
REM compiler GCC version 9.2.1 20190827 (Red Hat 9.2.1-1)
REM options -cpp -mtune=generic -march=x86-64 -g -O0 -fpre-include=/usr/include/finclude/math-vector-fortran.h
REM seed -2022946847 -1501122187 -1431713732 1065050304 -956354411 337073393 -163515369 -1856702662 -1643605156 1454428065 -1887859355 -357736644 194265211 -444379017 1475312894 -986701669 516638856 -463127893 -258492411 -377282067 1905489486 1547712948 1588742285 -511160254 1239228874 -1291483749 73030352 1462581213 -1568013178 -653489568 930767709 -560547903 2069929204
REM
CELL 1.54180   50.00000   50.00000   50.00000   90.00000   90.00000   90.00000
LATT -1
SFAC C  
C      1  0.5661210000000  0.4849410000000  0.4575230000000 1.0
C      1  0.4762300000000  0.4992410000000  0.5096200000000 1.0
C      1  0.5649650000000  0.4566660000000  0.4575290000000 1.0
C      1  0.5146870000000  0.5302320000000  0.4982760000000 1.0
C      1  0.5233320000000  0.5575120000000  0.5166390000000 1.0
C      1  0.4929900000000  0.4533420000000  0.5287350000000 1.0
C      1  0.5242780000000  0.5187330000000  0.4368510000000 1.0
C      1  0.5457870000000  0.5091570000000  0.5306090000000 1.0
C      1  0.4858240000000  0.4808810000000  0.5363770000000 1.0
C      1  0.5202960000000  0.4725080000000  0.4743530000000 1.0
C      1  0.5050260000000  0.4779690000000  0.4492400000000 1.0
C      1  0.4370460000000  0.4629520000000  0.4900790000000 1.0
C      1  0.5075290000000  0.5058090000000  0.5143000000000 1.0
C      1  0.5522180000000  0.5185140000000  0.5054870000000 1.0
C      1  0.4687930000000  0.4855850000000  0.4813300000000 1.0
C      1  0.4731690000000  0.5311490000000  0.4435670000000 1.0
C      1  0.5509860000000  0.5457420000000  0.5040690000000 1.0
C      1  0.4904650000000  0.5394450000000  0.4783500000000 1.0
C      1  0.5035580000000  0.5409750000000  0.4475570000000 1.0
C      1  0.4460300000000  0.4829000000000  0.5392230000000 1.0
C      1  0.5112320000000  0.5428430000000  0.5422730000000 1.0
C      1  0.4656160000000  0.4968190000000  0.5574300000000 1.0
C      1  0.5622620000000  0.4781580000000  0.5024590000000 1.0
C      1  0.5192520000000  0.4930240000000  0.4300880000000 1.0
C      1  0.5440170000000  0.4629700000000  0.5168850000000 1.0
C      1  0.4348180000000  0.5008450000000  0.5198720000000 1.0
C      1  0.4800370000000  0.5598190000000  0.4995790000000 1.0
C      1  0.4533880000000  0.4581600000000  0.5262630000000 1.0
C      1  0.4699390000000  0.4577000000000  0.4966330000000 1.0
C      1  0.4828220000000  0.5432880000000  0.5455720000000 1.0
C      1  0.5007910000000  0.5770080000000  0.5067820000000 1.0
C      1  0.5315270000000  0.4442140000000  0.4998590000000 1.0
C      1  0.4783690000000  0.4839800000000  0.4520140000000 1.0
C      1  0.4674320000000  0.5462100000000  0.5212060000000 1.0
C      1  0.5237860000000  0.5186890000000  0.5484980000000 1.0
C      1  0.5069570000000  0.4952690000000  0.5570190000000 1.0
C      1  0.5441270000000  0.4968250000000  0.4805690000000 1.0
C      1  0.5277510000000  0.5241900000000  0.4687580000000 1.0
C      1  0.4548050000000  0.5220010000000  0.5146880000000 1.0
C      1  0.4679580000000  0.5168680000000  0.4723620000000 1.0
C      1  0.5017970000000  0.4522840000000  0.4981430000000 1.0
C      1  0.5256560000000  0.4826750000000  0.5314150000000 1.0
C      1  0.4238020000000  0.4859790000000  0.4981370000000 1.0
C      1  0.4715220000000  0.5237140000000  0.5635240000000 1.0
C      1  0.4916190000000  0.4321300000000  0.5438600000000 1.0
C      1  0.4671490000000  0.5032560000000  0.4348040000000 1.0
C      1  0.5422360000000  0.4468260000000  0.4715950000000 1.0
END
