TITL C-3289334-2237-184 -0.000691320873367915 125000 -941.992850589186 0 0 167 (C1) n - 1
REM
REM in /nfs/bkarasulu/CARBON/AIRSS/Generating-Clusters/AIREBO/with-SteepDescent/Higher-Symm/SD-CG/HFTN-CG
REM
REM
REM
REM
REM
REM ./C.cell (b20cbc046b6831c77cfcea5457e17084)
REM
REM compiler GCC version 9.2.1 20190827 (Red Hat 9.2.1-1)
REM options -cpp -mtune=generic -march=x86-64 -g -O0 -fpre-include=/usr/include/finclude/math-vector-fortran.h
REM seed -1438693649 1369333834 -1575919155 -466806868 -1358040840 -221260903 715793630 1478340021 -1321192586 890142588 113234926 1557201520 1513138716 1736399747 -1578900446 -719208583 351987716 -265989372 -688922020 1471308225 -850881786 -1026818367 -1937087788 1461172822 -538550664 508688204 -948747747 1762376533 -809101885 -382100643 909756501 46151855 1411849878
REM
CELL 1.54180   50.00000   50.00000   50.00000   90.00000   90.00000   90.00000
LATT -1
SFAC C  
C      1  0.4503000000000  0.4343090000000  0.5342560000000 1.0
C      1  0.4473820000000  0.4307250000000  0.4752310000000 1.0
C      1  0.5079590000000  0.5435750000000  0.5939800000000 1.0
C      1  0.5120890000000  0.5516760000000  0.4140440000000 1.0
C      1  0.5248950000000  0.5180620000000  0.5908970000000 1.0
C      1  0.5248150000000  0.5278440000000  0.4246010000000 1.0
C      1  0.4797520000000  0.5585250000000  0.5582410000000 1.0
C      1  0.4860880000000  0.5685760000000  0.4390950000000 1.0
C      1  0.5089050000000  0.4722080000000  0.4506410000000 1.0
C      1  0.5023950000000  0.4707630000000  0.5618650000000 1.0
C      1  0.5600890000000  0.5151260000000  0.5114370000000 1.0
C      1  0.5663300000000  0.5233920000000  0.4811620000000 1.0
C      1  0.4816790000000  0.5425810000000  0.5834790000000 1.0
C      1  0.4814830000000  0.5481370000000  0.4150660000000 1.0
C      1  0.4673910000000  0.5266640000000  0.3966050000000 1.0
C      1  0.4621260000000  0.5202210000000  0.5925260000000 1.0
C      1  0.4247050000000  0.4894760000000  0.4576040000000 1.0
C      1  0.3970640000000  0.4820960000000  0.5324330000000 1.0
C      1  0.5173690000000  0.4709280000000  0.4899210000000 1.0
C      1  0.5126470000000  0.4486510000000  0.5154900000000 1.0
C      1  0.4381600000000  0.5605670000000  0.5251730000000 1.0
C      1  0.4357180000000  0.5576720000000  0.4911290000000 1.0
C      1  0.5267830000000  0.5049960000000  0.4020430000000 1.0
C      1  0.5169650000000  0.4912460000000  0.6052940000000 1.0
C      1  0.4328300000000  0.5364480000000  0.4128510000000 1.0
C      1  0.4316580000000  0.5458750000000  0.5872680000000 1.0
C      1  0.5234950000000  0.4307560000000  0.4462270000000 1.0
C      1  0.5343770000000  0.3921170000000  0.5378990000000 1.0
C      1  0.3906480000000  0.5314740000000  0.4585860000000 1.0
C      1  0.3905430000000  0.5304660000000  0.5415860000000 1.0
C      1  0.5414550000000  0.5398370000000  0.4713050000000 1.0
C      1  0.5377280000000  0.5383720000000  0.5043530000000 1.0
C      1  0.4740190000000  0.5049160000000  0.6163780000000 1.0
C      1  0.4847510000000  0.5144990000000  0.3792570000000 1.0
C      1  0.5955470000000  0.5479400000000  0.5083660000000 1.0
C      1  0.5930660000000  0.5423930000000  0.4761060000000 1.0
C      1  0.5734650000000  0.5581850000000  0.5321230000000 1.0
C      1  0.5783790000000  0.5532670000000  0.4474010000000 1.0
C      1  0.4936250000000  0.5761450000000  0.5146600000000 1.0
C      1  0.5012650000000  0.5712470000000  0.4845590000000 1.0
C      1  0.4783710000000  0.3984540000000  0.5173770000000 1.0
C      1  0.4710670000000  0.3927240000000  0.4901430000000 1.0
C      1  0.4467160000000  0.4001640000000  0.4796620000000 1.0
C      1  0.4585260000000  0.4046270000000  0.5350550000000 1.0
C      1  0.4884900000000  0.4751660000000  0.4053090000000 1.0
C      1  0.4763090000000  0.4730230000000  0.5824440000000 1.0
C      1  0.4492570000000  0.5829460000000  0.4444430000000 1.0
C      1  0.4622620000000  0.5874540000000  0.5621910000000 1.0
C      1  0.5754030000000  0.5340220000000  0.4264400000000 1.0
C      1  0.5620530000000  0.5376040000000  0.5559890000000 1.0
C      1  0.4481200000000  0.4895530000000  0.5142770000000 1.0
C      1  0.4399010000000  0.4784410000000  0.4859590000000 1.0
C      1  0.4302630000000  0.5181070000000  0.5131590000000 1.0
C      1  0.4160790000000  0.5378860000000  0.4795260000000 1.0
C      1  0.5061050000000  0.5933930000000  0.4516670000000 1.0
C      1  0.5227180000000  0.5883310000000  0.5445840000000 1.0
C      1  0.5424880000000  0.4532350000000  0.4195800000000 1.0
C      1  0.5492050000000  0.4534610000000  0.5851520000000 1.0
C      1  0.4441340000000  0.5318530000000  0.5589170000000 1.0
C      1  0.4590330000000  0.5338320000000  0.4350160000000 1.0
C      1  0.5521770000000  0.4008530000000  0.4747650000000 1.0
C      1  0.5620750000000  0.4046900000000  0.5362330000000 1.0
C      1  0.4064200000000  0.4942680000000  0.5087470000000 1.0
C      1  0.4107730000000  0.5052020000000  0.4809810000000 1.0
C      1  0.5477010000000  0.4855170000000  0.5922310000000 1.0
C      1  0.5581030000000  0.4803340000000  0.4189520000000 1.0
C      1  0.5770200000000  0.4711640000000  0.4767850000000 1.0
C      1  0.5722410000000  0.4764550000000  0.5218240000000 1.0
C      1  0.4629680000000  0.4469000000000  0.4499020000000 1.0
C      1  0.4581310000000  0.4531050000000  0.5615000000000 1.0
C      1  0.4892060000000  0.4648200000000  0.4738200000000 1.0
C      1  0.4915330000000  0.4660980000000  0.5334310000000 1.0
C      1  0.4256530000000  0.4614940000000  0.5670740000000 1.0
C      1  0.4425670000000  0.4597360000000  0.4270820000000 1.0
C      1  0.5273150000000  0.5222280000000  0.5572350000000 1.0
C      1  0.5238330000000  0.5214920000000  0.4539870000000 1.0
C      1  0.4551550000000  0.5308280000000  0.4834530000000 1.0
C      1  0.4581290000000  0.5372680000000  0.5167090000000 1.0
C      1  0.3999010000000  0.5329740000000  0.5156920000000 1.0
C      1  0.3842750000000  0.5363010000000  0.4903850000000 1.0
C      1  0.5280220000000  0.5881890000000  0.4771430000000 1.0
C      1  0.5257790000000  0.5866290000000  0.5111600000000 1.0
C      1  0.4953950000000  0.5192990000000  0.5470730000000 1.0
C      1  0.4947780000000  0.5247900000000  0.4644280000000 1.0
C      1  0.5847900000000  0.5066960000000  0.4603360000000 1.0
C      1  0.5839770000000  0.5177500000000  0.5319070000000 1.0
C      1  0.5281820000000  0.5732610000000  0.4137800000000 1.0
C      1  0.5218960000000  0.5644290000000  0.5819720000000 1.0
C      1  0.5803170000000  0.4422110000000  0.4857140000000 1.0
C      1  0.5808860000000  0.4459260000000  0.5154960000000 1.0
C      1  0.5567900000000  0.4723680000000  0.5510370000000 1.0
C      1  0.5567960000000  0.4718240000000  0.4516240000000 1.0
C      1  0.4731550000000  0.4458340000000  0.5181230000000 1.0
C      1  0.4762770000000  0.4406670000000  0.4888510000000 1.0
C      1  0.5845660000000  0.5141760000000  0.5636160000000 1.0
C      1  0.5805920000000  0.5026600000000  0.4312790000000 1.0
C      1  0.4110850000000  0.4594150000000  0.5416570000000 1.0
C      1  0.4248260000000  0.4568850000000  0.4559650000000 1.0
C      1  0.4415540000000  0.5617830000000  0.4296360000000 1.0
C      1  0.4376350000000  0.5644310000000  0.5590860000000 1.0
C      1  0.5424720000000  0.5613100000000  0.5232860000000 1.0
C      1  0.5522330000000  0.5693710000000  0.4620240000000 1.0
C      1  0.5452050000000  0.4266210000000  0.5208870000000 1.0
C      1  0.5393270000000  0.4273520000000  0.4914440000000 1.0
C      1  0.5752950000000  0.5823210000000  0.5096640000000 1.0
C      1  0.5723090000000  0.5828430000000  0.4851240000000 1.0
C      1  0.5002220000000  0.4283500000000  0.4214060000000 1.0
C      1  0.5036770000000  0.4230560000000  0.5717310000000 1.0
C      1  0.4684590000000  0.4267960000000  0.4226260000000 1.0
C      1  0.4774340000000  0.4291580000000  0.5760100000000 1.0
C      1  0.5691260000000  0.4245480000000  0.4650270000000 1.0
C      1  0.5798210000000  0.4296930000000  0.5400810000000 1.0
C      1  0.5197860000000  0.4027430000000  0.4853290000000 1.0
C      1  0.5209420000000  0.3858250000000  0.5118880000000 1.0
C      1  0.4565710000000  0.5732500000000  0.4728950000000 1.0
C      1  0.4511680000000  0.5895820000000  0.5320900000000 1.0
C      1  0.6153220000000  0.5178450000000  0.4696960000000 1.0
C      1  0.6140290000000  0.5231190000000  0.5196620000000 1.0
C      1  0.5572610000000  0.5176100000000  0.5831150000000 1.0
C      1  0.5533020000000  0.5229850000000  0.4103170000000 1.0
C      1  0.5308870000000  0.4919940000000  0.4587380000000 1.0
C      1  0.5301810000000  0.4894920000000  0.5634970000000 1.0
C      1  0.6020860000000  0.4895150000000  0.4831370000000 1.0
C      1  0.5979290000000  0.4938910000000  0.5126310000000 1.0
C      1  0.4626070000000  0.5997330000000  0.4883090000000 1.0
C      1  0.4709990000000  0.5957120000000  0.5136450000000 1.0
C      1  0.4240680000000  0.4434930000000  0.5216110000000 1.0
C      1  0.4265870000000  0.4497480000000  0.4897870000000 1.0
C      1  0.3888040000000  0.5008570000000  0.5515870000000 1.0
C      1  0.3963260000000  0.5191100000000  0.4341500000000 1.0
C      1  0.5122810000000  0.4055940000000  0.5529540000000 1.0
C      1  0.4922640000000  0.4301600000000  0.4541340000000 1.0
C      1  0.5413400000000  0.4904420000000  0.5189880000000 1.0
C      1  0.5481150000000  0.4852940000000  0.4876490000000 1.0
C      1  0.5092120000000  0.4596090000000  0.4225890000000 1.0
C      1  0.5219100000000  0.4465690000000  0.5708460000000 1.0
C      1  0.4949760000000  0.5881350000000  0.5529510000000 1.0
C      1  0.4752800000000  0.6008110000000  0.4393700000000 1.0
C      1  0.5023650000000  0.4957590000000  0.3911180000000 1.0
C      1  0.4901460000000  0.4848470000000  0.6072150000000 1.0
C      1  0.4870710000000  0.5454390000000  0.5277130000000 1.0
C      1  0.4842370000000  0.5543660000000  0.4669880000000 1.0
C      1  0.4676650000000  0.5107620000000  0.5603120000000 1.0
C      1  0.4652560000000  0.5117900000000  0.4569280000000 1.0
C      1  0.4813660000000  0.4933610000000  0.5204780000000 1.0
C      1  0.4757260000000  0.5093890000000  0.4949380000000 1.0
C      1  0.5809960000000  0.4855780000000  0.5701400000000 1.0
C      1  0.5895300000000  0.4818050000000  0.4059570000000 1.0
C      1  0.4194920000000  0.5045030000000  0.4320190000000 1.0
C      1  0.4125650000000  0.5201220000000  0.5642910000000 1.0
C      1  0.5366720000000  0.4512950000000  0.4699540000000 1.0
C      1  0.5347690000000  0.4490010000000  0.5398510000000 1.0
C      1  0.4436010000000  0.4820790000000  0.5846510000000 1.0
C      1  0.4583980000000  0.4772030000000  0.4103290000000 1.0
C      1  0.5561630000000  0.4335700000000  0.4401180000000 1.0
C      1  0.5718310000000  0.4446930000000  0.5638620000000 1.0
C      1  0.5062530000000  0.5031420000000  0.4880220000000 1.0
C      1  0.5141570000000  0.4982410000000  0.5280550000000 1.0
C      1  0.4555010000000  0.4837330000000  0.5469580000000 1.0
C      1  0.4626920000000  0.4783640000000  0.4628800000000 1.0
C      1  0.4924430000000  0.4119890000000  0.4791050000000 1.0
C      1  0.5068390000000  0.4155190000000  0.5209220000000 1.0
C      1  0.5258890000000  0.5551210000000  0.5510170000000 1.0
C      1  0.5338410000000  0.5845790000000  0.4378030000000 1.0
C      1  0.4460750000000  0.5051940000000  0.4108160000000 1.0
C      1  0.4302830000000  0.5120420000000  0.5904900000000 1.0
C      1  0.5082770000000  0.5305630000000  0.5056540000000 1.0
END
