TITL C-3289330-4660-543 -0.000189598456266545 125000 -681.353859769945 0 0 127 (C1) n - 1
REM
REM in /nfs/bkarasulu/CARBON/AIRSS/Generating-Clusters/AIREBO/with-SteepDescent/Higher-Symm/SD-CG/HFTN-CG
REM
REM
REM
REM
REM
REM ./C.cell (b20cbc046b6831c77cfcea5457e17084)
REM
REM compiler GCC version 9.2.1 20190827 (Red Hat 9.2.1-1)
REM options -cpp -mtune=generic -march=x86-64 -g -O0 -fpre-include=/usr/include/finclude/math-vector-fortran.h
REM seed 1918765962 983489147 -1682180491 1508433595 -178965718 1766644546 2110213539 1541058688 46057771 1582766091 -2069303312 -1159726606 -385886229 -355645159 -329554562 -1091610875 -1698772820 1779527916 482380862 413249053 -2056955721 -531650511 -1570311072 -1647526958 -1212492439 2120920654 639183523 2012783017 1627437131 571696459 -359355779 79242626 1584717254
REM
CELL 1.54180   50.00000   50.00000   50.00000   90.00000   90.00000   90.00000
LATT -1
SFAC C  
C      1  0.4865860000000  0.4864200000000  0.4183480000000 1.0
C      1  0.4150460000000  0.4902790000000  0.4631750000000 1.0
C      1  0.4195750000000  0.4926380000000  0.5282770000000 1.0
C      1  0.4716040000000  0.4961050000000  0.5777800000000 1.0
C      1  0.5478400000000  0.4937070000000  0.5692110000000 1.0
C      1  0.5843290000000  0.4926070000000  0.5061020000000 1.0
C      1  0.5597400000000  0.4936360000000  0.4456210000000 1.0
C      1  0.5448140000000  0.4442510000000  0.5683200000000 1.0
C      1  0.5736630000000  0.4417980000000  0.5051460000000 1.0
C      1  0.5514490000000  0.4468320000000  0.4414530000000 1.0
C      1  0.4941370000000  0.4340880000000  0.4211350000000 1.0
C      1  0.4326990000000  0.4427850000000  0.4620220000000 1.0
C      1  0.4245470000000  0.4415940000000  0.5291630000000 1.0
C      1  0.4740070000000  0.4467180000000  0.5761400000000 1.0
C      1  0.4570790000000  0.5750810000000  0.4576090000000 1.0
C      1  0.4514010000000  0.5702200000000  0.4967920000000 1.0
C      1  0.4650850000000  0.5699270000000  0.5465330000000 1.0
C      1  0.5156260000000  0.5640830000000  0.5603200000000 1.0
C      1  0.5554000000000  0.5782830000000  0.5339790000000 1.0
C      1  0.5472950000000  0.5710360000000  0.4764700000000 1.0
C      1  0.5106100000000  0.5744270000000  0.4434480000000 1.0
C      1  0.5669890000000  0.5552830000000  0.4960320000000 1.0
C      1  0.5330090000000  0.5524090000000  0.4564510000000 1.0
C      1  0.4847400000000  0.5613160000000  0.4549230000000 1.0
C      1  0.4517470000000  0.5462970000000  0.4749010000000 1.0
C      1  0.4564100000000  0.5520600000000  0.5225960000000 1.0
C      1  0.4894930000000  0.5484250000000  0.5507690000000 1.0
C      1  0.5435960000000  0.5501960000000  0.5490870000000 1.0
C      1  0.5293890000000  0.5253770000000  0.5096440000000 1.0
C      1  0.5538910000000  0.5411590000000  0.5195260000000 1.0
C      1  0.5140050000000  0.5245930000000  0.4548780000000 1.0
C      1  0.4894550000000  0.5377250000000  0.4653240000000 1.0
C      1  0.4739220000000  0.5234560000000  0.4868500000000 1.0
C      1  0.4808780000000  0.5357610000000  0.5140260000000 1.0
C      1  0.5060330000000  0.5279130000000  0.5294320000000 1.0
C      1  0.5728170000000  0.4683380000000  0.5250420000000 1.0
C      1  0.5678740000000  0.4697800000000  0.4542650000000 1.0
C      1  0.5079800000000  0.4623680000000  0.4131240000000 1.0
C      1  0.4459600000000  0.4518900000000  0.4329870000000 1.0
C      1  0.4209690000000  0.4675460000000  0.5083350000000 1.0
C      1  0.4542210000000  0.4711960000000  0.5632610000000 1.0
C      1  0.5249710000000  0.4708360000000  0.5760010000000 1.0
C      1  0.5212110000000  0.4632320000000  0.4749460000000 1.0
C      1  0.4949340000000  0.4715540000000  0.4579840000000 1.0
C      1  0.4640900000000  0.4671750000000  0.4716510000000 1.0
C      1  0.4713130000000  0.4744740000000  0.5040800000000 1.0
C      1  0.4858120000000  0.4739580000000  0.5349110000000 1.0
C      1  0.5195210000000  0.4779940000000  0.5370950000000 1.0
C      1  0.5413790000000  0.4816470000000  0.4876700000000 1.0
C      1  0.5377040000000  0.5259540000000  0.5698500000000 1.0
C      1  0.5836820000000  0.5251170000000  0.5160520000000 1.0
C      1  0.5547690000000  0.5268200000000  0.4511400000000 1.0
C      1  0.4979960000000  0.5173960000000  0.4256550000000 1.0
C      1  0.4457170000000  0.5216500000000  0.4586400000000 1.0
C      1  0.4343150000000  0.5259670000000  0.5218720000000 1.0
C      1  0.4711700000000  0.5254450000000  0.5611150000000 1.0
C      1  0.4305560000000  0.4692220000000  0.4785230000000 1.0
C      1  0.4343380000000  0.4696490000000  0.5457910000000 1.0
C      1  0.4938610000000  0.4731140000000  0.5680600000000 1.0
C      1  0.5511210000000  0.4690950000000  0.5459800000000 1.0
C      1  0.5710890000000  0.4694610000000  0.4854840000000 1.0
C      1  0.5312210000000  0.4679280000000  0.4293100000000 1.0
C      1  0.4744800000000  0.4587830000000  0.4339550000000 1.0
C      1  0.4033440000000  0.5358800000000  0.5318280000000 1.0
C      1  0.4399290000000  0.5563630000000  0.5986980000000 1.0
C      1  0.5403970000000  0.5387230000000  0.6005620000000 1.0
C      1  0.6033630000000  0.5497720000000  0.5297260000000 1.0
C      1  0.5673090000000  0.5386930000000  0.4222770000000 1.0
C      1  0.5217830000000  0.5560030000000  0.3851700000000 1.0
C      1  0.4143270000000  0.5198960000000  0.4470040000000 1.0
C      1  0.5789930000000  0.5315080000000  0.5491190000000 1.0
C      1  0.5838990000000  0.5399990000000  0.4632300000000 1.0
C      1  0.5212700000000  0.5315510000000  0.4088540000000 1.0
C      1  0.4393950000000  0.5341920000000  0.4287310000000 1.0
C      1  0.4124600000000  0.5382820000000  0.4989000000000 1.0
C      1  0.4405300000000  0.5338500000000  0.5731750000000 1.0
C      1  0.5093530000000  0.5295900000000  0.5982640000000 1.0
C      1  0.4651330000000  0.5007030000000  0.5385870000000 1.0
C      1  0.5145800000000  0.5078790000000  0.5526570000000 1.0
C      1  0.5392450000000  0.4955380000000  0.5156620000000 1.0
C      1  0.5434380000000  0.5142370000000  0.4806390000000 1.0
C      1  0.5198360000000  0.4923080000000  0.4476360000000 1.0
C      1  0.4608860000000  0.4953900000000  0.4549960000000 1.0
C      1  0.4567580000000  0.5051470000000  0.5059340000000 1.0
C      1  0.5055520000000  0.4097140000000  0.4669950000000 1.0
C      1  0.4806910000000  0.4147640000000  0.4791060000000 1.0
C      1  0.4708440000000  0.4117300000000  0.5048420000000 1.0
C      1  0.4863220000000  0.4216090000000  0.5251250000000 1.0
C      1  0.5131090000000  0.4232600000000  0.5273730000000 1.0
C      1  0.5340460000000  0.4136110000000  0.5126110000000 1.0
C      1  0.5285950000000  0.4113580000000  0.4856290000000 1.0
C      1  0.4454150000000  0.4319820000000  0.5526370000000 1.0
C      1  0.5057130000000  0.4359110000000  0.5749260000000 1.0
C      1  0.5625060000000  0.4235690000000  0.5499730000000 1.0
C      1  0.5669180000000  0.4313600000000  0.4748960000000 1.0
C      1  0.5391070000000  0.4178560000000  0.4331400000000 1.0
C      1  0.4688670000000  0.4193660000000  0.4354940000000 1.0
C      1  0.4232390000000  0.4182470000000  0.4802350000000 1.0
C      1  0.5173120000000  0.5598530000000  0.5901920000000 1.0
C      1  0.5801460000000  0.5653500000000  0.5460270000000 1.0
C      1  0.5806670000000  0.5694040000000  0.4703640000000 1.0
C      1  0.5173180000000  0.5646710000000  0.4154500000000 1.0
C      1  0.4403040000000  0.5636440000000  0.4315400000000 1.0
C      1  0.4216900000000  0.5669990000000  0.4911860000000 1.0
C      1  0.4461900000000  0.5665980000000  0.5689730000000 1.0
C      1  0.4644900000000  0.5113320000000  0.4251760000000 1.0
C      1  0.4134040000000  0.5150950000000  0.4809240000000 1.0
C      1  0.4356140000000  0.5106780000000  0.5522210000000 1.0
C      1  0.5012490000000  0.5096450000000  0.5816360000000 1.0
C      1  0.5581910000000  0.5078000000000  0.5411700000000 1.0
C      1  0.5759230000000  0.5178730000000  0.4838040000000 1.0
C      1  0.5377650000000  0.5114640000000  0.4260010000000 1.0
C      1  0.4733380000000  0.6034950000000  0.5114640000000 1.0
C      1  0.4829270000000  0.5913770000000  0.5337520000000 1.0
C      1  0.5095520000000  0.5861810000000  0.5378520000000 1.0
C      1  0.5314240000000  0.5881900000000  0.5198610000000 1.0
C      1  0.5272490000000  0.5872050000000  0.4914890000000 1.0
C      1  0.5051090000000  0.5901330000000  0.4733950000000 1.0
C      1  0.4751330000000  0.5898840000000  0.4823560000000 1.0
C      1  0.5350160000000  0.4367270000000  0.4680460000000 1.0
C      1  0.5122550000000  0.4153240000000  0.4395480000000 1.0
C      1  0.4640810000000  0.4341180000000  0.4636300000000 1.0
C      1  0.4391800000000  0.4200250000000  0.5073440000000 1.0
C      1  0.4742990000000  0.4428390000000  0.5423600000000 1.0
C      1  0.5195320000000  0.4447940000000  0.5463930000000 1.0
C      1  0.5593120000000  0.4213140000000  0.5228460000000 1.0
C      1  0.4560730000000  0.4486960000000  0.5060810000000 1.0
END
