TITL C-3289322-3858-87 -0.00146580144048642 125000 -53.3275256727722 0 0 12 (Cs) n - 1
REM
REM in /nfs/bkarasulu/CARBON/AIRSS/Generating-Clusters/AIREBO/with-SteepDescent/Higher-Symm/SD-CG/HFTN-CG
REM
REM
REM
REM
REM
REM ./C.cell (b20cbc046b6831c77cfcea5457e17084)
REM
REM compiler GCC version 9.2.1 20190827 (Red Hat 9.2.1-1)
REM options -cpp -mtune=generic -march=x86-64 -g -O0 -fpre-include=/usr/include/finclude/math-vector-fortran.h
REM seed 786533163 896964223 -1010134205 1080658002 -1757053808 1102597762 -763182815 2121096217 1667428902 761452342 -1892911055 -328235024 -1147577460 908708405 397843448 1934659331 -1067957449 -291049818 -81783037 -1647698420 -830323813 1684459227 1471261167 -1689878830 -1636315944 -1508458431 1874025404 309299807 1582090047 1728768366 -1197654397 1725870634 639068694
REM
CELL 1.54180   50.00000   50.00000   50.00000   90.00000   90.00000   90.00000
LATT -1
SFAC C  
C      1  0.5156300000000  0.5189900000000  0.4711280000000 1.0
C      1  0.5199970000000  0.4853170000000  0.4689960000000 1.0
C      1  0.5199120000000  0.4648770000000  0.4966830000000 1.0
C      1  0.5154990000000  0.4768860000000  0.5282080000000 1.0
C      1  0.5225930000000  0.5045480000000  0.5352990000000 1.0
C      1  0.5174040000000  0.5316220000000  0.5245070000000 1.0
C      1  0.5226760000000  0.5339160000000  0.4954710000000 1.0
C      1  0.5574460000000  0.5046630000000  0.5047560000000 1.0
C      1  0.4717690000000  0.5020730000000  0.5025750000000 1.0
C      1  0.4984670000000  0.5032920000000  0.5035790000000 1.0
C      1  0.4455800000000  0.5028170000000  0.5032280000000 1.0
C      1  0.5330850000000  0.4951750000000  0.4977060000000 1.0
END
