TITL C-3289334-2237-62 0.000529745691994063 125000 -582.048937018528 0 0 114 (C1) n - 1
REM
REM in /nfs/bkarasulu/CARBON/AIRSS/Generating-Clusters/AIREBO/with-SteepDescent/Higher-Symm/SD-CG/HFTN-CG
REM
REM
REM
REM
REM
REM ./C.cell (b20cbc046b6831c77cfcea5457e17084)
REM
REM compiler GCC version 9.2.1 20190827 (Red Hat 9.2.1-1)
REM options -cpp -mtune=generic -march=x86-64 -g -O0 -fpre-include=/usr/include/finclude/math-vector-fortran.h
REM seed 1913239214 -2071821726 -1560598017 1326434054 349738707 162281301 1759670511 1657670361 2036513631 -780271973 -159718150 -1724126863 1461638876 1586734312 1635351396 2093551296 -1161440363 1611744807 890160659 311016740 -202108545 197203911 152777450 1483764496 -411401118 1266244862 -497869078 538028772 946291114 871409787 -577605772 -2070118164 -885801348
REM
CELL 1.54180   50.00000   50.00000   50.00000   90.00000   90.00000   90.00000
LATT -1
SFAC C  
C      1  0.4374320000000  0.5805070000000  0.5206150000000 1.0
C      1  0.3972770000000  0.4657110000000  0.5254620000000 1.0
C      1  0.4968050000000  0.4083400000000  0.5114960000000 1.0
C      1  0.5959930000000  0.4769180000000  0.5163130000000 1.0
C      1  0.5553530000000  0.5827470000000  0.5176470000000 1.0
C      1  0.4556620000000  0.5029100000000  0.4437700000000 1.0
C      1  0.4828650000000  0.4738820000000  0.4404580000000 1.0
C      1  0.5324110000000  0.4819380000000  0.4261670000000 1.0
C      1  0.5464730000000  0.5285610000000  0.4360380000000 1.0
C      1  0.4923970000000  0.5312700000000  0.4265590000000 1.0
C      1  0.5579560000000  0.4758370000000  0.5699750000000 1.0
C      1  0.5390180000000  0.5560720000000  0.5719500000000 1.0
C      1  0.4583150000000  0.5555950000000  0.5655470000000 1.0
C      1  0.4378720000000  0.4794180000000  0.5671150000000 1.0
C      1  0.4941200000000  0.4234890000000  0.5634080000000 1.0
C      1  0.5507030000000  0.5458710000000  0.4964050000000 1.0
C      1  0.4728110000000  0.5437440000000  0.4762550000000 1.0
C      1  0.4423240000000  0.4855440000000  0.4771770000000 1.0
C      1  0.4929910000000  0.4394780000000  0.4794460000000 1.0
C      1  0.5516800000000  0.4745090000000  0.4847600000000 1.0
C      1  0.4537130000000  0.4800980000000  0.5150810000000 1.0
C      1  0.5025140000000  0.4591330000000  0.5237280000000 1.0
C      1  0.5413670000000  0.4962050000000  0.5247500000000 1.0
C      1  0.5161580000000  0.5471580000000  0.5267670000000 1.0
C      1  0.4691590000000  0.5320500000000  0.5196450000000 1.0
C      1  0.4135640000000  0.5023950000000  0.4986440000000 1.0
C      1  0.4523200000000  0.4207500000000  0.4970200000000 1.0
C      1  0.5663850000000  0.4396370000000  0.4969050000000 1.0
C      1  0.5829350000000  0.5420260000000  0.5066580000000 1.0
C      1  0.4772610000000  0.5775950000000  0.4967770000000 1.0
C      1  0.4728060000000  0.5105870000000  0.4687120000000 1.0
C      1  0.4700160000000  0.4709570000000  0.4710070000000 1.0
C      1  0.5095620000000  0.4674390000000  0.4694410000000 1.0
C      1  0.5375460000000  0.5082040000000  0.4617710000000 1.0
C      1  0.5229600000000  0.5469560000000  0.4807950000000 1.0
C      1  0.4538880000000  0.5493470000000  0.4485620000000 1.0
C      1  0.4261110000000  0.4649290000000  0.4555170000000 1.0
C      1  0.5038150000000  0.4406950000000  0.4478160000000 1.0
C      1  0.5609510000000  0.4837440000000  0.4540330000000 1.0
C      1  0.5270420000000  0.5575750000000  0.4552430000000 1.0
C      1  0.4368090000000  0.4966330000000  0.5395420000000 1.0
C      1  0.4784680000000  0.4430330000000  0.5416360000000 1.0
C      1  0.5505090000000  0.4661980000000  0.5388600000000 1.0
C      1  0.5459680000000  0.5440350000000  0.5437400000000 1.0
C      1  0.4786060000000  0.5571460000000  0.5406100000000 1.0
C      1  0.5167770000000  0.4344620000000  0.5691620000000 1.0
C      1  0.5435380000000  0.4998920000000  0.5739050000000 1.0
C      1  0.5152830000000  0.5490620000000  0.5786960000000 1.0
C      1  0.4536970000000  0.5309240000000  0.5706820000000 1.0
C      1  0.4604050000000  0.4727790000000  0.5768640000000 1.0
C      1  0.3980510000000  0.4421120000000  0.5053220000000 1.0
C      1  0.5081250000000  0.3935980000000  0.4883500000000 1.0
C      1  0.6045430000000  0.4834030000000  0.4880600000000 1.0
C      1  0.5465230000000  0.5783200000000  0.4871170000000 1.0
C      1  0.4279400000000  0.5841510000000  0.4924890000000 1.0
C      1  0.5011370000000  0.5358220000000  0.5545360000000 1.0
C      1  0.4649080000000  0.5127030000000  0.5472900000000 1.0
C      1  0.4859760000000  0.4702630000000  0.5605890000000 1.0
C      1  0.5201850000000  0.4596160000000  0.5527800000000 1.0
C      1  0.5520970000000  0.5149500000000  0.5475340000000 1.0
C      1  0.5236080000000  0.5437980000000  0.4227630000000 1.0
C      1  0.4614850000000  0.5284710000000  0.4235880000000 1.0
C      1  0.4513670000000  0.4721830000000  0.4358090000000 1.0
C      1  0.5074520000000  0.4605720000000  0.4222220000000 1.0
C      1  0.5572840000000  0.4995210000000  0.4241390000000 1.0
C      1  0.4269800000000  0.4304390000000  0.5005900000000 1.0
C      1  0.5539660000000  0.4115140000000  0.4933020000000 1.0
C      1  0.6055230000000  0.5247150000000  0.5198000000000 1.0
C      1  0.4874150000000  0.6057400000000  0.4836020000000 1.0
C      1  0.4223800000000  0.5325730000000  0.4921270000000 1.0
C      1  0.5781630000000  0.5268070000000  0.4777740000000 1.0
C      1  0.4912050000000  0.5706520000000  0.4665520000000 1.0
C      1  0.4235740000000  0.5122620000000  0.4676340000000 1.0
C      1  0.4636130000000  0.4283860000000  0.4720210000000 1.0
C      1  0.5451540000000  0.4456740000000  0.4710250000000 1.0
C      1  0.4491650000000  0.4421180000000  0.4527850000000 1.0
C      1  0.5348450000000  0.4518690000000  0.4420140000000 1.0
C      1  0.5747220000000  0.5150860000000  0.4493280000000 1.0
C      1  0.4994650000000  0.5633210000000  0.4366190000000 1.0
C      1  0.4309710000000  0.5254750000000  0.4399930000000 1.0
C      1  0.4782530000000  0.4611020000000  0.5011720000000 1.0
C      1  0.5237590000000  0.4658530000000  0.4980350000000 1.0
C      1  0.5445730000000  0.5124630000000  0.4947640000000 1.0
C      1  0.4963340000000  0.5389420000000  0.5003710000000 1.0
C      1  0.4561310000000  0.5084070000000  0.4982680000000 1.0
C      1  0.4244530000000  0.5281500000000  0.5427590000000 1.0
C      1  0.4464460000000  0.4445460000000  0.5495300000000 1.0
C      1  0.5446500000000  0.4328250000000  0.5359580000000 1.0
C      1  0.5814670000000  0.5043990000000  0.5547670000000 1.0
C      1  0.5029210000000  0.5807200000000  0.5436360000000 1.0
C      1  0.4069060000000  0.4934540000000  0.5236700000000 1.0
C      1  0.4720990000000  0.4195580000000  0.5177840000000 1.0
C      1  0.5751230000000  0.4578440000000  0.5173560000000 1.0
C      1  0.5677410000000  0.5598650000000  0.5293220000000 1.0
C      1  0.4662420000000  0.5813040000000  0.5215260000000 1.0
C      1  0.5147100000000  0.5857310000000  0.4861200000000 1.0
C      1  0.4443700000000  0.5540580000000  0.4917840000000 1.0
C      1  0.4234030000000  0.4638340000000  0.4952840000000 1.0
C      1  0.5229760000000  0.4250050000000  0.4864320000000 1.0
C      1  0.5742170000000  0.4966990000000  0.4893320000000 1.0
C      1  0.5225630000000  0.5794830000000  0.5183900000000 1.0
C      1  0.4394590000000  0.5477840000000  0.5248390000000 1.0
C      1  0.4304930000000  0.4589810000000  0.5281840000000 1.0
C      1  0.5187690000000  0.4295140000000  0.5198690000000 1.0
C      1  0.5986430000000  0.5002810000000  0.5328370000000 1.0
C      1  0.4954600000000  0.5022890000000  0.5541770000000 1.0
C      1  0.5085140000000  0.4925340000000  0.5259340000000 1.0
C      1  0.5048010000000  0.4996190000000  0.4649640000000 1.0
C      1  0.5109280000000  0.5085420000000  0.4977600000000 1.0
C      1  0.4933180000000  0.4928110000000  0.3727130000000 1.0
C      1  0.5167090000000  0.5016260000000  0.5807150000000 1.0
C      1  0.5059340000000  0.5000120000000  0.6058350000000 1.0
C      1  0.4965210000000  0.4946940000000  0.3979900000000 1.0
C      1  0.5033270000000  0.4993310000000  0.4309780000000 1.0
END
