TITL C-3289329-2751-407 -0.000965514987254469 125000 -910.859607005359 0 0 163 (C1) n - 1
REM
REM in /nfs/bkarasulu/CARBON/AIRSS/Generating-Clusters/AIREBO/with-SteepDescent/Higher-Symm/SD-CG/HFTN-CG
REM
REM
REM
REM
REM
REM ./C.cell (b20cbc046b6831c77cfcea5457e17084)
REM
REM compiler GCC version 9.2.1 20190827 (Red Hat 9.2.1-1)
REM options -cpp -mtune=generic -march=x86-64 -g -O0 -fpre-include=/usr/include/finclude/math-vector-fortran.h
REM seed -1820602893 -658249016 1650194364 -1663634518 -552353848 2136542839 1032882970 -1709834382 -307538357 -1828648681 1796373565 -215597765 673017828 1911755093 1268137130 569929899 -1624267671 -413537026 1127946673 512989599 -1318132303 563726779 -856198061 583168933 -947194318 410080372 1663934974 -773521397 -2096662287 -421754138 -481186489 -1197039246 254040650
REM
CELL 1.54180   50.00000   50.00000   50.00000   90.00000   90.00000   90.00000
LATT -1
SFAC C  
C      1  0.5306160000000  0.4599540000000  0.5569510000000 1.0
C      1  0.4646440000000  0.4578460000000  0.5613610000000 1.0
C      1  0.4332370000000  0.4551180000000  0.5016480000000 1.0
C      1  0.4646630000000  0.4560070000000  0.4392310000000 1.0
C      1  0.5330710000000  0.4572180000000  0.4426110000000 1.0
C      1  0.5663660000000  0.4560040000000  0.4981600000000 1.0
C      1  0.4687710000000  0.5387010000000  0.5548840000000 1.0
C      1  0.5358220000000  0.5416640000000  0.5560100000000 1.0
C      1  0.5720770000000  0.5460310000000  0.5039240000000 1.0
C      1  0.5362750000000  0.5443220000000  0.4441330000000 1.0
C      1  0.4696090000000  0.5418740000000  0.4443020000000 1.0
C      1  0.4322990000000  0.5445720000000  0.4976930000000 1.0
C      1  0.4204590000000  0.4072380000000  0.5252650000000 1.0
C      1  0.4386760000000  0.4153750000000  0.4498920000000 1.0
C      1  0.5142230000000  0.4117200000000  0.4216410000000 1.0
C      1  0.5763160000000  0.4131270000000  0.4673190000000 1.0
C      1  0.5657510000000  0.4434460000000  0.5706450000000 1.0
C      1  0.4823580000000  0.4117140000000  0.5830990000000 1.0
C      1  0.5790150000000  0.5900300000000  0.5359530000000 1.0
C      1  0.5653160000000  0.5882430000000  0.4395730000000 1.0
C      1  0.4831270000000  0.5868220000000  0.4170870000000 1.0
C      1  0.4221500000000  0.5911890000000  0.4744830000000 1.0
C      1  0.4406280000000  0.5869090000000  0.5528980000000 1.0
C      1  0.5121560000000  0.5829400000000  0.5819950000000 1.0
C      1  0.4234720000000  0.5746720000000  0.5108250000000 1.0
C      1  0.4532500000000  0.5711000000000  0.4384320000000 1.0
C      1  0.5300780000000  0.5734560000000  0.4285910000000 1.0
C      1  0.5793980000000  0.5751170000000  0.4902010000000 1.0
C      1  0.5475160000000  0.5731120000000  0.5616350000000 1.0
C      1  0.4722620000000  0.5690040000000  0.5693920000000 1.0
C      1  0.5741280000000  0.4251820000000  0.5102560000000 1.0
C      1  0.5470770000000  0.4267210000000  0.4388030000000 1.0
C      1  0.4695920000000  0.4272820000000  0.4244320000000 1.0
C      1  0.4230230000000  0.4249940000000  0.4896280000000 1.0
C      1  0.4513740000000  0.4265650000000  0.5627020000000 1.0
C      1  0.5284920000000  0.4289710000000  0.5707970000000 1.0
C      1  0.5730720000000  0.5553050000000  0.5542070000000 1.0
C      1  0.4919680000000  0.5487380000000  0.5854380000000 1.0
C      1  0.4176470000000  0.5506180000000  0.5341410000000 1.0
C      1  0.4307660000000  0.5497830000000  0.4475060000000 1.0
C      1  0.5132140000000  0.5514190000000  0.4124770000000 1.0
C      1  0.5837920000000  0.5527280000000  0.4665610000000 1.0
C      1  0.4270660000000  0.4464210000000  0.5551560000000 1.0
C      1  0.5107650000000  0.4484510000000  0.5893280000000 1.0
C      1  0.5838020000000  0.4478220000000  0.5329000000000 1.0
C      1  0.5710860000000  0.4475960000000  0.4478290000000 1.0
C      1  0.4890610000000  0.4490700000000  0.4086410000000 1.0
C      1  0.4132470000000  0.4487240000000  0.4679130000000 1.0
C      1  0.4605960000000  0.5939610000000  0.4506550000000 1.0
C      1  0.5219890000000  0.5956130000000  0.4412260000000 1.0
C      1  0.5551960000000  0.5922280000000  0.4850810000000 1.0
C      1  0.5384450000000  0.5948140000000  0.5483260000000 1.0
C      1  0.4801010000000  0.5910950000000  0.5563520000000 1.0
C      1  0.4401660000000  0.5977620000000  0.5098260000000 1.0
C      1  0.5388680000000  0.4047940000000  0.4521790000000 1.0
C      1  0.4762310000000  0.4060430000000  0.4399470000000 1.0
C      1  0.4400090000000  0.4025120000000  0.4901410000000 1.0
C      1  0.4610260000000  0.4057790000000  0.5485140000000 1.0
C      1  0.5232060000000  0.4069380000000  0.5568800000000 1.0
C      1  0.5591640000000  0.4013060000000  0.5082890000000 1.0
C      1  0.5225760000000  0.4742370000000  0.5946260000000 1.0
C      1  0.4269140000000  0.4726120000000  0.5670240000000 1.0
C      1  0.4038000000000  0.4751390000000  0.4730090000000 1.0
C      1  0.4800400000000  0.4761370000000  0.4051050000000 1.0
C      1  0.5697820000000  0.4742210000000  0.4359930000000 1.0
C      1  0.5892540000000  0.4754270000000  0.5275960000000 1.0
C      1  0.4816570000000  0.5224330000000  0.5901960000000 1.0
C      1  0.5741080000000  0.5288240000000  0.5667520000000 1.0
C      1  0.5921380000000  0.5260390000000  0.4733270000000 1.0
C      1  0.5237080000000  0.5253270000000  0.4075220000000 1.0
C      1  0.4306310000000  0.5236630000000  0.4362870000000 1.0
C      1  0.4110470000000  0.5235050000000  0.5285670000000 1.0
C      1  0.5530940000000  0.5312430000000  0.4799390000000 1.0
C      1  0.5521920000000  0.5283820000000  0.5336770000000 1.0
C      1  0.4951220000000  0.5244410000000  0.5526360000000 1.0
C      1  0.4495510000000  0.5307600000000  0.5206410000000 1.0
C      1  0.4563030000000  0.5258720000000  0.4667780000000 1.0
C      1  0.5084960000000  0.5280040000000  0.4442820000000 1.0
C      1  0.4434450000000  0.4752710000000  0.4770760000000 1.0
C      1  0.4520210000000  0.4709490000000  0.5360300000000 1.0
C      1  0.5034520000000  0.4736880000000  0.5592590000000 1.0
C      1  0.5504540000000  0.4678900000000  0.5217180000000 1.0
C      1  0.5435800000000  0.4727930000000  0.4661460000000 1.0
C      1  0.4926730000000  0.4699360000000  0.4425260000000 1.0
C      1  0.4898410000000  0.4366770000000  0.5651570000000 1.0
C      1  0.4380310000000  0.4330580000000  0.5257990000000 1.0
C      1  0.4467190000000  0.4440400000000  0.4640330000000 1.0
C      1  0.5056370000000  0.4390620000000  0.4366200000000 1.0
C      1  0.5562510000000  0.4362380000000  0.4762940000000 1.0
C      1  0.5516510000000  0.4392410000000  0.5399920000000 1.0
C      1  0.5097930000000  0.5607800000000  0.5590520000000 1.0
C      1  0.5603620000000  0.5663950000000  0.5246050000000 1.0
C      1  0.5534110000000  0.5685780000000  0.4607050000000 1.0
C      1  0.4923660000000  0.5636520000000  0.4364790000000 1.0
C      1  0.4405630000000  0.5660760000000  0.4757630000000 1.0
C      1  0.4500480000000  0.5606380000000  0.5368760000000 1.0
C      1  0.4527360000000  0.5146050000000  0.4205130000000 1.0
C      1  0.5473550000000  0.5143260000000  0.4203410000000 1.0
C      1  0.5960200000000  0.5144180000000  0.4992290000000 1.0
C      1  0.5510320000000  0.5117010000000  0.5774850000000 1.0
C      1  0.4561920000000  0.5120560000000  0.5816250000000 1.0
C      1  0.4078530000000  0.5133710000000  0.5019220000000 1.0
C      1  0.5489740000000  0.4855610000000  0.4196120000000 1.0
C      1  0.4544500000000  0.4857600000000  0.4147490000000 1.0
C      1  0.4043050000000  0.4849150000000  0.5001280000000 1.0
C      1  0.4462070000000  0.4830280000000  0.5861540000000 1.0
C      1  0.5487880000000  0.4813420000000  0.5852220000000 1.0
C      1  0.5921490000000  0.4862870000000  0.5007790000000 1.0
C      1  0.5325150000000  0.6076410000000  0.4911500000000 1.0
C      1  0.5214320000000  0.6050340000000  0.5215590000000 1.0
C      1  0.4885510000000  0.6017220000000  0.5267380000000 1.0
C      1  0.4663070000000  0.6067530000000  0.5065540000000 1.0
C      1  0.4775500000000  0.6053700000000  0.4766910000000 1.0
C      1  0.5106050000000  0.6056260000000  0.4702760000000 1.0
C      1  0.4662680000000  0.3944930000000  0.4925020000000 1.0
C      1  0.4784900000000  0.3956680000000  0.5217880000000 1.0
C      1  0.5118840000000  0.3980130000000  0.5277830000000 1.0
C      1  0.5327430000000  0.3928090000000  0.5062360000000 1.0
C      1  0.5192900000000  0.3968470000000  0.4770960000000 1.0
C      1  0.4869790000000  0.3991380000000  0.4705410000000 1.0
C      1  0.4404300000000  0.4775380000000  0.4432560000000 1.0
C      1  0.5175090000000  0.4754890000000  0.4199280000000 1.0
C      1  0.5734210000000  0.4776260000000  0.4754940000000 1.0
C      1  0.5566010000000  0.4813370000000  0.5520840000000 1.0
C      1  0.4791010000000  0.4793430000000  0.5807350000000 1.0
C      1  0.4206360000000  0.4731630000000  0.5252100000000 1.0
C      1  0.5598420000000  0.5225210000000  0.4501840000000 1.0
C      1  0.4842060000000  0.5217310000000  0.4238030000000 1.0
C      1  0.4267080000000  0.5214540000000  0.4759640000000 1.0
C      1  0.4436940000000  0.5178270000000  0.5509660000000 1.0
C      1  0.5182650000000  0.5194020000000  0.5726640000000 1.0
C      1  0.5850630000000  0.5262340000000  0.5262850000000 1.0
C      1  0.4971940000000  0.4278570000000  0.5348420000000 1.0
C      1  0.4696720000000  0.4276880000000  0.5144650000000 1.0
C      1  0.4740870000000  0.4438690000000  0.4848770000000 1.0
C      1  0.4996110000000  0.4304980000000  0.4690670000000 1.0
C      1  0.5277520000000  0.4278870000000  0.4880980000000 1.0
C      1  0.5243300000000  0.4377320000000  0.5191700000000 1.0
C      1  0.5028330000000  0.5710550000000  0.5302620000000 1.0
C      1  0.5314010000000  0.5738750000000  0.5122920000000 1.0
C      1  0.5267140000000  0.5644110000000  0.4813760000000 1.0
C      1  0.4990640000000  0.5739270000000  0.4660330000000 1.0
C      1  0.4711460000000  0.5731740000000  0.4855760000000 1.0
C      1  0.4763660000000  0.5596140000000  0.5144560000000 1.0
C      1  0.5030900000000  0.5160910000000  0.4705210000000 1.0
C      1  0.5208910000000  0.5338640000000  0.4859280000000 1.0
C      1  0.5406620000000  0.5218490000000  0.5085720000000 1.0
C      1  0.4982660000000  0.5119980000000  0.5263540000000 1.0
C      1  0.4779360000000  0.5259440000000  0.5099610000000 1.0
C      1  0.4752810000000  0.5117750000000  0.4842040000000 1.0
C      1  0.4972660000000  0.4830500000000  0.4675370000000 1.0
C      1  0.4732350000000  0.4776770000000  0.4884760000000 1.0
C      1  0.4714250000000  0.4760800000000  0.5187290000000 1.0
C      1  0.4966460000000  0.4816100000000  0.5314310000000 1.0
C      1  0.5196280000000  0.4685690000000  0.5161700000000 1.0
C      1  0.5249050000000  0.4841190000000  0.4799430000000 1.0
C      1  0.5800680000000  0.5016650000000  0.5471810000000 1.0
C      1  0.4204750000000  0.4973700000000  0.5474040000000 1.0
C      1  0.5020610000000  0.5010760000000  0.4078190000000 1.0
C      1  0.5837610000000  0.5000830000000  0.4530860000000 1.0
C      1  0.5033670000000  0.4978520000000  0.5911100000000 1.0
C      1  0.4183250000000  0.4983650000000  0.4553980000000 1.0
C      1  0.5218130000000  0.4997100000000  0.5066690000000 1.0
END
