TITL C-3289335-9438-163 0.00171240581813433 125000 -247.733956911739 0 0 47 (C1) n - 1
REM
REM in /nfs/bkarasulu/CARBON/AIRSS/Generating-Clusters/AIREBO/with-SteepDescent/Higher-Symm/SD-CG/HFTN-CG
REM
REM
REM
REM
REM
REM ./C.cell (b20cbc046b6831c77cfcea5457e17084)
REM
REM compiler GCC version 9.2.1 20190827 (Red Hat 9.2.1-1)
REM options -cpp -mtune=generic -march=x86-64 -g -O0 -fpre-include=/usr/include/finclude/math-vector-fortran.h
REM seed -667702303 -1833639375 830417197 540289116 144770470 1148492672 -1875491976 -2056904055 815268940 -1755741159 492183765 -968017736 562289074 -1975201638 507354893 480418420 1369009333 592463503 -1308549850 1657288664 402145771 -1472999061 712206442 -1347672489 1955182299 129734755 -1784898158 -1973798415 -976765895 1486379378 296908918 383877465 831524793
REM
CELL 1.54180   50.00000   50.00000   50.00000   90.00000   90.00000   90.00000
LATT -1
SFAC C  
C      1  0.5116190000000  0.4760740000000  0.4458320000000 1.0
C      1  0.5268480000000  0.4769470000000  0.4751800000000 1.0
C      1  0.5358260000000  0.4715950000000  0.5270450000000 1.0
C      1  0.5056010000000  0.4815370000000  0.5290360000000 1.0
C      1  0.4756490000000  0.4800040000000  0.5383830000000 1.0
C      1  0.4576300000000  0.4741600000000  0.5120280000000 1.0
C      1  0.4748840000000  0.4792160000000  0.4845940000000 1.0
C      1  0.5031780000000  0.5351350000000  0.5625540000000 1.0
C      1  0.4382210000000  0.5462350000000  0.5412840000000 1.0
C      1  0.4370380000000  0.5389580000000  0.4823370000000 1.0
C      1  0.4685370000000  0.5305900000000  0.4408970000000 1.0
C      1  0.5317140000000  0.5297900000000  0.4326570000000 1.0
C      1  0.5706810000000  0.5222200000000  0.4892120000000 1.0
C      1  0.5628330000000  0.5240030000000  0.5431340000000 1.0
C      1  0.5043910000000  0.5014580000000  0.4386260000000 1.0
C      1  0.5448550000000  0.5007810000000  0.4674630000000 1.0
C      1  0.5530880000000  0.4915510000000  0.5221540000000 1.0
C      1  0.5206090000000  0.5040460000000  0.5447570000000 1.0
C      1  0.4668290000000  0.5070180000000  0.5493300000000 1.0
C      1  0.4418410000000  0.4993650000000  0.5046510000000 1.0
C      1  0.4641050000000  0.5015090000000  0.4679170000000 1.0
C      1  0.5326480000000  0.4434860000000  0.5235490000000 1.0
C      1  0.5074100000000  0.4349990000000  0.5343290000000 1.0
C      1  0.4832300000000  0.4484350000000  0.5282310000000 1.0
C      1  0.4695600000000  0.4435910000000  0.5014640000000 1.0
C      1  0.4819630000000  0.4489570000000  0.4744120000000 1.0
C      1  0.5051010000000  0.4479720000000  0.4587310000000 1.0
C      1  0.5314820000000  0.4442950000000  0.4750550000000 1.0
C      1  0.4159250000000  0.5020880000000  0.5059760000000 1.0
C      1  0.4385120000000  0.5132410000000  0.4672960000000 1.0
C      1  0.4823600000000  0.5126390000000  0.4245550000000 1.0
C      1  0.5490210000000  0.5077860000000  0.4412050000000 1.0
C      1  0.5764770000000  0.5026550000000  0.5077040000000 1.0
C      1  0.5443220000000  0.5068640000000  0.5580140000000 1.0
C      1  0.4825660000000  0.5182760000000  0.5699300000000 1.0
C      1  0.5383230000000  0.5279110000000  0.4846560000000 1.0
C      1  0.5415640000000  0.5230840000000  0.5166160000000 1.0
C      1  0.5125190000000  0.5328790000000  0.5311500000000 1.0
C      1  0.4544670000000  0.5259110000000  0.5325970000000 1.0
C      1  0.4630170000000  0.5255070000000  0.4996820000000 1.0
C      1  0.4817840000000  0.5299110000000  0.4716330000000 1.0
C      1  0.5137950000000  0.5251260000000  0.4611790000000 1.0
C      1  0.4930880000000  0.5104070000000  0.5045760000000 1.0
C      1  0.5411770000000  0.4329120000000  0.4985260000000 1.0
C      1  0.5058870000000  0.4831760000000  0.4961480000000 1.0
C      1  0.4859440000000  0.5730170000000  0.5109700000000 1.0
C      1  0.4886880000000  0.5433800000000  0.5130430000000 1.0
END
