TITL C-3289334-2237-51 -4.08567453276834e-05 125000 -363.83886579997 0 0 75 (C1) n - 1
REM
REM in /nfs/bkarasulu/CARBON/AIRSS/Generating-Clusters/AIREBO/with-SteepDescent/Higher-Symm/SD-CG/HFTN-CG
REM
REM
REM
REM
REM
REM ./C.cell (b20cbc046b6831c77cfcea5457e17084)
REM
REM compiler GCC version 9.2.1 20190827 (Red Hat 9.2.1-1)
REM options -cpp -mtune=generic -march=x86-64 -g -O0 -fpre-include=/usr/include/finclude/math-vector-fortran.h
REM seed 17607651 1843143685 1378265950 58893926 -1599950330 1247773449 550490089 -1784036448 1076785065 -1241416826 1541452144 -231066375 1594478104 -792494736 967986262 736050833 1887694345 -1475086793 -740559838 -720091579 1767753277 -1113449071 882001026 1677141367 -1709182113 1246786684 634769761 -2114719936 -892944613 -977433775 185932211 1187255114 -1284827571
REM
CELL 1.54180   50.00000   50.00000   50.00000   90.00000   90.00000   90.00000
LATT -1
SFAC C  
C      1  0.4695170000000  0.5317080000000  0.4250820000000 1.0
C      1  0.5734990000000  0.5232550000000  0.5175210000000 1.0
C      1  0.4552750000000  0.5332630000000  0.5594100000000 1.0
C      1  0.5293310000000  0.4643760000000  0.4313580000000 1.0
C      1  0.4271450000000  0.4629380000000  0.5132180000000 1.0
C      1  0.5382410000000  0.4642140000000  0.5599620000000 1.0
C      1  0.5117250000000  0.4530370000000  0.4452440000000 1.0
C      1  0.5382940000000  0.4491040000000  0.5345140000000 1.0
C      1  0.4508700000000  0.4496000000000  0.5245310000000 1.0
C      1  0.4898500000000  0.5496510000000  0.4411400000000 1.0
C      1  0.4552730000000  0.5446120000000  0.5320530000000 1.0
C      1  0.5486580000000  0.5464700000000  0.5176060000000 1.0
C      1  0.5093170000000  0.5690200000000  0.5307700000000 1.0
C      1  0.4614980000000  0.5659760000000  0.4921150000000 1.0
C      1  0.5123490000000  0.5854550000000  0.4793720000000 1.0
C      1  0.4850020000000  0.4246120000000  0.5338840000000 1.0
C      1  0.5294680000000  0.4192270000000  0.4956110000000 1.0
C      1  0.4783020000000  0.4373540000000  0.4776110000000 1.0
C      1  0.4633260000000  0.4597330000000  0.4599110000000 1.0
C      1  0.5556280000000  0.4411250000000  0.4980220000000 1.0
C      1  0.4741970000000  0.4426290000000  0.5561390000000 1.0
C      1  0.5356980000000  0.5459950000000  0.4521020000000 1.0
C      1  0.4390770000000  0.5436930000000  0.4908090000000 1.0
C      1  0.5264570000000  0.5536780000000  0.5517440000000 1.0
C      1  0.4592940000000  0.4721560000000  0.5482090000000 1.0
C      1  0.4820150000000  0.4796770000000  0.4461150000000 1.0
C      1  0.5578520000000  0.4701380000000  0.5156680000000 1.0
C      1  0.5439970000000  0.5255630000000  0.5440160000000 1.0
C      1  0.5161390000000  0.5292350000000  0.4341430000000 1.0
C      1  0.4367520000000  0.5228730000000  0.5149150000000 1.0
C      1  0.5107310000000  0.4364760000000  0.4727940000000 1.0
C      1  0.5176400000000  0.4216600000000  0.5273050000000 1.0
C      1  0.4651200000000  0.4232880000000  0.5064670000000 1.0
C      1  0.4840110000000  0.5719770000000  0.4662790000000 1.0
C      1  0.4762220000000  0.5705860000000  0.5229760000000 1.0
C      1  0.5286660000000  0.5721330000000  0.5068740000000 1.0
C      1  0.5092520000000  0.5287430000000  0.5632600000000 1.0
C      1  0.4399090000000  0.5266370000000  0.4613350000000 1.0
C      1  0.5632060000000  0.5210490000000  0.4791060000000 1.0
C      1  0.4956990000000  0.4667100000000  0.5636200000000 1.0
C      1  0.5725840000000  0.4783180000000  0.4709340000000 1.0
C      1  0.4352050000000  0.4715670000000  0.4750870000000 1.0
C      1  0.5342540000000  0.4945410000000  0.5541570000000 1.0
C      1  0.4313700000000  0.4926030000000  0.5022850000000 1.0
C      1  0.5297150000000  0.4981610000000  0.4308090000000 1.0
C      1  0.4696410000000  0.5032590000000  0.5573360000000 1.0
C      1  0.5727980000000  0.4952050000000  0.4980890000000 1.0
C      1  0.4614800000000  0.5067490000000  0.4432790000000 1.0
C      1  0.4784990000000  0.5093230000000  0.4925660000000 1.0
C      1  0.5226780000000  0.5096380000000  0.4683450000000 1.0
C      1  0.5190430000000  0.5034590000000  0.5168830000000 1.0
C      1  0.5300600000000  0.4864110000000  0.4892310000000 1.0
C      1  0.4945160000000  0.5034580000000  0.4653570000000 1.0
C      1  0.4813360000000  0.4912850000000  0.5212510000000 1.0
C      1  0.4618990000000  0.4798200000000  0.4944700000000 1.0
C      1  0.5458870000000  0.4880060000000  0.4589400000000 1.0
C      1  0.5082280000000  0.4793990000000  0.5383490000000 1.0
C      1  0.5341320000000  0.5254790000000  0.4961710000000 1.0
C      1  0.4735580000000  0.5302230000000  0.4647260000000 1.0
C      1  0.4950490000000  0.5167220000000  0.5391670000000 1.0
C      1  0.5088310000000  0.4531630000000  0.5180180000000 1.0
C      1  0.4798480000000  0.4539240000000  0.5072640000000 1.0
C      1  0.5269190000000  0.4581000000000  0.4926970000000 1.0
C      1  0.4855390000000  0.5388830000000  0.5200280000000 1.0
C      1  0.5221210000000  0.5527090000000  0.4797320000000 1.0
C      1  0.4898590000000  0.5474570000000  0.4891030000000 1.0
C      1  0.5618560000000  0.5379810000000  0.4572960000000 1.0
C      1  0.5165800000000  0.5516850000000  0.5843900000000 1.0
C      1  0.4146790000000  0.5450510000000  0.4690820000000 1.0
C      1  0.4334510000000  0.4536430000000  0.4484000000000 1.0
C      1  0.4886140000000  0.4459980000000  0.5869550000000 1.0
C      1  0.5757660000000  0.4508550000000  0.4754780000000 1.0
C      1  0.4968230000000  0.5025360000000  0.4257410000000 1.0
C      1  0.4415210000000  0.5000860000000  0.5397190000000 1.0
C      1  0.5611570000000  0.4973530000000  0.5358550000000 1.0
END
