TITL C-3289330-4660-377 0.000675984259950555 125000 -904.792346124267 0 0 163 (C1) n - 1
REM
REM in /nfs/bkarasulu/CARBON/AIRSS/Generating-Clusters/AIREBO/with-SteepDescent/Higher-Symm/SD-CG/HFTN-CG
REM
REM
REM
REM
REM
REM ./C.cell (b20cbc046b6831c77cfcea5457e17084)
REM
REM compiler GCC version 9.2.1 20190827 (Red Hat 9.2.1-1)
REM options -cpp -mtune=generic -march=x86-64 -g -O0 -fpre-include=/usr/include/finclude/math-vector-fortran.h
REM seed -591046719 2074967889 878684061 2121254082 -390045274 669561034 880369827 1628114951 -346295764 -730162010 1200671544 -1031044363 1612290010 -1309112641 -1190780646 580818098 27408286 -1682677133 580475020 1461640168 310747887 -507193796 -2048858979 1477289681 -1844580186 -1007358739 249813677 1359813156 1963939072 -1709372158 -1003650737 -911193263 115634997
REM
CELL 1.54180   50.00000   50.00000   50.00000   90.00000   90.00000   90.00000
LATT -1
SFAC C  
C      1  0.5612300000000  0.5357570000000  0.4910460000000 1.0
C      1  0.4398630000000  0.4672310000000  0.4940370000000 1.0
C      1  0.4385050000000  0.5331260000000  0.5059700000000 1.0
C      1  0.5583060000000  0.4640960000000  0.5115490000000 1.0
C      1  0.5876700000000  0.5084990000000  0.5487550000000 1.0
C      1  0.4079010000000  0.4866620000000  0.5563160000000 1.0
C      1  0.4080100000000  0.5119950000000  0.4450210000000 1.0
C      1  0.5845490000000  0.4906350000000  0.4518620000000 1.0
C      1  0.5447000000000  0.5539510000000  0.5846980000000 1.0
C      1  0.4601610000000  0.4549310000000  0.5699510000000 1.0
C      1  0.4601960000000  0.5442170000000  0.4290990000000 1.0
C      1  0.5646590000000  0.4459050000000  0.4146420000000 1.0
C      1  0.5775710000000  0.4938510000000  0.5758300000000 1.0
C      1  0.4127350000000  0.5153540000000  0.5739900000000 1.0
C      1  0.4109650000000  0.4878190000000  0.4212220000000 1.0
C      1  0.5775850000000  0.5050090000000  0.4235950000000 1.0
C      1  0.4910390000000  0.5339520000000  0.5905580000000 1.0
C      1  0.5219620000000  0.4548390000000  0.5972800000000 1.0
C      1  0.5158690000000  0.5477870000000  0.4109040000000 1.0
C      1  0.4892410000000  0.4674210000000  0.4100120000000 1.0
C      1  0.4332150000000  0.5306390000000  0.5964380000000 1.0
C      1  0.5675270000000  0.4685620000000  0.5954830000000 1.0
C      1  0.5642710000000  0.5306500000000  0.4063390000000 1.0
C      1  0.4321630000000  0.4702160000000  0.4012780000000 1.0
C      1  0.4857820000000  0.6043670000000  0.4597420000000 1.0
C      1  0.5148020000000  0.3959860000000  0.4667290000000 1.0
C      1  0.5123030000000  0.6053160000000  0.5293890000000 1.0
C      1  0.4780050000000  0.4071820000000  0.5284850000000 1.0
C      1  0.5414020000000  0.6104770000000  0.5303960000000 1.0
C      1  0.4751370000000  0.4213490000000  0.5542790000000 1.0
C      1  0.4711100000000  0.5827620000000  0.4462780000000 1.0
C      1  0.5431930000000  0.3885810000000  0.4687200000000 1.0
C      1  0.5748570000000  0.5746210000000  0.4720640000000 1.0
C      1  0.4279960000000  0.4279630000000  0.4677710000000 1.0
C      1  0.4293830000000  0.5731160000000  0.5315010000000 1.0
C      1  0.5738340000000  0.4248200000000  0.5285290000000 1.0
C      1  0.4076710000000  0.5414970000000  0.4620160000000 1.0
C      1  0.5890970000000  0.4617120000000  0.4673540000000 1.0
C      1  0.5875120000000  0.5395170000000  0.5371910000000 1.0
C      1  0.4084790000000  0.4589910000000  0.5364970000000 1.0
C      1  0.5617840000000  0.5639870000000  0.4437630000000 1.0
C      1  0.4401160000000  0.4389600000000  0.4375860000000 1.0
C      1  0.4430980000000  0.5629820000000  0.5613570000000 1.0
C      1  0.5611210000000  0.4354070000000  0.5578730000000 1.0
C      1  0.5407930000000  0.5174140000000  0.5069880000000 1.0
C      1  0.4724010000000  0.4753930000000  0.4997270000000 1.0
C      1  0.4704020000000  0.5234620000000  0.4990670000000 1.0
C      1  0.5353120000000  0.4716680000000  0.4910090000000 1.0
C      1  0.6018610000000  0.4608510000000  0.5408210000000 1.0
C      1  0.3986800000000  0.5399780000000  0.5418120000000 1.0
C      1  0.3978310000000  0.4618070000000  0.4594350000000 1.0
C      1  0.6008680000000  0.5371960000000  0.4608010000000 1.0
C      1  0.4906730000000  0.6002520000000  0.5092610000000 1.0
C      1  0.5005860000000  0.4007930000000  0.5115850000000 1.0
C      1  0.5011760000000  0.5992080000000  0.4827490000000 1.0
C      1  0.4918860000000  0.3989790000000  0.4846920000000 1.0
C      1  0.4576540000000  0.5450640000000  0.5291610000000 1.0
C      1  0.5282050000000  0.4548110000000  0.5257370000000 1.0
C      1  0.5300360000000  0.5449250000000  0.4810110000000 1.0
C      1  0.4573820000000  0.4549620000000  0.4696220000000 1.0
C      1  0.5582300000000  0.4106410000000  0.4795950000000 1.0
C      1  0.4416090000000  0.5842940000000  0.4843130000000 1.0
C      1  0.4405450000000  0.4148960000000  0.5158820000000 1.0
C      1  0.5569710000000  0.5890420000000  0.5197430000000 1.0
C      1  0.4461410000000  0.5835240000000  0.5118020000000 1.0
C      1  0.5573520000000  0.4148690000000  0.5082920000000 1.0
C      1  0.5580510000000  0.5862840000000  0.4908910000000 1.0
C      1  0.4426900000000  0.4130260000000  0.4878690000000 1.0
C      1  0.4709420000000  0.4247180000000  0.4772370000000 1.0
C      1  0.5272920000000  0.5782130000000  0.4844640000000 1.0
C      1  0.5263690000000  0.4226210000000  0.5155110000000 1.0
C      1  0.4752910000000  0.5715020000000  0.5170530000000 1.0
C      1  0.4412990000000  0.4986520000000  0.5744040000000 1.0
C      1  0.5527200000000  0.5171150000000  0.5734820000000 1.0
C      1  0.5531210000000  0.4815840000000  0.4283340000000 1.0
C      1  0.4406280000000  0.5006660000000  0.4252870000000 1.0
C      1  0.5879960000000  0.5448140000000  0.5094560000000 1.0
C      1  0.4112030000000  0.4561280000000  0.5085990000000 1.0
C      1  0.4105360000000  0.5445920000000  0.4903680000000 1.0
C      1  0.5865710000000  0.4562680000000  0.4943260000000 1.0
C      1  0.6023110000000  0.5108790000000  0.4701560000000 1.0
C      1  0.3982690000000  0.4886100000000  0.4674220000000 1.0
C      1  0.4001800000000  0.5128550000000  0.5360560000000 1.0
C      1  0.6040020000000  0.4871810000000  0.5310820000000 1.0
C      1  0.5579470000000  0.4865460000000  0.4699450000000 1.0
C      1  0.4315240000000  0.5099470000000  0.4671100000000 1.0
C      1  0.4326650000000  0.4905700000000  0.5338330000000 1.0
C      1  0.5600600000000  0.5108930000000  0.5335470000000 1.0
C      1  0.5214250000000  0.4256830000000  0.4819200000000 1.0
C      1  0.4812950000000  0.5600350000000  0.4879870000000 1.0
C      1  0.4779340000000  0.4334780000000  0.5081620000000 1.0
C      1  0.5199830000000  0.5743970000000  0.5175040000000 1.0
C      1  0.5668410000000  0.4554790000000  0.4452930000000 1.0
C      1  0.4327890000000  0.5436630000000  0.4460830000000 1.0
C      1  0.4333930000000  0.4561110000000  0.5529250000000 1.0
C      1  0.5621900000000  0.5457750000000  0.5577800000000 1.0
C      1  0.4844310000000  0.4344770000000  0.4103940000000 1.0
C      1  0.5118910000000  0.5720510000000  0.4302240000000 1.0
C      1  0.5263140000000  0.4254360000000  0.5806940000000 1.0
C      1  0.4869980000000  0.5672020000000  0.5901990000000 1.0
C      1  0.5337480000000  0.5776150000000  0.4510710000000 1.0
C      1  0.4725950000000  0.4290210000000  0.4360050000000 1.0
C      1  0.4751990000000  0.5735730000000  0.5651020000000 1.0
C      1  0.5337620000000  0.4175930000000  0.5483790000000 1.0
C      1  0.4977390000000  0.4310560000000  0.4580390000000 1.0
C      1  0.4967570000000  0.5659950000000  0.4600820000000 1.0
C      1  0.4989010000000  0.4261240000000  0.5655590000000 1.0
C      1  0.4964800000000  0.5676750000000  0.5416680000000 1.0
C      1  0.4683940000000  0.5027510000000  0.4539180000000 1.0
C      1  0.5199910000000  0.5000900000000  0.4584130000000 1.0
C      1  0.5205000000000  0.4979050000000  0.5401330000000 1.0
C      1  0.4695790000000  0.4969930000000  0.5463130000000 1.0
C      1  0.5029580000000  0.4601350000000  0.4473780000000 1.0
C      1  0.5160050000000  0.5393730000000  0.4522960000000 1.0
C      1  0.5162390000000  0.4529940000000  0.5539660000000 1.0
C      1  0.5033490000000  0.5382040000000  0.5474880000000 1.0
C      1  0.5406140000000  0.4902670000000  0.5616200000000 1.0
C      1  0.4526320000000  0.5246060000000  0.5555770000000 1.0
C      1  0.4524870000000  0.4759960000000  0.4453910000000 1.0
C      1  0.5420230000000  0.5085210000000  0.4406580000000 1.0
C      1  0.4211150000000  0.4914800000000  0.4892820000000 1.0
C      1  0.5758910000000  0.5058030000000  0.4877500000000 1.0
C      1  0.5765740000000  0.4913480000000  0.5144100000000 1.0
C      1  0.4209420000000  0.5087930000000  0.5123710000000 1.0
C      1  0.5811880000000  0.5366330000000  0.4381480000000 1.0
C      1  0.4120150000000  0.4582090000000  0.4348330000000 1.0
C      1  0.4130880000000  0.5478660000000  0.5667080000000 1.0
C      1  0.5824030000000  0.4614140000000  0.5630490000000 1.0
C      1  0.4585070000000  0.5408700000000  0.5821220000000 1.0
C      1  0.5436130000000  0.4605140000000  0.5726840000000 1.0
C      1  0.5420610000000  0.5396950000000  0.4304490000000 1.0
C      1  0.4561780000000  0.4612850000000  0.4175530000000 1.0
C      1  0.5184920000000  0.5130600000000  0.4852030000000 1.0
C      1  0.4848660000000  0.4765860000000  0.4680630000000 1.0
C      1  0.4831610000000  0.5222150000000  0.5306050000000 1.0
C      1  0.5158710000000  0.4837680000000  0.5128130000000 1.0
C      1  0.4598360000000  0.4733250000000  0.5281500000000 1.0
C      1  0.5319780000000  0.5297790000000  0.5371100000000 1.0
C      1  0.5315060000000  0.4681020000000  0.4591210000000 1.0
C      1  0.4583190000000  0.5260170000000  0.4711720000000 1.0
C      1  0.5469410000000  0.4380310000000  0.4628810000000 1.0
C      1  0.4556010000000  0.5594800000000  0.4657260000000 1.0
C      1  0.4557900000000  0.4399300000000  0.5331470000000 1.0
C      1  0.5470150000000  0.5599100000000  0.5323480000000 1.0
C      1  0.4088570000000  0.5562140000000  0.5206540000000 1.0
C      1  0.5937580000000  0.4429480000000  0.5202420000000 1.0
C      1  0.5941200000000  0.5561470000000  0.4811890000000 1.0
C      1  0.4080320000000  0.4446100000000  0.4793480000000 1.0
C      1  0.5081790000000  0.4791560000000  0.6044180000000 1.0
C      1  0.5000850000000  0.5011840000000  0.5894830000000 1.0
C      1  0.4985890000000  0.5001140000000  0.4104480000000 1.0
C      1  0.5051080000000  0.5241390000000  0.3981960000000 1.0
C      1  0.4478530000000  0.4760450000000  0.5867040000000 1.0
C      1  0.5462140000000  0.5717380000000  0.6031600000000 1.0
C      1  0.5429850000000  0.4523380000000  0.4030620000000 1.0
C      1  0.4473160000000  0.5232870000000  0.4127040000000 1.0
C      1  0.4851380000000  0.5355890000000  0.4384870000000 1.0
C      1  0.5216130000000  0.4692710000000  0.4204280000000 1.0
C      1  0.5214940000000  0.5316620000000  0.5755340000000 1.0
C      1  0.4852100000000  0.4630490000000  0.5603990000000 1.0
C      1  0.4973640000000  0.4930640000000  0.5601700000000 1.0
C      1  0.4966560000000  0.5051230000000  0.4409800000000 1.0
C      1  0.4928070000000  0.5009870000000  0.4984500000000 1.0
END
