TITL C-3289328-6581-333 -9.90387999103705e-06 125000 -242.976510757784 0 0 43 (C1) n - 1
REM
REM in /nfs/bkarasulu/CARBON/AIRSS/Generating-Clusters/AIREBO/with-SteepDescent/Higher-Symm/SD-CG/HFTN-CG
REM
REM
REM
REM
REM
REM ./C.cell (b20cbc046b6831c77cfcea5457e17084)
REM
REM compiler GCC version 9.2.1 20190827 (Red Hat 9.2.1-1)
REM options -cpp -mtune=generic -march=x86-64 -g -O0 -fpre-include=/usr/include/finclude/math-vector-fortran.h
REM seed 536736868 213337248 -413454888 461083793 -1676048686 653032035 1434758282 1448647752 297703647 511748230 -510566135 -2013847311 1118343537 1867115036 1373334991 -987731265 -1070608208 -1593298548 -1694520872 677457348 1134978120 -292318773 -1011847337 426174563 359198144 -1179272856 342529626 927782733 548279563 -1671561395 -2133138250 828451355 -1551048483
REM
CELL 1.54180   50.00000   50.00000   50.00000   90.00000   90.00000   90.00000
LATT -1
SFAC C  
C      1  0.4826290000000  0.5155050000000  0.4548520000000 1.0
C      1  0.5127980000000  0.4488010000000  0.4817830000000 1.0
C      1  0.4509000000000  0.4780790000000  0.5147690000000 1.0
C      1  0.4553160000000  0.4729890000000  0.5424840000000 1.0
C      1  0.5286670000000  0.5193820000000  0.5420060000000 1.0
C      1  0.5442930000000  0.4691400000000  0.4539140000000 1.0
C      1  0.5294130000000  0.5478220000000  0.5405900000000 1.0
C      1  0.4735780000000  0.4527560000000  0.5467670000000 1.0
C      1  0.4772740000000  0.5416160000000  0.4647190000000 1.0
C      1  0.4555950000000  0.5434530000000  0.4812960000000 1.0
C      1  0.5402020000000  0.4511800000000  0.4743240000000 1.0
C      1  0.5476960000000  0.5617590000000  0.5252610000000 1.0
C      1  0.5256760000000  0.4949110000000  0.4535030000000 1.0
C      1  0.4687900000000  0.4461290000000  0.4558180000000 1.0
C      1  0.5688690000000  0.4632250000000  0.5148670000000 1.0
C      1  0.5616520000000  0.4794410000000  0.5351500000000 1.0
C      1  0.4769150000000  0.5156220000000  0.5453270000000 1.0
C      1  0.4563010000000  0.4740240000000  0.4458340000000 1.0
C      1  0.4818370000000  0.5431370000000  0.5274970000000 1.0
C      1  0.4985620000000  0.4516660000000  0.5270860000000 1.0
C      1  0.5183380000000  0.5689800000000  0.4802230000000 1.0
C      1  0.5408950000000  0.5713510000000  0.4949610000000 1.0
C      1  0.4420650000000  0.4575970000000  0.4695080000000 1.0
C      1  0.4582670000000  0.5270570000000  0.5101960000000 1.0
C      1  0.4928670000000  0.4373600000000  0.4656970000000 1.0
C      1  0.4358820000000  0.4645770000000  0.4954590000000 1.0
C      1  0.4655980000000  0.4991120000000  0.4395900000000 1.0
C      1  0.5033320000000  0.5589980000000  0.5429390000000 1.0
C      1  0.4953890000000  0.4296560000000  0.5513090000000 1.0
C      1  0.4979260000000  0.5604880000000  0.4647750000000 1.0
C      1  0.4309050000000  0.5449440000000  0.5004570000000 1.0
C      1  0.5596570000000  0.4480920000000  0.4943040000000 1.0
C      1  0.5698010000000  0.5777920000000  0.5079240000000 1.0
C      1  0.4595050000000  0.4973320000000  0.5566820000000 1.0
C      1  0.5502600000000  0.5019760000000  0.5446100000000 1.0
C      1  0.5485920000000  0.4905950000000  0.4304200000000 1.0
C      1  0.4960310000000  0.5318900000000  0.4986780000000 1.0
C      1  0.5344060000000  0.5007390000000  0.5039890000000 1.0
C      1  0.5036140000000  0.5081940000000  0.5341240000000 1.0
C      1  0.5040540000000  0.4645350000000  0.5037970000000 1.0
C      1  0.4679030000000  0.4987060000000  0.5056340000000 1.0
C      1  0.5040060000000  0.5021160000000  0.4678580000000 1.0
C      1  0.5016740000000  0.4984730000000  0.5015930000000 1.0
END
