TITL C-3289335-9438-444 -0.0030801898881802 125000 -910.647142736771 0 0 163 (C1) n - 1
REM
REM in /nfs/bkarasulu/CARBON/AIRSS/Generating-Clusters/AIREBO/with-SteepDescent/Higher-Symm/SD-CG/HFTN-CG
REM
REM
REM
REM
REM
REM ./C.cell (b20cbc046b6831c77cfcea5457e17084)
REM
REM compiler GCC version 9.2.1 20190827 (Red Hat 9.2.1-1)
REM options -cpp -mtune=generic -march=x86-64 -g -O0 -fpre-include=/usr/include/finclude/math-vector-fortran.h
REM seed 1603933477 -1887791542 1616119010 1807737705 -1006443580 -1923460388 2067802870 -52480003 -1854724342 -1349588446 2033749333 110325163 -1556190788 896890615 1684496947 -1919022061 834187028 -815120062 -1585344228 1096313201 576477058 -2115633083 -412809566 -1431435667 -2005288602 -1702779867 1430200217 -2121856859 251082117 40558776 -1531736002 -1012019862 1890162775
REM
CELL 1.54180   50.00000   50.00000   50.00000   90.00000   90.00000   90.00000
LATT -1
SFAC C  
C      1  0.4082410000000  0.5062660000000  0.4476630000000 1.0
C      1  0.5124950000000  0.4590810000000  0.4116550000000 1.0
C      1  0.4545860000000  0.4049120000000  0.5132690000000 1.0
C      1  0.4083660000000  0.4785730000000  0.5494320000000 1.0
C      1  0.5893660000000  0.5189010000000  0.5427680000000 1.0
C      1  0.5894840000000  0.4906040000000  0.4494880000000 1.0
C      1  0.5210080000000  0.5519960000000  0.5922620000000 1.0
C      1  0.4801560000000  0.4546150000000  0.5887920000000 1.0
C      1  0.4832030000000  0.5541480000000  0.4159440000000 1.0
C      1  0.4525500000000  0.5878040000000  0.4870510000000 1.0
C      1  0.5505020000000  0.3983670000000  0.4954700000000 1.0
C      1  0.5547930000000  0.6006010000000  0.5196510000000 1.0
C      1  0.5959580000000  0.5194150000000  0.4588860000000 1.0
C      1  0.4852870000000  0.4566250000000  0.4054060000000 1.0
C      1  0.5560360000000  0.4036960000000  0.5262960000000 1.0
C      1  0.5911210000000  0.4876570000000  0.5378900000000 1.0
C      1  0.4119220000000  0.5102710000000  0.5461770000000 1.0
C      1  0.4096690000000  0.4757750000000  0.4474350000000 1.0
C      1  0.4939410000000  0.5563120000000  0.5963340000000 1.0
C      1  0.5108720000000  0.4506860000000  0.5959930000000 1.0
C      1  0.5104360000000  0.5561800000000  0.4136600000000 1.0
C      1  0.5560710000000  0.5905960000000  0.4874450000000 1.0
C      1  0.4515250000000  0.4003300000000  0.4855290000000 1.0
C      1  0.4517140000000  0.5887880000000  0.5175970000000 1.0
C      1  0.5766860000000  0.4434170000000  0.4818910000000 1.0
C      1  0.4562600000000  0.4983590000000  0.5748640000000 1.0
C      1  0.4898400000000  0.5855380000000  0.4543910000000 1.0
C      1  0.5811640000000  0.5580190000000  0.5125220000000 1.0
C      1  0.4139300000000  0.4436760000000  0.5128470000000 1.0
C      1  0.4184630000000  0.5435950000000  0.4830060000000 1.0
C      1  0.4516260000000  0.5166060000000  0.4232080000000 1.0
C      1  0.5453980000000  0.4945260000000  0.4234270000000 1.0
C      1  0.5456430000000  0.5123070000000  0.5742490000000 1.0
C      1  0.4861450000000  0.4221430000000  0.5495730000000 1.0
C      1  0.5155310000000  0.5903570000000  0.5533290000000 1.0
C      1  0.5214760000000  0.4165900000000  0.4560410000000 1.0
C      1  0.4126310000000  0.4425220000000  0.4855440000000 1.0
C      1  0.5428290000000  0.4813800000000  0.5754300000000 1.0
C      1  0.5174940000000  0.5808560000000  0.4553330000000 1.0
C      1  0.4182940000000  0.5420750000000  0.5108130000000 1.0
C      1  0.5849280000000  0.4467950000000  0.5091940000000 1.0
C      1  0.5809870000000  0.5447470000000  0.4858490000000 1.0
C      1  0.5462400000000  0.5249750000000  0.4292580000000 1.0
C      1  0.4522280000000  0.4896100000000  0.4177020000000 1.0
C      1  0.4564000000000  0.5297200000000  0.5738370000000 1.0
C      1  0.5140980000000  0.4258910000000  0.5506860000000 1.0
C      1  0.4882310000000  0.5843380000000  0.5517150000000 1.0
C      1  0.4889550000000  0.4144170000000  0.4461950000000 1.0
C      1  0.6064620000000  0.5224130000000  0.4889680000000 1.0
C      1  0.5210740000000  0.4781330000000  0.5983020000000 1.0
C      1  0.4785850000000  0.5973130000000  0.5274680000000 1.0
C      1  0.5971860000000  0.4724970000000  0.5143590000000 1.0
C      1  0.4050930000000  0.5191020000000  0.5195640000000 1.0
C      1  0.4021540000000  0.4675410000000  0.4753900000000 1.0
C      1  0.5224800000000  0.5301730000000  0.4084840000000 1.0
C      1  0.4746180000000  0.4824320000000  0.4027350000000 1.0
C      1  0.4789000000000  0.5306000000000  0.5982110000000 1.0
C      1  0.4711410000000  0.3988060000000  0.4616470000000 1.0
C      1  0.5260970000000  0.5940060000000  0.4794450000000 1.0
C      1  0.5247080000000  0.4084080000000  0.5315610000000 1.0
C      1  0.4042060000000  0.5186610000000  0.4743970000000 1.0
C      1  0.4744000000000  0.4850650000000  0.5900940000000 1.0
C      1  0.5243850000000  0.6034650000000  0.5287230000000 1.0
C      1  0.4032230000000  0.4690100000000  0.5211450000000 1.0
C      1  0.6004180000000  0.5354970000000  0.5189670000000 1.0
C      1  0.5892840000000  0.4645330000000  0.4677880000000 1.0
C      1  0.4729900000000  0.5292540000000  0.4098350000000 1.0
C      1  0.5227440000000  0.4846140000000  0.4101860000000 1.0
C      1  0.5271940000000  0.5249540000000  0.5915520000000 1.0
C      1  0.5340840000000  0.3890820000000  0.4715470000000 1.0
C      1  0.4794070000000  0.5997010000000  0.4776540000000 1.0
C      1  0.4777080000000  0.4022540000000  0.5290650000000 1.0
C      1  0.5179600000000  0.5486600000000  0.4801080000000 1.0
C      1  0.5362980000000  0.4778830000000  0.5062490000000 1.0
C      1  0.4841000000000  0.5030280000000  0.5292410000000 1.0
C      1  0.5409100000000  0.4485190000000  0.5087270000000 1.0
C      1  0.4744650000000  0.5465750000000  0.5167530000000 1.0
C      1  0.4667630000000  0.4355790000000  0.4768000000000 1.0
C      1  0.5376350000000  0.5137700000000  0.4885820000000 1.0
C      1  0.4538750000000  0.4725120000000  0.4698710000000 1.0
C      1  0.4576160000000  0.5177310000000  0.5137890000000 1.0
C      1  0.4748650000000  0.4533180000000  0.4525580000000 1.0
C      1  0.5214490000000  0.5243630000000  0.4606160000000 1.0
C      1  0.5124780000000  0.4820860000000  0.5494870000000 1.0
C      1  0.4837150000000  0.5514040000000  0.4784700000000 1.0
C      1  0.4660200000000  0.4709150000000  0.5016480000000 1.0
C      1  0.5150020000000  0.5498350000000  0.5476380000000 1.0
C      1  0.4680280000000  0.4423920000000  0.5161420000000 1.0
C      1  0.5064780000000  0.5344510000000  0.5185340000000 1.0
C      1  0.5153590000000  0.4613950000000  0.4766350000000 1.0
C      1  0.4566300000000  0.5163330000000  0.4780190000000 1.0
C      1  0.5419130000000  0.4829860000000  0.4730890000000 1.0
C      1  0.5374350000000  0.5228040000000  0.5210170000000 1.0
C      1  0.5101210000000  0.4937970000000  0.4677480000000 1.0
C      1  0.4745660000000  0.5325750000000  0.4540930000000 1.0
C      1  0.4779410000000  0.4698340000000  0.5336040000000 1.0
C      1  0.4417550000000  0.4849770000000  0.5531720000000 1.0
C      1  0.4729830000000  0.5643950000000  0.4420860000000 1.0
C      1  0.5475820000000  0.4262340000000  0.4762030000000 1.0
C      1  0.4364990000000  0.5225250000000  0.4511590000000 1.0
C      1  0.5595360000000  0.4794890000000  0.4456850000000 1.0
C      1  0.5561270000000  0.5236720000000  0.5481240000000 1.0
C      1  0.4716550000000  0.4465530000000  0.5573730000000 1.0
C      1  0.5315990000000  0.5683930000000  0.5689050000000 1.0
C      1  0.5138150000000  0.4457710000000  0.4403620000000 1.0
C      1  0.5520360000000  0.5676490000000  0.5197690000000 1.0
C      1  0.4384940000000  0.4300840000000  0.5247930000000 1.0
C      1  0.4498680000000  0.5552250000000  0.4766620000000 1.0
C      1  0.5619590000000  0.4791620000000  0.5476010000000 1.0
C      1  0.5289470000000  0.5517180000000  0.4418320000000 1.0
C      1  0.4344920000000  0.4256500000000  0.4727090000000 1.0
C      1  0.5629560000000  0.5218490000000  0.4587330000000 1.0
C      1  0.4416160000000  0.4729780000000  0.4393510000000 1.0
C      1  0.4421730000000  0.5237320000000  0.5435240000000 1.0
C      1  0.5258000000000  0.4565430000000  0.5596140000000 1.0
C      1  0.4777160000000  0.5555560000000  0.5669850000000 1.0
C      1  0.4729170000000  0.4362720000000  0.4256510000000 1.0
C      1  0.4422550000000  0.5564220000000  0.5206230000000 1.0
C      1  0.5627240000000  0.4363180000000  0.5258260000000 1.0
C      1  0.5505890000000  0.5581480000000  0.4783990000000 1.0
C      1  0.5646310000000  0.4511980000000  0.5667950000000 1.0
C      1  0.4473270000000  0.5700500000000  0.5712950000000 1.0
C      1  0.5743800000000  0.5765100000000  0.4624940000000 1.0
C      1  0.5819990000000  0.5473340000000  0.4465240000000 1.0
C      1  0.4201440000000  0.4500140000000  0.4284930000000 1.0
C      1  0.4264670000000  0.5496700000000  0.5565790000000 1.0
C      1  0.4448460000000  0.4283730000000  0.4195960000000 1.0
C      1  0.5581330000000  0.5665570000000  0.4347170000000 1.0
C      1  0.5380240000000  0.4349510000000  0.5823270000000 1.0
C      1  0.5537020000000  0.4227760000000  0.5547180000000 1.0
C      1  0.4329360000000  0.5802080000000  0.5430610000000 1.0
C      1  0.4258910000000  0.4212610000000  0.4444700000000 1.0
C      1  0.4292980000000  0.4587660000000  0.5648880000000 1.0
C      1  0.5610000000000  0.5714670000000  0.5703390000000 1.0
C      1  0.4276680000000  0.5785820000000  0.4658020000000 1.0
C      1  0.4253640000000  0.5515150000000  0.4452840000000 1.0
C      1  0.5649850000000  0.4515340000000  0.4354860000000 1.0
C      1  0.5763140000000  0.5492510000000  0.5510520000000 1.0
C      1  0.5403880000000  0.4345420000000  0.4257380000000 1.0
C      1  0.4455940000000  0.5741510000000  0.4380340000000 1.0
C      1  0.4499550000000  0.4404870000000  0.5831850000000 1.0
C      1  0.4360270000000  0.4286490000000  0.5544970000000 1.0
C      1  0.5725750000000  0.5824530000000  0.5424650000000 1.0
C      1  0.5613330000000  0.4217040000000  0.4457810000000 1.0
C      1  0.5184990000000  0.4353750000000  0.4912900000000 1.0
C      1  0.4942470000000  0.5689370000000  0.5042120000000 1.0
C      1  0.4880100000000  0.5072820000000  0.4396500000000 1.0
C      1  0.4442530000000  0.4874890000000  0.5217470000000 1.0
C      1  0.5023650000000  0.5019250000000  0.5646030000000 1.0
C      1  0.4899460000000  0.5273460000000  0.5524140000000 1.0
C      1  0.4964790000000  0.4747180000000  0.4447850000000 1.0
C      1  0.5264330000000  0.5596570000000  0.5101380000000 1.0
C      1  0.4897050000000  0.4266550000000  0.4998310000000 1.0
C      1  0.4367850000000  0.4940450000000  0.4894050000000 1.0
C      1  0.5698950000000  0.5066470000000  0.4884190000000 1.0
C      1  0.5575280000000  0.4962920000000  0.5184820000000 1.0
C      1  0.5005880000000  0.5044350000000  0.5967920000000 1.0
C      1  0.4981750000000  0.5065530000000  0.4072110000000 1.0
C      1  0.5043190000000  0.4009870000000  0.5142370000000 1.0
C      1  0.4052630000000  0.4934550000000  0.4972130000000 1.0
C      1  0.5020820000000  0.5999670000000  0.5030070000000 1.0
C      1  0.5965000000000  0.4898970000000  0.4887300000000 1.0
C      1  0.5105540000000  0.4839420000000  0.5196430000000 1.0
END
