TITL C-3289335-9438-596 -0.00213923037598879 125000 -384.318961928171 0 0 70 (C1) n - 1
REM
REM in /nfs/bkarasulu/CARBON/AIRSS/Generating-Clusters/AIREBO/with-SteepDescent/Higher-Symm/SD-CG/HFTN-CG
REM
REM
REM
REM
REM
REM ./C.cell (b20cbc046b6831c77cfcea5457e17084)
REM
REM compiler GCC version 9.2.1 20190827 (Red Hat 9.2.1-1)
REM options -cpp -mtune=generic -march=x86-64 -g -O0 -fpre-include=/usr/include/finclude/math-vector-fortran.h
REM seed -1467895862 -812717647 395121864 -1793858898 1196354981 -445205194 665275023 -1187920858 2112938267 1604924694 -918616698 -1388161137 -275305497 -35827276 602248162 -1412062680 1343216390 -1432513359 845026737 1073565215 -1262582252 -351862437 1604624967 522149049 -348920789 -1291180466 2134006845 746330122 -1683452784 -18898598 -376263730 639503932 -952909556
REM
CELL 1.54180   50.00000   50.00000   50.00000   90.00000   90.00000   90.00000
LATT -1
SFAC C  
C      1  0.4604080000000  0.4094120000000  0.5404250000000 1.0
C      1  0.4996410000000  0.4094800000000  0.5369030000000 1.0
C      1  0.5256490000000  0.4108650000000  0.5267270000000 1.0
C      1  0.5464500000000  0.4128360000000  0.4904250000000 1.0
C      1  0.5062820000000  0.4092940000000  0.4553880000000 1.0
C      1  0.4898770000000  0.3931240000000  0.4701970000000 1.0
C      1  0.4686140000000  0.4019430000000  0.4850310000000 1.0
C      1  0.5318460000000  0.4405370000000  0.5152460000000 1.0
C      1  0.5337920000000  0.4414560000000  0.4834940000000 1.0
C      1  0.5106350000000  0.4393760000000  0.4636370000000 1.0
C      1  0.4823040000000  0.4484760000000  0.4727600000000 1.0
C      1  0.4681440000000  0.4312440000000  0.4956490000000 1.0
C      1  0.4723010000000  0.4333900000000  0.5260170000000 1.0
C      1  0.5034000000000  0.4431450000000  0.5339120000000 1.0
C      1  0.4946280000000  0.5150270000000  0.5350040000000 1.0
C      1  0.5203240000000  0.5145310000000  0.5263920000000 1.0
C      1  0.5304190000000  0.5124220000000  0.5014510000000 1.0
C      1  0.5168430000000  0.5122150000000  0.4782510000000 1.0
C      1  0.4902720000000  0.5135140000000  0.4745830000000 1.0
C      1  0.4705580000000  0.5149970000000  0.4928980000000 1.0
C      1  0.4723580000000  0.5156510000000  0.5195850000000 1.0
C      1  0.5555430000000  0.4614090000000  0.4746960000000 1.0
C      1  0.5173250000000  0.4575600000000  0.4388550000000 1.0
C      1  0.4682160000000  0.4636500000000  0.4559430000000 1.0
C      1  0.4445330000000  0.4510650000000  0.4856190000000 1.0
C      1  0.4544060000000  0.4571640000000  0.5368530000000 1.0
C      1  0.5063240000000  0.4625460000000  0.5574260000000 1.0
C      1  0.5543130000000  0.4578360000000  0.5278610000000 1.0
C      1  0.4168730000000  0.5640610000000  0.5076630000000 1.0
C      1  0.4520470000000  0.5696070000000  0.5714960000000 1.0
C      1  0.5290280000000  0.5635730000000  0.5837780000000 1.0
C      1  0.5833510000000  0.5590170000000  0.5299260000000 1.0
C      1  0.5731300000000  0.5602410000000  0.4554410000000 1.0
C      1  0.5100330000000  0.5586050000000  0.4152710000000 1.0
C      1  0.4392730000000  0.5614400000000  0.4420820000000 1.0
C      1  0.5723900000000  0.5094990000000  0.4736000000000 1.0
C      1  0.5237630000000  0.5083550000000  0.4291990000000 1.0
C      1  0.4556550000000  0.5100960000000  0.4400350000000 1.0
C      1  0.4264000000000  0.5005410000000  0.4765330000000 1.0
C      1  0.4331470000000  0.5055080000000  0.5451870000000 1.0
C      1  0.5115850000000  0.5115410000000  0.5733870000000 1.0
C      1  0.5641270000000  0.5080360000000  0.5379600000000 1.0
C      1  0.5113730000000  0.4845690000000  0.5718790000000 1.0
C      1  0.5635180000000  0.4811370000000  0.5373930000000 1.0
C      1  0.5689480000000  0.4834250000000  0.4679090000000 1.0
C      1  0.5244290000000  0.4814010000000  0.4289370000000 1.0
C      1  0.4543090000000  0.4833130000000  0.4437580000000 1.0
C      1  0.4338640000000  0.4753620000000  0.4829840000000 1.0
C      1  0.4444440000000  0.4810860000000  0.5421820000000 1.0
C      1  0.4700950000000  0.5583590000000  0.5037640000000 1.0
C      1  0.4840940000000  0.5595620000000  0.5277750000000 1.0
C      1  0.5114840000000  0.5574580000000  0.5320730000000 1.0
C      1  0.5314920000000  0.5553420000000  0.5127900000000 1.0
C      1  0.5286150000000  0.5546440000000  0.4849540000000 1.0
C      1  0.5054970000000  0.5545250000000  0.4692610000000 1.0
C      1  0.4791810000000  0.5563290000000  0.4776930000000 1.0
C      1  0.4408140000000  0.5457170000000  0.5070230000000 1.0
C      1  0.4654360000000  0.5503760000000  0.5529300000000 1.0
C      1  0.5203730000000  0.5467350000000  0.5630920000000 1.0
C      1  0.5610620000000  0.5430130000000  0.5242210000000 1.0
C      1  0.5557050000000  0.5429430000000  0.4688340000000 1.0
C      1  0.5090080000000  0.5419770000000  0.4378540000000 1.0
C      1  0.4555580000000  0.5438640000000  0.4566540000000 1.0
C      1  0.5322060000000  0.5252860000000  0.4553600000000 1.0
C      1  0.4827250000000  0.5262750000000  0.4476690000000 1.0
C      1  0.4433900000000  0.5257870000000  0.4816800000000 1.0
C      1  0.4482880000000  0.5302220000000  0.5340770000000 1.0
C      1  0.4900220000000  0.5328730000000  0.5606540000000 1.0
C      1  0.5400520000000  0.5287410000000  0.5459800000000 1.0
C      1  0.5578100000000  0.5253960000000  0.4978400000000 1.0
END
