TITL C-3289323-3850-689 -0.0011218196265043 125000 -840.88929775121 0 0 159 (C1) n - 1
REM
REM in /nfs/bkarasulu/CARBON/AIRSS/Generating-Clusters/AIREBO/with-SteepDescent/Higher-Symm/SD-CG/HFTN-CG
REM
REM
REM
REM
REM
REM ./C.cell (b20cbc046b6831c77cfcea5457e17084)
REM
REM compiler GCC version 9.2.1 20190827 (Red Hat 9.2.1-1)
REM options -cpp -mtune=generic -march=x86-64 -g -O0 -fpre-include=/usr/include/finclude/math-vector-fortran.h
REM seed -1769271932 245466414 776622036 421551893 -1522100218 761983379 -1490662425 1491512271 769612614 -318321492 -1118016444 1874957882 1833840838 233372717 -1767994120 -1059445902 2019607172 280486803 -427321422 2063796552 236829302 1777128762 -439388230 1770126353 -1250418021 555911559 -966880368 1347646077 -709970426 193992416 1257803940 544966923 793062528
REM
CELL 1.54180   50.00000   50.00000   50.00000   90.00000   90.00000   90.00000
LATT -1
SFAC C  
C      1  0.4467360000000  0.5568710000000  0.5628740000000 1.0
C      1  0.4541740000000  0.4815480000000  0.5722470000000 1.0
C      1  0.4566170000000  0.4252420000000  0.5289880000000 1.0
C      1  0.4546710000000  0.4210330000000  0.4774410000000 1.0
C      1  0.4467320000000  0.4781680000000  0.4224250000000 1.0
C      1  0.4552270000000  0.5552410000000  0.4318340000000 1.0
C      1  0.4590510000000  0.5811580000000  0.4921370000000 1.0
C      1  0.5455900000000  0.5365680000000  0.5061240000000 1.0
C      1  0.5497970000000  0.5207370000000  0.5319890000000 1.0
C      1  0.5506860000000  0.4896620000000  0.5329230000000 1.0
C      1  0.5525740000000  0.4681040000000  0.5127850000000 1.0
C      1  0.5555520000000  0.4654650000000  0.4792610000000 1.0
C      1  0.5694920000000  0.4933500000000  0.4396030000000 1.0
C      1  0.5528160000000  0.5211960000000  0.4783800000000 1.0
C      1  0.5208770000000  0.4781330000000  0.4152660000000 1.0
C      1  0.5330730000000  0.5466960000000  0.4318350000000 1.0
C      1  0.5342090000000  0.5866150000000  0.4973850000000 1.0
C      1  0.5284960000000  0.5551520000000  0.5684850000000 1.0
C      1  0.5297210000000  0.4826800000000  0.5912840000000 1.0
C      1  0.5305470000000  0.4301390000000  0.5398690000000 1.0
C      1  0.5288210000000  0.4242090000000  0.4592950000000 1.0
C      1  0.4019240000000  0.5155700000000  0.5673180000000 1.0
C      1  0.4058950000000  0.4671350000000  0.5568880000000 1.0
C      1  0.4150840000000  0.4341530000000  0.5222400000000 1.0
C      1  0.4098130000000  0.4339910000000  0.4708530000000 1.0
C      1  0.4084380000000  0.5014280000000  0.4582450000000 1.0
C      1  0.4075630000000  0.5601040000000  0.4538490000000 1.0
C      1  0.4118710000000  0.5755330000000  0.5017330000000 1.0
C      1  0.4212750000000  0.5814060000000  0.4528020000000 1.0
C      1  0.4249540000000  0.5870810000000  0.5205460000000 1.0
C      1  0.4159610000000  0.5255720000000  0.5859980000000 1.0
C      1  0.4213620000000  0.4455520000000  0.5499940000000 1.0
C      1  0.4226190000000  0.4085820000000  0.5162580000000 1.0
C      1  0.4230280000000  0.4286790000000  0.4497960000000 1.0
C      1  0.4154220000000  0.5062580000000  0.4299270000000 1.0
C      1  0.5540620000000  0.5334480000000  0.5632360000000 1.0
C      1  0.5488950000000  0.4759960000000  0.5640060000000 1.0
C      1  0.5544720000000  0.4343580000000  0.5165290000000 1.0
C      1  0.5485980000000  0.4471230000000  0.4508230000000 1.0
C      1  0.5465690000000  0.5000700000000  0.4183700000000 1.0
C      1  0.5559450000000  0.5474790000000  0.4570230000000 1.0
C      1  0.5586090000000  0.5643840000000  0.5056100000000 1.0
C      1  0.4712800000000  0.5182750000000  0.4013700000000 1.0
C      1  0.4789970000000  0.5959660000000  0.4542870000000 1.0
C      1  0.4817690000000  0.6012030000000  0.5307790000000 1.0
C      1  0.4701130000000  0.5279490000000  0.5950160000000 1.0
C      1  0.4823980000000  0.4464810000000  0.5918000000000 1.0
C      1  0.4827790000000  0.4010170000000  0.5058070000000 1.0
C      1  0.4704790000000  0.4182730000000  0.4224480000000 1.0
C      1  0.4626730000000  0.4651620000000  0.4037210000000 1.0
C      1  0.4733130000000  0.5568760000000  0.4113980000000 1.0
C      1  0.4799720000000  0.5974860000000  0.4822710000000 1.0
C      1  0.4648190000000  0.5761280000000  0.5717910000000 1.0
C      1  0.4672140000000  0.4829290000000  0.5969270000000 1.0
C      1  0.4718470000000  0.4147320000000  0.5499760000000 1.0
C      1  0.4749690000000  0.4037820000000  0.4628300000000 1.0
C      1  0.4950790000000  0.4408120000000  0.4772030000000 1.0
C      1  0.4852400000000  0.4798030000000  0.4330960000000 1.0
C      1  0.4932560000000  0.5373090000000  0.4475180000000 1.0
C      1  0.4940230000000  0.5619150000000  0.4937810000000 1.0
C      1  0.4897320000000  0.5394280000000  0.5509130000000 1.0
C      1  0.4924310000000  0.4916560000000  0.5674330000000 1.0
C      1  0.4935530000000  0.4424410000000  0.5314710000000 1.0
C      1  0.5036080000000  0.5869060000000  0.4417430000000 1.0
C      1  0.4855840000000  0.5963250000000  0.5586980000000 1.0
C      1  0.5007450000000  0.5251620000000  0.6095130000000 1.0
C      1  0.5081750000000  0.4351190000000  0.5846590000000 1.0
C      1  0.5133000000000  0.3919400000000  0.5014680000000 1.0
C      1  0.4959990000000  0.4277590000000  0.4163420000000 1.0
C      1  0.5020380000000  0.5229000000000  0.3923230000000 1.0
C      1  0.5794220000000  0.4476510000000  0.5354280000000 1.0
C      1  0.5817780000000  0.4466860000000  0.4900440000000 1.0
C      1  0.5892650000000  0.4726500000000  0.4516140000000 1.0
C      1  0.5836370000000  0.5284520000000  0.4517290000000 1.0
C      1  0.5818770000000  0.5565970000000  0.4860340000000 1.0
C      1  0.5802490000000  0.5446980000000  0.5446760000000 1.0
C      1  0.5743840000000  0.4985250000000  0.5637700000000 1.0
C      1  0.5030590000000  0.5451920000000  0.4159090000000 1.0
C      1  0.5017590000000  0.5929100000000  0.5054380000000 1.0
C      1  0.4964250000000  0.5663480000000  0.5700050000000 1.0
C      1  0.4994490000000  0.4926120000000  0.6006900000000 1.0
C      1  0.5037850000000  0.4228630000000  0.5573350000000 1.0
C      1  0.5041360000000  0.4082590000000  0.4730820000000 1.0
C      1  0.4945510000000  0.4574910000000  0.4091750000000 1.0
C      1  0.5195920000000  0.5495770000000  0.5977560000000 1.0
C      1  0.5296120000000  0.4498950000000  0.5930730000000 1.0
C      1  0.5301200000000  0.4019660000000  0.5208200000000 1.0
C      1  0.5174200000000  0.4162530000000  0.4292760000000 1.0
C      1  0.5173630000000  0.5006530000000  0.3912370000000 1.0
C      1  0.5233450000000  0.5783900000000  0.4245510000000 1.0
C      1  0.5334080000000  0.5851430000000  0.5283610000000 1.0
C      1  0.4525130000000  0.5552330000000  0.4758080000000 1.0
C      1  0.4467810000000  0.5475830000000  0.5328950000000 1.0
C      1  0.4483340000000  0.5079480000000  0.5544320000000 1.0
C      1  0.4473400000000  0.4573950000000  0.5228050000000 1.0
C      1  0.4482990000000  0.4542900000000  0.4805170000000 1.0
C      1  0.4409060000000  0.4653250000000  0.4492160000000 1.0
C      1  0.4482380000000  0.5286580000000  0.4463880000000 1.0
C      1  0.4456870000000  0.5308250000000  0.5784060000000 1.0
C      1  0.4536450000000  0.4550340000000  0.5551710000000 1.0
C      1  0.4518770000000  0.4059440000000  0.5040570000000 1.0
C      1  0.4562720000000  0.4350650000000  0.4465070000000 1.0
C      1  0.4476310000000  0.5091420000000  0.4210830000000 1.0
C      1  0.4531200000000  0.5789270000000  0.4513910000000 1.0
C      1  0.4574780000000  0.5784990000000  0.5236190000000 1.0
C      1  0.5908020000000  0.5374730000000  0.5131500000000 1.0
C      1  0.5902210000000  0.5132840000000  0.5373540000000 1.0
C      1  0.5889800000000  0.4800600000000  0.5392240000000 1.0
C      1  0.6005690000000  0.4629930000000  0.5132230000000 1.0
C      1  0.5955510000000  0.4766230000000  0.4835260000000 1.0
C      1  0.6016960000000  0.5021100000000  0.4634020000000 1.0
C      1  0.6008560000000  0.5305010000000  0.4813980000000 1.0
C      1  0.4690680000000  0.5219470000000  0.5313480000000 1.0
C      1  0.4861900000000  0.4920690000000  0.5343590000000 1.0
C      1  0.4760320000000  0.4646410000000  0.5192070000000 1.0
C      1  0.4782110000000  0.4692090000000  0.4855830000000 1.0
C      1  0.4795410000000  0.4947200000000  0.4631170000000 1.0
C      1  0.4712540000000  0.5271790000000  0.4714010000000 1.0
C      1  0.4849340000000  0.5302970000000  0.5024290000000 1.0
C      1  0.4232170000000  0.5488780000000  0.4888500000000 1.0
C      1  0.4281520000000  0.5323550000000  0.5135680000000 1.0
C      1  0.4171330000000  0.4961270000000  0.5476030000000 1.0
C      1  0.4230290000000  0.4792350000000  0.5197450000000 1.0
C      1  0.4179330000000  0.4556700000000  0.4957700000000 1.0
C      1  0.4169070000000  0.4765520000000  0.4686100000000 1.0
C      1  0.4204480000000  0.5309010000000  0.4609480000000 1.0
C      1  0.4890310000000  0.5099770000000  0.4276290000000 1.0
C      1  0.5015780000000  0.5637340000000  0.4626180000000 1.0
C      1  0.4869780000000  0.5618720000000  0.5267840000000 1.0
C      1  0.4988960000000  0.5235110000000  0.5755780000000 1.0
C      1  0.4870290000000  0.4589390000000  0.5604940000000 1.0
C      1  0.4994430000000  0.4287830000000  0.5068430000000 1.0
C      1  0.4852350000000  0.4525720000000  0.4499100000000 1.0
C      1  0.5224750000000  0.5145840000000  0.4324770000000 1.0
C      1  0.5323530000000  0.5641970000000  0.4754900000000 1.0
C      1  0.5192290000000  0.5623840000000  0.5377050000000 1.0
C      1  0.5305960000000  0.5112700000000  0.5742580000000 1.0
C      1  0.5206440000000  0.4590240000000  0.5551770000000 1.0
C      1  0.5303680000000  0.4304820000000  0.4928000000000 1.0
C      1  0.5178050000000  0.4581760000000  0.4414940000000 1.0
C      1  0.5194790000000  0.5121330000000  0.5432680000000 1.0
C      1  0.5179880000000  0.4809100000000  0.5296980000000 1.0
C      1  0.5231850000000  0.4613120000000  0.5023550000000 1.0
C      1  0.5226300000000  0.4691160000000  0.4715710000000 1.0
C      1  0.5126120000000  0.4966230000000  0.4567890000000 1.0
C      1  0.5228840000000  0.5327560000000  0.4738260000000 1.0
C      1  0.5142670000000  0.5339580000000  0.5192790000000 1.0
C      1  0.5764700000000  0.4179850000000  0.4977160000000 1.0
C      1  0.5777520000000  0.4478840000000  0.4425640000000 1.0
C      1  0.5744100000000  0.5198320000000  0.4201490000000 1.0
C      1  0.5783150000000  0.5728670000000  0.4603850000000 1.0
C      1  0.5733940000000  0.5698250000000  0.5300970000000 1.0
C      1  0.5744390000000  0.5195510000000  0.5861050000000 1.0
C      1  0.5693960000000  0.4525060000000  0.5634670000000 1.0
C      1  0.4577400000000  0.5010880000000  0.4983030000000 1.0
C      1  0.4344030000000  0.5054670000000  0.5099090000000 1.0
C      1  0.4911270000000  0.4968870000000  0.5010650000000 1.0
C      1  0.5174260000000  0.5050410000000  0.4874100000000 1.0
C      1  0.5613550000000  0.4949680000000  0.4692100000000 1.0
END
