TITL C-3289328-6581-124 1.11130234196572e-07 125000 -56.5264821742867 0 0 10 (D10) n - 1
REM
REM in /nfs/bkarasulu/CARBON/AIRSS/Generating-Clusters/AIREBO/with-SteepDescent/Higher-Symm/SD-CG/HFTN-CG
REM
REM
REM
REM
REM
REM ./C.cell (b20cbc046b6831c77cfcea5457e17084)
REM
REM compiler GCC version 9.2.1 20190827 (Red Hat 9.2.1-1)
REM options -cpp -mtune=generic -march=x86-64 -g -O0 -fpre-include=/usr/include/finclude/math-vector-fortran.h
REM seed 1271001156 810092892 2066275161 -1546413877 -2132750729 1592864847 -567604341 -1923972664 1145665014 -260394213 1849266274 -1954081403 -957694130 -987696852 242441899 -532425121 398457193 -1755366800 -1545732649 -1199457447 63918602 -500637818 749483498 1222826693 -299005050 380256517 853370717 -119671783 944881567 543840094 1120749795 974046043 148174008
REM
CELL 1.54180   50.00000   50.00000   50.00000   90.00000   90.00000   90.00000
LATT -1
SFAC C  
C      1  0.5000000000000  0.5353950000000  0.5257160000000 1.0
C      1  0.5000000000000  0.5353950000000  0.4742840000000 1.0
C      1  0.5000000000000  0.4864800000000  0.4583910000000 1.0
C      1  0.5000000000000  0.4562490000000  0.5000000000000 1.0
C      1  0.5000000000000  0.4864800000000  0.5416090000000 1.0
C      1  0.5000000000000  0.4646050000000  0.5257160000000 1.0
C      1  0.5000000000000  0.4646050000000  0.4742840000000 1.0
C      1  0.5000000000000  0.5135200000000  0.4583910000000 1.0
C      1  0.5000000000000  0.5437510000000  0.5000000000000 1.0
C      1  0.5000000000000  0.5135200000000  0.5416090000000 1.0
END
