TITL C-3289331-6719-707 0.00140672390358993 125000 -800.163354518686 0 0 153 (C1) n - 1
REM
REM in /nfs/bkarasulu/CARBON/AIRSS/Generating-Clusters/AIREBO/with-SteepDescent/Higher-Symm/SD-CG/HFTN-CG
REM
REM
REM
REM
REM
REM ./C.cell (b20cbc046b6831c77cfcea5457e17084)
REM
REM compiler GCC version 9.2.1 20190827 (Red Hat 9.2.1-1)
REM options -cpp -mtune=generic -march=x86-64 -g -O0 -fpre-include=/usr/include/finclude/math-vector-fortran.h
REM seed -1480877574 -1574592674 424284788 9727259 -838966424 1333079783 574378178 1831308597 1888055346 -1402946158 79248845 -528547235 526155181 1806838907 260741832 1517501554 1638401762 -294888616 -931062651 -1063154990 -1858056675 251092001 -1624699194 1067790434 -1931300333 792700421 383668414 541355521 -1311023234 1816060081 -145138100 826989748 254751378
REM
CELL 1.54180   50.00000   50.00000   50.00000   90.00000   90.00000   90.00000
LATT -1
SFAC C  
C      1  0.5307500000000  0.4147090000000  0.5442320000000 1.0
C      1  0.5284820000000  0.5048380000000  0.3985350000000 1.0
C      1  0.5295300000000  0.5867020000000  0.5542970000000 1.0
C      1  0.4771690000000  0.4061020000000  0.5354030000000 1.0
C      1  0.4698640000000  0.5021790000000  0.4057540000000 1.0
C      1  0.4716000000000  0.5817960000000  0.5480550000000 1.0
C      1  0.5129220000000  0.5355890000000  0.5392630000000 1.0
C      1  0.5173830000000  0.4468420000000  0.5062300000000 1.0
C      1  0.5100190000000  0.5111520000000  0.4500570000000 1.0
C      1  0.4787600000000  0.5406130000000  0.5399600000000 1.0
C      1  0.4843100000000  0.4495760000000  0.4988220000000 1.0
C      1  0.4759960000000  0.5129990000000  0.4464850000000 1.0
C      1  0.5871970000000  0.4633330000000  0.5188890000000 1.0
C      1  0.5829170000000  0.5031350000000  0.4587550000000 1.0
C      1  0.5852890000000  0.5323010000000  0.5317070000000 1.0
C      1  0.4042750000000  0.4568900000000  0.5135040000000 1.0
C      1  0.4069870000000  0.5192350000000  0.4605110000000 1.0
C      1  0.4081290000000  0.5299960000000  0.5358790000000 1.0
C      1  0.5234210000000  0.5952740000000  0.4900740000000 1.0
C      1  0.5105750000000  0.4629490000000  0.5829410000000 1.0
C      1  0.5136950000000  0.4472070000000  0.4223540000000 1.0
C      1  0.4843950000000  0.5872070000000  0.4888630000000 1.0
C      1  0.4791780000000  0.4749040000000  0.5869990000000 1.0
C      1  0.4808040000000  0.4467390000000  0.4309590000000 1.0
C      1  0.3875830000000  0.4765150000000  0.4802600000000 1.0
C      1  0.3823330000000  0.5473080000000  0.4976100000000 1.0
C      1  0.3813790000000  0.4944990000000  0.5559610000000 1.0
C      1  0.6247380000000  0.4789170000000  0.4695610000000 1.0
C      1  0.6200900000000  0.5359730000000  0.4970190000000 1.0
C      1  0.6255900000000  0.4908230000000  0.5332600000000 1.0
C      1  0.5178410000000  0.5579980000000  0.5643600000000 1.0
C      1  0.5219450000000  0.4153930000000  0.5137490000000 1.0
C      1  0.5156850000000  0.5252600000000  0.4196440000000 1.0
C      1  0.4883210000000  0.5576460000000  0.5646250000000 1.0
C      1  0.4906340000000  0.4176370000000  0.5087000000000 1.0
C      1  0.4862200000000  0.5271430000000  0.4203010000000 1.0
C      1  0.4582750000000  0.4389300000000  0.5479920000000 1.0
C      1  0.4608120000000  0.4809700000000  0.4286360000000 1.0
C      1  0.4612740000000  0.5735810000000  0.5182730000000 1.0
C      1  0.5349520000000  0.4537530000000  0.5509810000000 1.0
C      1  0.5362610000000  0.4795620000000  0.4281940000000 1.0
C      1  0.5421000000000  0.5747490000000  0.5188140000000 1.0
C      1  0.5487420000000  0.5623340000000  0.4554460000000 1.0
C      1  0.5471400000000  0.5082550000000  0.5719380000000 1.0
C      1  0.5503220000000  0.4318240000000  0.4684400000000 1.0
C      1  0.4517200000000  0.5707860000000  0.4489000000000 1.0
C      1  0.4538930000000  0.5105230000000  0.5729450000000 1.0
C      1  0.4424730000000  0.4323980000000  0.4686830000000 1.0
C      1  0.5328780000000  0.5534030000000  0.4198780000000 1.0
C      1  0.5364990000000  0.5444120000000  0.5873740000000 1.0
C      1  0.5419370000000  0.4019760000000  0.4936850000000 1.0
C      1  0.4717110000000  0.5563690000000  0.4175560000000 1.0
C      1  0.4715110000000  0.5435370000000  0.5870310000000 1.0
C      1  0.4789470000000  0.3996850000000  0.4844820000000 1.0
C      1  0.4993420000000  0.4850130000000  0.5212420000000 1.0
C      1  0.5071150000000  0.4852810000000  0.4925850000000 1.0
C      1  0.4994890000000  0.5113760000000  0.4817000000000 1.0
C      1  0.4682770000000  0.4904600000000  0.5126420000000 1.0
C      1  0.4703820000000  0.4727330000000  0.4836960000000 1.0
C      1  0.4711390000000  0.5205200000000  0.4970050000000 1.0
C      1  0.4813290000000  0.4825930000000  0.4557080000000 1.0
C      1  0.4829760000000  0.5499330000000  0.5093220000000 1.0
C      1  0.4824710000000  0.4499880000000  0.5305720000000 1.0
C      1  0.5123400000000  0.4778000000000  0.4480320000000 1.0
C      1  0.5143400000000  0.5603050000000  0.5165210000000 1.0
C      1  0.5068910000000  0.4642780000000  0.5435560000000 1.0
C      1  0.4565940000000  0.5409360000000  0.4750300000000 1.0
C      1  0.4593110000000  0.5030610000000  0.5415530000000 1.0
C      1  0.4414170000000  0.4658790000000  0.4745200000000 1.0
C      1  0.5442790000000  0.5391040000000  0.4798720000000 1.0
C      1  0.5455190000000  0.4979760000000  0.5395730000000 1.0
C      1  0.5476720000000  0.4637380000000  0.4799170000000 1.0
C      1  0.4529080000000  0.5726770000000  0.5739720000000 1.0
C      1  0.4602950000000  0.3925420000000  0.5125100000000 1.0
C      1  0.4517650000000  0.5307300000000  0.4015580000000 1.0
C      1  0.5539830000000  0.5715430000000  0.5717610000000 1.0
C      1  0.5594990000000  0.4179180000000  0.5336630000000 1.0
C      1  0.5517040000000  0.5280920000000  0.4041140000000 1.0
C      1  0.4430990000000  0.5442480000000  0.4308380000000 1.0
C      1  0.4410250000000  0.5415950000000  0.5746890000000 1.0
C      1  0.4516900000000  0.4183870000000  0.4921640000000 1.0
C      1  0.5542470000000  0.5340690000000  0.4373500000000 1.0
C      1  0.5578950000000  0.5390790000000  0.5624330000000 1.0
C      1  0.5603750000000  0.4274990000000  0.5008190000000 1.0
C      1  0.4556910000000  0.5858900000000  0.4791060000000 1.0
C      1  0.4500020000000  0.4700930000000  0.5876020000000 1.0
C      1  0.4501730000000  0.4436280000000  0.4375250000000 1.0
C      1  0.5476340000000  0.5849800000000  0.4807880000000 1.0
C      1  0.5391600000000  0.4771530000000  0.5831420000000 1.0
C      1  0.5332980000000  0.4418990000000  0.4407770000000 1.0
C      1  0.4406660000000  0.5258850000000  0.5103620000000 1.0
C      1  0.4416160000000  0.4707050000000  0.5153060000000 1.0
C      1  0.4364580000000  0.4968660000000  0.4756200000000 1.0
C      1  0.5571080000000  0.5225300000000  0.5052070000000 1.0
C      1  0.5532750000000  0.4837730000000  0.5140070000000 1.0
C      1  0.5491540000000  0.4971430000000  0.4839800000000 1.0
C      1  0.5136880000000  0.5036490000000  0.5431000000000 1.0
C      1  0.5147000000000  0.4577430000000  0.4741340000000 1.0
C      1  0.5139920000000  0.5391070000000  0.4783300000000 1.0
C      1  0.4943880000000  0.4962190000000  0.5653020000000 1.0
C      1  0.4972380000000  0.4345570000000  0.4563970000000 1.0
C      1  0.4870110000000  0.5564420000000  0.4764540000000 1.0
C      1  0.4208900000000  0.4428770000000  0.5350070000000 1.0
C      1  0.4213560000000  0.5008070000000  0.4384200000000 1.0
C      1  0.4258490000000  0.5579860000000  0.5289640000000 1.0
C      1  0.5728140000000  0.4461070000000  0.5408790000000 1.0
C      1  0.5657420000000  0.4923050000000  0.4353110000000 1.0
C      1  0.5700950000000  0.5608080000000  0.5312710000000 1.0
C      1  0.5635410000000  0.4595950000000  0.5684330000000 1.0
C      1  0.5615880000000  0.4589220000000  0.4378570000000 1.0
C      1  0.5714700000000  0.5772340000000  0.5018150000000 1.0
C      1  0.4355980000000  0.4579140000000  0.5606010000000 1.0
C      1  0.4316590000000  0.4718500000000  0.4333490000000 1.0
C      1  0.4340240000000  0.5749750000000  0.5029340000000 1.0
C      1  0.4242130000000  0.5453370000000  0.4737330000000 1.0
C      1  0.4071980000000  0.5005380000000  0.5457860000000 1.0
C      1  0.4112770000000  0.4531600000000  0.4818990000000 1.0
C      1  0.5755940000000  0.5294580000000  0.4707520000000 1.0
C      1  0.5782580000000  0.5058370000000  0.5445140000000 1.0
C      1  0.5803710000000  0.4628950000000  0.4892900000000 1.0
C      1  0.4460330000000  0.5196720000000  0.4522740000000 1.0
C      1  0.4471860000000  0.5349350000000  0.5420150000000 1.0
C      1  0.4475670000000  0.4375910000000  0.5157380000000 1.0
C      1  0.5436120000000  0.5085990000000  0.4546510000000 1.0
C      1  0.5459100000000  0.5369100000000  0.5311250000000 1.0
C      1  0.5476020000000  0.4531240000000  0.5191620000000 1.0
C      1  0.5187230000000  0.5716830000000  0.4417780000000 1.0
C      1  0.5218650000000  0.5167920000000  0.5931760000000 1.0
C      1  0.5414400000000  0.3992420000000  0.4644560000000 1.0
C      1  0.4849880000000  0.5750210000000  0.4413520000000 1.0
C      1  0.4822120000000  0.5142490000000  0.5914320000000 1.0
C      1  0.4948300000000  0.4064290000000  0.4607630000000 1.0
C      1  0.5977720000000  0.4829280000000  0.4719700000000 1.0
C      1  0.5901520000000  0.5310410000000  0.5001720000000 1.0
C      1  0.5986860000000  0.4863410000000  0.5307380000000 1.0
C      1  0.4060880000000  0.5022230000000  0.4899390000000 1.0
C      1  0.4086610000000  0.5338700000000  0.5021010000000 1.0
C      1  0.4134980000000  0.4874520000000  0.5183430000000 1.0
C      1  0.4176780000000  0.4461350000000  0.4492510000000 1.0
C      1  0.4249790000000  0.5773830000000  0.4700010000000 1.0
C      1  0.4294120000000  0.4901760000000  0.5647560000000 1.0
C      1  0.5805190000000  0.4460440000000  0.4597540000000 1.0
C      1  0.5798490000000  0.5631370000000  0.4726550000000 1.0
C      1  0.5760060000000  0.4893420000000  0.5733360000000 1.0
C      1  0.5184390000000  0.4733990000000  0.4011680000000 1.0
C      1  0.5199980000000  0.5990750000000  0.5240520000000 1.0
C      1  0.5135040000000  0.4329280000000  0.5671940000000 1.0
C      1  0.4857790000000  0.4717640000000  0.4080660000000 1.0
C      1  0.4885300000000  0.5937800000000  0.5206520000000 1.0
C      1  0.4846400000000  0.4217860000000  0.5596250000000 1.0
C      1  0.5172420000000  0.3914680000000  0.4529700000000 1.0
C      1  0.5045900000000  0.4911270000000  0.6027300000000 1.0
C      1  0.5035100000000  0.5937080000000  0.4629130000000 1.0
END
