TITL C-3289326-3776-334 0.000259117623747282 125000 -180.841504955467 0 0 39 (C1) n - 1
REM
REM in /nfs/bkarasulu/CARBON/AIRSS/Generating-Clusters/AIREBO/with-SteepDescent/Higher-Symm/SD-CG/HFTN-CG
REM
REM
REM
REM
REM
REM ./C.cell (b20cbc046b6831c77cfcea5457e17084)
REM
REM compiler GCC version 9.2.1 20190827 (Red Hat 9.2.1-1)
REM options -cpp -mtune=generic -march=x86-64 -g -O0 -fpre-include=/usr/include/finclude/math-vector-fortran.h
REM seed 956348850 -2128990472 -2080919019 -2041168609 1767111582 -439390842 -1988310186 1508351624 -1949615386 -887607759 2092641121 276528467 1529368875 1439666508 543608754 -1762478674 -1017227402 681115349 529610090 1477704249 2080379810 1318239487 1692182801 1093897890 1239233674 -1202707848 938963299 705367429 1643911015 329888704 992574406 521036108 -910055951
REM
CELL 1.54180   50.00000   50.00000   50.00000   90.00000   90.00000   90.00000
LATT -1
SFAC C  
C      1  0.4671250000000  0.5357290000000  0.5489360000000 1.0
C      1  0.5323160000000  0.4651640000000  0.5517120000000 1.0
C      1  0.4783420000000  0.4562540000000  0.5543480000000 1.0
C      1  0.5263130000000  0.5349720000000  0.5542180000000 1.0
C      1  0.5226210000000  0.4441470000000  0.4896480000000 1.0
C      1  0.4732710000000  0.5426980000000  0.4749020000000 1.0
C      1  0.5214530000000  0.5475920000000  0.4768790000000 1.0
C      1  0.4663880000000  0.4424980000000  0.4878550000000 1.0
C      1  0.4638140000000  0.4873690000000  0.4280320000000 1.0
C      1  0.4999450000000  0.4827490000000  0.4118200000000 1.0
C      1  0.4911980000000  0.5292030000000  0.4158700000000 1.0
C      1  0.5336000000000  0.5099460000000  0.4367310000000 1.0
C      1  0.5312590000000  0.5338870000000  0.5017140000000 1.0
C      1  0.4595060000000  0.4687050000000  0.5047400000000 1.0
C      1  0.5352650000000  0.4664930000000  0.5004290000000 1.0
C      1  0.4655790000000  0.5284500000000  0.4988070000000 1.0
C      1  0.4741950000000  0.4751070000000  0.5347360000000 1.0
C      1  0.5246040000000  0.5197430000000  0.5313150000000 1.0
C      1  0.4691140000000  0.5167630000000  0.5283550000000 1.0
C      1  0.5268570000000  0.4798860000000  0.5288720000000 1.0
C      1  0.4460140000000  0.4925140000000  0.5293050000000 1.0
C      1  0.5474130000000  0.5020710000000  0.5133280000000 1.0
C      1  0.4780220000000  0.5083140000000  0.5759450000000 1.0
C      1  0.5250400000000  0.4975300000000  0.5738870000000 1.0
C      1  0.4948200000000  0.4425580000000  0.4791830000000 1.0
C      1  0.4990410000000  0.5362980000000  0.4645200000000 1.0
C      1  0.4702210000000  0.4938630000000  0.4539710000000 1.0
C      1  0.5354330000000  0.4974110000000  0.4623780000000 1.0
C      1  0.4914230000000  0.4427240000000  0.5189370000000 1.0
C      1  0.5041020000000  0.5578040000000  0.5187350000000 1.0
C      1  0.4932440000000  0.4690060000000  0.5005230000000 1.0
C      1  0.4974540000000  0.5325390000000  0.5050820000000 1.0
C      1  0.5474630000000  0.4884950000000  0.4847130000000 1.0
C      1  0.4510720000000  0.4931290000000  0.4737810000000 1.0
C      1  0.5037550000000  0.5064810000000  0.4263760000000 1.0
C      1  0.4982400000000  0.4982510000000  0.5282020000000 1.0
C      1  0.5020830000000  0.5037900000000  0.4604750000000 1.0
C      1  0.5006250000000  0.5014000000000  0.5619790000000 1.0
C      1  0.5002450000000  0.5003900000000  0.4942980000000 1.0
END
