TITL C-3289325-7307-406 -0.000570040575896064 125000 -1115.77247713343 0 0 194 (C1) n - 1
REM
REM in /nfs/bkarasulu/CARBON/AIRSS/Generating-Clusters/AIREBO/with-SteepDescent/Higher-Symm/SD-CG/HFTN-CG
REM
REM
REM
REM
REM
REM ./C.cell (b20cbc046b6831c77cfcea5457e17084)
REM
REM compiler GCC version 9.2.1 20190827 (Red Hat 9.2.1-1)
REM options -cpp -mtune=generic -march=x86-64 -g -O0 -fpre-include=/usr/include/finclude/math-vector-fortran.h
REM seed 2046916786 -1304296503 1011056096 2048957638 45028782 -983635403 -1345339169 1755118275 -1146678873 547902330 1166370319 503836364 -201467999 -2116403312 1280937184 -60385691 1487183614 -1369151544 1294747827 -848102895 -1752384326 418431672 1337481742 -381845894 702126066 -322584497 -1137107446 -1680732978 405505237 -642443080 1956998622 1416507124 1953891310
REM
CELL 1.54180   50.00000   50.00000   50.00000   90.00000   90.00000   90.00000
LATT -1
SFAC C  
C      1  0.4556490000000  0.5007110000000  0.5597340000000 1.0
C      1  0.5144050000000  0.5138800000000  0.5920080000000 1.0
C      1  0.5296240000000  0.5379020000000  0.5738340000000 1.0
C      1  0.5202660000000  0.5000690000000  0.5667540000000 1.0
C      1  0.5160530000000  0.4748960000000  0.5589660000000 1.0
C      1  0.4931230000000  0.4551990000000  0.5696160000000 1.0
C      1  0.4771720000000  0.4841470000000  0.5777290000000 1.0
C      1  0.5827550000000  0.4321240000000  0.4960630000000 1.0
C      1  0.5009070000000  0.3920550000000  0.4984160000000 1.0
C      1  0.4171590000000  0.4429100000000  0.5057890000000 1.0
C      1  0.4004620000000  0.5344750000000  0.5074000000000 1.0
C      1  0.4586620000000  0.6067820000000  0.4967480000000 1.0
C      1  0.5466570000000  0.5932870000000  0.4926320000000 1.0
C      1  0.6151680000000  0.5261980000000  0.4936170000000 1.0
C      1  0.4992190000000  0.5799510000000  0.4917380000000 1.0
C      1  0.5662280000000  0.5362820000000  0.4939080000000 1.0
C      1  0.5892890000000  0.4838720000000  0.5033080000000 1.0
C      1  0.5356920000000  0.4317280000000  0.4826250000000 1.0
C      1  0.4563390000000  0.4203040000000  0.5008350000000 1.0
C      1  0.4050300000000  0.4925160000000  0.5005100000000 1.0
C      1  0.4476060000000  0.5539710000000  0.5052490000000 1.0
C      1  0.5450970000000  0.4818220000000  0.4706250000000 1.0
C      1  0.5185720000000  0.4711770000000  0.4833200000000 1.0
C      1  0.4610570000000  0.4573830000000  0.4812590000000 1.0
C      1  0.4400010000000  0.5088320000000  0.4825490000000 1.0
C      1  0.4730830000000  0.5338930000000  0.4775830000000 1.0
C      1  0.5014680000000  0.5330130000000  0.4846350000000 1.0
C      1  0.5221360000000  0.5218290000000  0.5046480000000 1.0
C      1  0.5926550000000  0.5107100000000  0.4153890000000 1.0
C      1  0.5562040000000  0.4414430000000  0.4122510000000 1.0
C      1  0.5103350000000  0.3885030000000  0.4364210000000 1.0
C      1  0.4349130000000  0.4367600000000  0.4344140000000 1.0
C      1  0.4175080000000  0.5323450000000  0.4255130000000 1.0
C      1  0.4767650000000  0.5767620000000  0.4248580000000 1.0
C      1  0.5380740000000  0.5891160000000  0.4348710000000 1.0
C      1  0.5584630000000  0.4854840000000  0.5015390000000 1.0
C      1  0.5206030000000  0.4468770000000  0.5046210000000 1.0
C      1  0.4808830000000  0.4508140000000  0.5071320000000 1.0
C      1  0.4566470000000  0.4853280000000  0.4937630000000 1.0
C      1  0.4485840000000  0.5237490000000  0.5106310000000 1.0
C      1  0.4984170000000  0.5536660000000  0.5071250000000 1.0
C      1  0.5419290000000  0.5439970000000  0.5143280000000 1.0
C      1  0.4984180000000  0.5677120000000  0.4088780000000 1.0
C      1  0.5540560000000  0.5431690000000  0.4016580000000 1.0
C      1  0.5792120000000  0.4927700000000  0.3941460000000 1.0
C      1  0.5277780000000  0.4333600000000  0.4074390000000 1.0
C      1  0.4595560000000  0.4403140000000  0.3828620000000 1.0
C      1  0.4545340000000  0.4977220000000  0.3780920000000 1.0
C      1  0.4408130000000  0.5384650000000  0.4110420000000 1.0
C      1  0.4707770000000  0.4909750000000  0.5151850000000 1.0
C      1  0.4688790000000  0.5139350000000  0.5346220000000 1.0
C      1  0.4943360000000  0.5336650000000  0.5343210000000 1.0
C      1  0.5212810000000  0.5225420000000  0.5445930000000 1.0
C      1  0.5415750000000  0.5051960000000  0.5235230000000 1.0
C      1  0.5217350000000  0.4685230000000  0.5308320000000 1.0
C      1  0.4953320000000  0.4747900000000  0.5176890000000 1.0
C      1  0.5709000000000  0.4704490000000  0.5491820000000 1.0
C      1  0.5155350000000  0.4358400000000  0.5528160000000 1.0
C      1  0.4520830000000  0.4271310000000  0.5564320000000 1.0
C      1  0.4279810000000  0.4840360000000  0.5483750000000 1.0
C      1  0.4386960000000  0.5607250000000  0.5438390000000 1.0
C      1  0.5159320000000  0.5609820000000  0.5551620000000 1.0
C      1  0.5809340000000  0.5384180000000  0.5435420000000 1.0
C      1  0.4746260000000  0.4390660000000  0.4302880000000 1.0
C      1  0.4535330000000  0.4842070000000  0.4377080000000 1.0
C      1  0.4451760000000  0.5485500000000  0.4493410000000 1.0
C      1  0.5013010000000  0.5457750000000  0.4472240000000 1.0
C      1  0.5525140000000  0.5318400000000  0.4399890000000 1.0
C      1  0.5635240000000  0.4879550000000  0.4300980000000 1.0
C      1  0.5148690000000  0.4522070000000  0.4402480000000 1.0
C      1  0.4146770000000  0.5444100000000  0.4572300000000 1.0
C      1  0.4848680000000  0.5745540000000  0.4548480000000 1.0
C      1  0.5485590000000  0.5622620000000  0.4528990000000 1.0
C      1  0.5893910000000  0.4976250000000  0.4462730000000 1.0
C      1  0.5460150000000  0.4396600000000  0.4424020000000 1.0
C      1  0.4892920000000  0.4147800000000  0.4411880000000 1.0
C      1  0.4290940000000  0.4634490000000  0.4420440000000 1.0
C      1  0.4662880000000  0.4062060000000  0.4591810000000 1.0
C      1  0.4079680000000  0.4717780000000  0.4590960000000 1.0
C      1  0.4166030000000  0.5729770000000  0.4751460000000 1.0
C      1  0.5048650000000  0.6211080000000  0.4728730000000 1.0
C      1  0.5796330000000  0.5622510000000  0.4667720000000 1.0
C      1  0.6027770000000  0.4787580000000  0.4663180000000 1.0
C      1  0.5501690000000  0.3897690000000  0.4762630000000 1.0
C      1  0.4746220000000  0.4998560000000  0.6727090000000 1.0
C      1  0.4578200000000  0.4980140000000  0.6509420000000 1.0
C      1  0.4619780000000  0.5078000000000  0.6256490000000 1.0
C      1  0.4683100000000  0.5372770000000  0.6125520000000 1.0
C      1  0.4968340000000  0.5267600000000  0.6241010000000 1.0
C      1  0.5081740000000  0.5258100000000  0.6492030000000 1.0
C      1  0.4983030000000  0.5140570000000  0.6720770000000 1.0
C      1  0.4240050000000  0.5061040000000  0.5228090000000 1.0
C      1  0.4669870000000  0.5536470000000  0.5313570000000 1.0
C      1  0.5422670000000  0.5587340000000  0.5357470000000 1.0
C      1  0.5706270000000  0.5175120000000  0.5221200000000 1.0
C      1  0.5512200000000  0.4644970000000  0.5245080000000 1.0
C      1  0.4992970000000  0.4284720000000  0.5238170000000 1.0
C      1  0.4581020000000  0.4396450000000  0.5269900000000 1.0
C      1  0.4250550000000  0.4161160000000  0.5252830000000 1.0
C      1  0.3867260000000  0.5165470000000  0.5328170000000 1.0
C      1  0.4519600000000  0.6061100000000  0.5251030000000 1.0
C      1  0.5386960000000  0.6010100000000  0.5195600000000 1.0
C      1  0.6163810000000  0.5356280000000  0.5215110000000 1.0
C      1  0.5884050000000  0.4375090000000  0.5288990000000 1.0
C      1  0.5200470000000  0.3943970000000  0.5265650000000 1.0
C      1  0.4427500000000  0.5905000000000  0.4791840000000 1.0
C      1  0.5305190000000  0.6033120000000  0.4648440000000 1.0
C      1  0.6004160000000  0.5413410000000  0.4741680000000 1.0
C      1  0.5868550000000  0.4558630000000  0.4739350000000 1.0
C      1  0.5183840000000  0.3911390000000  0.4693570000000 1.0
C      1  0.4420760000000  0.4208210000000  0.4561060000000 1.0
C      1  0.3988470000000  0.4981750000000  0.4537370000000 1.0
C      1  0.5242380000000  0.4120020000000  0.5854350000000 1.0
C      1  0.4519650000000  0.4297860000000  0.5955480000000 1.0
C      1  0.4089920000000  0.4915970000000  0.5922650000000 1.0
C      1  0.4567100000000  0.5432880000000  0.5882910000000 1.0
C      1  0.5172290000000  0.5923130000000  0.5799140000000 1.0
C      1  0.5771320000000  0.5493120000000  0.5817720000000 1.0
C      1  0.5772790000000  0.4746160000000  0.5883930000000 1.0
C      1  0.4068130000000  0.4670050000000  0.4873790000000 1.0
C      1  0.4179430000000  0.5607170000000  0.5025410000000 1.0
C      1  0.4872450000000  0.6057180000000  0.4899020000000 1.0
C      1  0.5607440000000  0.5696970000000  0.4901820000000 1.0
C      1  0.6118420000000  0.4974530000000  0.4891670000000 1.0
C      1  0.5588550000000  0.4145950000000  0.4843600000000 1.0
C      1  0.4730280000000  0.4037980000000  0.4859190000000 1.0
C      1  0.4642100000000  0.5204040000000  0.4003330000000 1.0
C      1  0.4939290000000  0.5339560000000  0.4098310000000 1.0
C      1  0.5270000000000  0.5317250000000  0.4175020000000 1.0
C      1  0.5514810000000  0.5096660000000  0.4068610000000 1.0
C      1  0.5088110000000  0.4591730000000  0.4108420000000 1.0
C      1  0.4785360000000  0.4597320000000  0.4033320000000 1.0
C      1  0.4633080000000  0.4872180000000  0.4085460000000 1.0
C      1  0.4141930000000  0.5174190000000  0.5811800000000 1.0
C      1  0.4616000000000  0.5660500000000  0.5688690000000 1.0
C      1  0.5434590000000  0.5856990000000  0.5702770000000 1.0
C      1  0.5942660000000  0.5241410000000  0.5700290000000 1.0
C      1  0.5672780000000  0.4472720000000  0.5734890000000 1.0
C      1  0.4994980000000  0.4054310000000  0.5732250000000 1.0
C      1  0.4279710000000  0.4422290000000  0.5753910000000 1.0
C      1  0.4808840000000  0.3998920000000  0.5247810000000 1.0
C      1  0.4303280000000  0.4543680000000  0.5348400000000 1.0
C      1  0.4201250000000  0.5376160000000  0.5350800000000 1.0
C      1  0.4941260000000  0.5741030000000  0.5334750000000 1.0
C      1  0.5723550000000  0.5709500000000  0.5426720000000 1.0
C      1  0.5895280000000  0.4977480000000  0.5405550000000 1.0
C      1  0.5571710000000  0.4346520000000  0.5186010000000 1.0
C      1  0.5747160000000  0.5227580000000  0.4638830000000 1.0
C      1  0.5613730000000  0.4575900000000  0.4608010000000 1.0
C      1  0.5195170000000  0.4221660000000  0.4554820000000 1.0
C      1  0.4371340000000  0.4365710000000  0.4820860000000 1.0
C      1  0.4090910000000  0.5183270000000  0.4787380000000 1.0
C      1  0.4599070000000  0.5627590000000  0.4747880000000 1.0
C      1  0.5174650000000  0.5719210000000  0.4641930000000 1.0
C      1  0.4700730000000  0.4605820000000  0.4527280000000 1.0
C      1  0.4630080000000  0.5087850000000  0.4575120000000 1.0
C      1  0.4731430000000  0.5337530000000  0.4367600000000 1.0
C      1  0.5141430000000  0.5185410000000  0.4576430000000 1.0
C      1  0.5372090000000  0.5017140000000  0.4440480000000 1.0
C      1  0.5190960000000  0.4890770000000  0.4180700000000 1.0
C      1  0.4990160000000  0.4681420000000  0.4584540000000 1.0
C      1  0.4673050000000  0.5907330000000  0.5461340000000 1.0
C      1  0.5532000000000  0.5963170000000  0.5435040000000 1.0
C      1  0.6147370000000  0.5173720000000  0.5436790000000 1.0
C      1  0.5896450000000  0.4304970000000  0.5568600000000 1.0
C      1  0.5003670000000  0.3900760000000  0.5499060000000 1.0
C      1  0.4117890000000  0.4301790000000  0.5499310000000 1.0
C      1  0.3996300000000  0.5280510000000  0.5597190000000 1.0
C      1  0.5974470000000  0.4674250000000  0.5281940000000 1.0
C      1  0.5362780000000  0.4173290000000  0.5332080000000 1.0
C      1  0.4511770000000  0.4013400000000  0.5350260000000 1.0
C      1  0.3948260000000  0.4910210000000  0.5453880000000 1.0
C      1  0.4291350000000  0.5888670000000  0.5343390000000 1.0
C      1  0.5105150000000  0.6008720000000  0.5237910000000 1.0
C      1  0.6018590000000  0.5611390000000  0.5289700000000 1.0
C      1  0.3981050000000  0.5111280000000  0.4286460000000 1.0
C      1  0.4524020000000  0.5641800000000  0.4211580000000 1.0
C      1  0.5226520000000  0.5825420000000  0.4131450000000 1.0
C      1  0.5795630000000  0.5357620000000  0.4179380000000 1.0
C      1  0.5668730000000  0.4657630000000  0.4059570000000 1.0
C      1  0.5194970000000  0.4076970000000  0.4159470000000 1.0
C      1  0.4499710000000  0.4328230000000  0.4095070000000 1.0
C      1  0.5835340000000  0.4968850000000  0.5800580000000 1.0
C      1  0.5413250000000  0.4327480000000  0.5747550000000 1.0
C      1  0.4789140000000  0.4277760000000  0.5750500000000 1.0
C      1  0.4205200000000  0.4712480000000  0.5781250000000 1.0
C      1  0.4419800000000  0.5220590000000  0.5778170000000 1.0
C      1  0.4925620000000  0.5779580000000  0.5731160000000 1.0
C      1  0.5523900000000  0.5592870000000  0.5774370000000 1.0
C      1  0.5055140000000  0.5007850000000  0.3701590000000 1.0
C      1  0.5063290000000  0.4958280000000  0.4976640000000 1.0
C      1  0.4857900000000  0.5031260000000  0.6018330000000 1.0
C      1  0.4927390000000  0.4976000000000  0.4683100000000 1.0
C      1  0.5059050000000  0.5046990000000  0.3973180000000 1.0
END
