TITL C-3289325-7307-164 0.000147463664852123 125000 -417.288567632494 0 0 79 (C1) n - 1
REM
REM in /nfs/bkarasulu/CARBON/AIRSS/Generating-Clusters/AIREBO/with-SteepDescent/Higher-Symm/SD-CG/HFTN-CG
REM
REM
REM
REM
REM
REM ./C.cell (b20cbc046b6831c77cfcea5457e17084)
REM
REM compiler GCC version 9.2.1 20190827 (Red Hat 9.2.1-1)
REM options -cpp -mtune=generic -march=x86-64 -g -O0 -fpre-include=/usr/include/finclude/math-vector-fortran.h
REM seed -1949164110 435926754 -1649568140 -1386454328 -928563692 327086943 1273618812 -1077863384 884787420 1472610609 -1220307767 -1334109394 -894589816 -1031369774 -2044290185 141178386 1506325337 -2004124140 -579607869 -907765264 -1233309703 -1075461426 -1403360915 478346421 -2096525920 -99049878 281714484 -1099898120 708757111 -1412846692 -1922138860 636166993 1552264481
REM
CELL 1.54180   50.00000   50.00000   50.00000   90.00000   90.00000   90.00000
LATT -1
SFAC C  
C      1  0.4828030000000  0.4938100000000  0.4706760000000 1.0
C      1  0.4831170000000  0.5253050000000  0.5104800000000 1.0
C      1  0.4823290000000  0.4782780000000  0.5182660000000 1.0
C      1  0.5602810000000  0.5410880000000  0.4385400000000 1.0
C      1  0.5675120000000  0.5310210000000  0.5552070000000 1.0
C      1  0.5637110000000  0.4353300000000  0.5020970000000 1.0
C      1  0.4439990000000  0.5049490000000  0.5610890000000 1.0
C      1  0.4406630000000  0.4460920000000  0.4727560000000 1.0
C      1  0.4428450000000  0.5474770000000  0.4668190000000 1.0
C      1  0.5741910000000  0.4853330000000  0.5089330000000 1.0
C      1  0.5696050000000  0.4912390000000  0.4782260000000 1.0
C      1  0.5754250000000  0.5151780000000  0.4980370000000 1.0
C      1  0.3867340000000  0.5415740000000  0.5320980000000 1.0
C      1  0.3853990000000  0.4582970000000  0.5169110000000 1.0
C      1  0.3881390000000  0.5077210000000  0.4428820000000 1.0
C      1  0.5347390000000  0.6001590000000  0.4455910000000 1.0
C      1  0.5453700000000  0.5045480000000  0.6138990000000 1.0
C      1  0.5406590000000  0.4012030000000  0.4496150000000 1.0
C      1  0.5466750000000  0.4984590000000  0.4600920000000 1.0
C      1  0.5481390000000  0.5297140000000  0.5066330000000 1.0
C      1  0.5475410000000  0.4783040000000  0.5266080000000 1.0
C      1  0.5254500000000  0.4664400000000  0.5495720000000 1.0
C      1  0.5268670000000  0.4758980000000  0.4483840000000 1.0
C      1  0.5260030000000  0.5555200000000  0.5062820000000 1.0
C      1  0.4615200000000  0.5005880000000  0.5332850000000 1.0
C      1  0.4592680000000  0.4719150000000  0.4817650000000 1.0
C      1  0.4606040000000  0.5261310000000  0.4850070000000 1.0
C      1  0.5355710000000  0.5775040000000  0.4601720000000 1.0
C      1  0.5423350000000  0.5002450000000  0.5874710000000 1.0
C      1  0.5402620000000  0.4261200000000  0.4598920000000 1.0
C      1  0.5379610000000  0.4744210000000  0.5768940000000 1.0
C      1  0.5413860000000  0.4491160000000  0.4434830000000 1.0
C      1  0.5376690000000  0.5779830000000  0.4883600000000 1.0
C      1  0.4316450000000  0.4766170000000  0.4631680000000 1.0
C      1  0.4317740000000  0.5391560000000  0.4969450000000 1.0
C      1  0.4313930000000  0.4857060000000  0.5370370000000 1.0
C      1  0.5390630000000  0.5097040000000  0.5308680000000 1.0
C      1  0.5240270000000  0.4744690000000  0.5047890000000 1.0
C      1  0.5278360000000  0.5142640000000  0.4839770000000 1.0
C      1  0.4869410000000  0.5654410000000  0.5413020000000 1.0
C      1  0.4837610000000  0.4325430000000  0.5397700000000 1.0
C      1  0.4893670000000  0.5028440000000  0.4216350000000 1.0
C      1  0.4111110000000  0.5440140000000  0.5218350000000 1.0
C      1  0.4097770000000  0.4637540000000  0.5259310000000 1.0
C      1  0.4120160000000  0.4965830000000  0.4462760000000 1.0
C      1  0.5573060000000  0.5133050000000  0.4352320000000 1.0
C      1  0.5626590000000  0.5470980000000  0.5320000000000 1.0
C      1  0.5602870000000  0.4468050000000  0.5278480000000 1.0
C      1  0.4660780000000  0.4507510000000  0.5298630000000 1.0
C      1  0.4695710000000  0.4996000000000  0.4400390000000 1.0
C      1  0.4683800000000  0.5494860000000  0.5293160000000 1.0
C      1  0.4855850000000  0.4488270000000  0.4398960000000 1.0
C      1  0.4831900000000  0.5754220000000  0.4885260000000 1.0
C      1  0.4811190000000  0.4723920000000  0.5729360000000 1.0
C      1  0.5183750000000  0.5267450000000  0.5493460000000 1.0
C      1  0.5160100000000  0.4437280000000  0.5025430000000 1.0
C      1  0.5190740000000  0.5271460000000  0.4543890000000 1.0
C      1  0.4933990000000  0.5109510000000  0.5395480000000 1.0
C      1  0.4898570000000  0.4598990000000  0.4906520000000 1.0
C      1  0.4918990000000  0.5265800000000  0.4715050000000 1.0
C      1  0.5464270000000  0.5690400000000  0.5377670000000 1.0
C      1  0.5438160000000  0.4314470000000  0.5441950000000 1.0
C      1  0.5437210000000  0.5050260000000  0.4106720000000 1.0
C      1  0.4686810000000  0.4677270000000  0.5947400000000 1.0
C      1  0.4750970000000  0.4316760000000  0.4241610000000 1.0
C      1  0.4715790000000  0.5972730000000  0.4822280000000 1.0
C      1  0.5360130000000  0.5521360000000  0.4483360000000 1.0
C      1  0.5441580000000  0.5210720000000  0.5685610000000 1.0
C      1  0.5395320000000  0.4307970000000  0.4876870000000 1.0
C      1  0.5184340000000  0.5043900000000  0.4324960000000 1.0
C      1  0.5163620000000  0.5568480000000  0.5388610000000 1.0
C      1  0.5135290000000  0.4381350000000  0.5346660000000 1.0
C      1  0.4395060000000  0.4544360000000  0.5326500000000 1.0
C      1  0.4429850000000  0.4952330000000  0.4388140000000 1.0
C      1  0.4417990000000  0.5520410000000  0.5252100000000 1.0
C      1  0.4990630000000  0.5497830000000  0.4938100000000 1.0
C      1  0.4978980000000  0.4797000000000  0.5484610000000 1.0
C      1  0.5001670000000  0.4672840000000  0.4596790000000 1.0
C      1  0.5011610000000  0.4989220000000  0.4988530000000 1.0
END
