TITL C-3289333-7213-262 365.840976575978 125000 -800.30024490843 0 0 146 (C1) n - 1
REM
REM in /nfs/bkarasulu/CARBON/AIRSS/Generating-Clusters/AIREBO/with-SteepDescent/Higher-Symm/SD-CG/HFTN-CG
REM
REM
REM
REM
REM
REM ./C.cell (b20cbc046b6831c77cfcea5457e17084)
REM
REM compiler GCC version 9.2.1 20190827 (Red Hat 9.2.1-1)
REM options -cpp -mtune=generic -march=x86-64 -g -O0 -fpre-include=/usr/include/finclude/math-vector-fortran.h
REM seed 587107023 1201653092 1466274 -442901528 -1820289435 785592627 -1484043013 512939580 976244435 -1961792091 1440892137 -1520241834 -664856035 -1182351988 -901716904 -1524539395 -1057303287 -1588869904 -410016267 1521389675 -1802631916 812910393 591370474 2141791595 1926522657 2010424189 -949443588 -1921688853 -484298655 1545699590 -2075333755 -1203855028 -388328362
REM
CELL 1.54180   50.00000   50.00000   50.00000   90.00000   90.00000   90.00000
LATT -1
SFAC C  
C      1  0.4461450000000  0.4381350000000  0.4603020000000 1.0
C      1  0.4367750000000  0.5638140000000  0.5304240000000 1.0
C      1  0.4417740000000  0.4827140000000  0.4268590000000 1.0
C      1  0.4452960000000  0.5179170000000  0.5740860000000 1.0
C      1  0.4527570000000  0.5685850000000  0.5007090000000 1.0
C      1  0.4506250000000  0.4305540000000  0.4877390000000 1.0
C      1  0.5589490000000  0.5208480000000  0.5311380000000 1.0
C      1  0.5587390000000  0.4813810000000  0.4704460000000 1.0
C      1  0.4751710000000  0.5495690000000  0.4348500000000 1.0
C      1  0.4726610000000  0.4368770000000  0.5618020000000 1.0
C      1  0.5281710000000  0.4554590000000  0.4115520000000 1.0
C      1  0.5318660000000  0.5482950000000  0.5916080000000 1.0
C      1  0.5773410000000  0.5115570000000  0.4887380000000 1.0
C      1  0.5730300000000  0.4900080000000  0.5103160000000 1.0
C      1  0.4870620000000  0.4901940000000  0.4521460000000 1.0
C      1  0.4956920000000  0.5088350000000  0.5476070000000 1.0
C      1  0.5169120000000  0.5687650000000  0.5169470000000 1.0
C      1  0.5074910000000  0.4290930000000  0.4926450000000 1.0
C      1  0.5972300000000  0.4682160000000  0.5135900000000 1.0
C      1  0.5962820000000  0.5352690000000  0.4970730000000 1.0
C      1  0.5631490000000  0.5209690000000  0.4276230000000 1.0
C      1  0.5641460000000  0.4857230000000  0.5732480000000 1.0
C      1  0.5241550000000  0.5269090000000  0.5519910000000 1.0
C      1  0.5151550000000  0.4722440000000  0.4454390000000 1.0
C      1  0.5034860000000  0.4530850000000  0.4011690000000 1.0
C      1  0.5064510000000  0.5483380000000  0.6014830000000 1.0
C      1  0.4303110000000  0.4817210000000  0.5440250000000 1.0
C      1  0.4277590000000  0.5247820000000  0.4602970000000 1.0
C      1  0.4740390000000  0.5718930000000  0.4536550000000 1.0
C      1  0.4604110000000  0.4148820000000  0.5485570000000 1.0
C      1  0.4982060000000  0.4423070000000  0.5472890000000 1.0
C      1  0.4993550000000  0.5569100000000  0.4694980000000 1.0
C      1  0.4726690000000  0.4478250000000  0.5034180000000 1.0
C      1  0.4758550000000  0.5468130000000  0.4919200000000 1.0
C      1  0.4275720000000  0.4615490000000  0.4467260000000 1.0
C      1  0.4432830000000  0.5341120000000  0.5456940000000 1.0
C      1  0.4020100000000  0.5586690000000  0.4825880000000 1.0
C      1  0.4152110000000  0.4471010000000  0.5153200000000 1.0
C      1  0.5010000000000  0.4712340000000  0.5351600000000 1.0
C      1  0.5032130000000  0.5231590000000  0.4680200000000 1.0
C      1  0.4690780000000  0.4152370000000  0.4370200000000 1.0
C      1  0.4692210000000  0.5796370000000  0.5476170000000 1.0
C      1  0.4216700000000  0.4509300000000  0.5451200000000 1.0
C      1  0.4121670000000  0.5525350000000  0.4540240000000 1.0
C      1  0.4694510000000  0.4983280000000  0.4292840000000 1.0
C      1  0.4762660000000  0.5072870000000  0.5704450000000 1.0
C      1  0.4226430000000  0.5455420000000  0.4265320000000 1.0
C      1  0.4289900000000  0.4553360000000  0.5739530000000 1.0
C      1  0.6058230000000  0.5441390000000  0.4652850000000 1.0
C      1  0.5934790000000  0.4493100000000  0.5351060000000 1.0
C      1  0.4535690000000  0.5347600000000  0.4186170000000 1.0
C      1  0.4618990000000  0.4608810000000  0.5804810000000 1.0
C      1  0.5576720000000  0.4662840000000  0.5382580000000 1.0
C      1  0.5663380000000  0.5394020000000  0.4623700000000 1.0
C      1  0.5197760000000  0.4774420000000  0.4778020000000 1.0
C      1  0.5212130000000  0.5196230000000  0.5188940000000 1.0
C      1  0.4060560000000  0.4684620000000  0.4698870000000 1.0
C      1  0.3957630000000  0.5199960000000  0.5281920000000 1.0
C      1  0.4742680000000  0.5300650000000  0.5322840000000 1.0
C      1  0.4694500000000  0.4694720000000  0.4702170000000 1.0
C      1  0.5482700000000  0.5257640000000  0.4992240000000 1.0
C      1  0.5448210000000  0.4737500000000  0.5005150000000 1.0
C      1  0.5376600000000  0.4840580000000  0.4228480000000 1.0
C      1  0.5430530000000  0.5199770000000  0.5778430000000 1.0
C      1  0.5801260000000  0.4267960000000  0.5237380000000 1.0
C      1  0.5903780000000  0.5652230000000  0.4841270000000 1.0
C      1  0.5126100000000  0.5264180000000  0.4107910000000 1.0
C      1  0.5182200000000  0.4772980000000  0.5860660000000 1.0
C      1  0.5354850000000  0.5397290000000  0.4289660000000 1.0
C      1  0.5439170000000  0.4579900000000  0.5746610000000 1.0
C      1  0.5577870000000  0.5567700000000  0.4889380000000 1.0
C      1  0.5521070000000  0.4433090000000  0.5138190000000 1.0
C      1  0.4255980000000  0.4224920000000  0.5078140000000 1.0
C      1  0.4200300000000  0.5669020000000  0.5015390000000 1.0
C      1  0.4440080000000  0.5702860000000  0.5625070000000 1.0
C      1  0.4425630000000  0.4295950000000  0.4280560000000 1.0
C      1  0.4859460000000  0.5120640000000  0.6083550000000 1.0
C      1  0.4834810000000  0.4869520000000  0.3938400000000 1.0
C      1  0.5375800000000  0.5726710000000  0.5752890000000 1.0
C      1  0.5385770000000  0.4354850000000  0.4263270000000 1.0
C      1  0.4823700000000  0.4076030000000  0.4947580000000 1.0
C      1  0.4823950000000  0.5952100000000  0.4973210000000 1.0
C      1  0.5301650000000  0.5021510000000  0.6002190000000 1.0
C      1  0.5260200000000  0.5010610000000  0.4001170000000 1.0
C      1  0.4969040000000  0.4578330000000  0.4849930000000 1.0
C      1  0.5000020000000  0.5424950000000  0.5138640000000 1.0
C      1  0.5408990000000  0.4436260000000  0.4569920000000 1.0
C      1  0.5402790000000  0.5676680000000  0.5417670000000 1.0
C      1  0.5740740000000  0.5173540000000  0.5679390000000 1.0
C      1  0.5694780000000  0.4879290000000  0.4325700000000 1.0
C      1  0.5553200000000  0.4313600000000  0.4839010000000 1.0
C      1  0.5600370000000  0.5752600000000  0.5151530000000 1.0
C      1  0.3938840000000  0.4567820000000  0.4432850000000 1.0
C      1  0.4113180000000  0.5350920000000  0.5405990000000 1.0
C      1  0.5303850000000  0.4268720000000  0.5300700000000 1.0
C      1  0.5355960000000  0.5732400000000  0.4727820000000 1.0
C      1  0.5906790000000  0.5324530000000  0.5273200000000 1.0
C      1  0.5887010000000  0.4684750000000  0.4806680000000 1.0
C      1  0.4779560000000  0.5370880000000  0.5867320000000 1.0
C      1  0.4753090000000  0.4622550000000  0.4134130000000 1.0
C      1  0.5846790000000  0.5439340000000  0.5651610000000 1.0
C      1  0.5817770000000  0.4606070000000  0.4352430000000 1.0
C      1  0.5876230000000  0.4957210000000  0.4603500000000 1.0
C      1  0.5849480000000  0.5009070000000  0.5402360000000 1.0
C      1  0.5182700000000  0.4876740000000  0.5561920000000 1.0
C      1  0.4974450000000  0.5322770000000  0.4382420000000 1.0
C      1  0.4799070000000  0.5176640000000  0.4056820000000 1.0
C      1  0.4846070000000  0.4828690000000  0.5896270000000 1.0
C      1  0.4571420000000  0.4135200000000  0.5167910000000 1.0
C      1  0.4628960000000  0.5868380000000  0.4757420000000 1.0
C      1  0.4321380000000  0.5123720000000  0.4307010000000 1.0
C      1  0.4413670000000  0.4871520000000  0.5737440000000 1.0
C      1  0.4517700000000  0.5279300000000  0.4771010000000 1.0
C      1  0.4544120000000  0.4848990000000  0.5271480000000 1.0
C      1  0.5127670000000  0.5550550000000  0.5572600000000 1.0
C      1  0.5076250000000  0.4395820000000  0.4512050000000 1.0
C      1  0.4832690000000  0.5520440000000  0.5566400000000 1.0
C      1  0.4747530000000  0.4479490000000  0.4444020000000 1.0
C      1  0.5120810000000  0.5124540000000  0.6181610000000 1.0
C      1  0.5091140000000  0.4881140000000  0.3828710000000 1.0
C      1  0.4483230000000  0.4852590000000  0.4880880000000 1.0
C      1  0.4617080000000  0.5088710000000  0.5086650000000 1.0
C      1  0.5268440000000  0.5571850000000  0.4488370000000 1.0
C      1  0.5283510000000  0.4367250000000  0.5595290000000 1.0
C      1  0.4466720000000  0.5501700000000  0.5824040000000 1.0
C      1  0.4449710000000  0.4526530000000  0.4119570000000 1.0
C      1  0.3998230000000  0.5261060000000  0.4796400000000 1.0
C      1  0.4033330000000  0.4779830000000  0.5232640000000 1.0
C      1  0.5303820000000  0.4152340000000  0.4828570000000 1.0
C      1  0.5361800000000  0.5967160000000  0.5149920000000 1.0
C      1  0.4986550000000  0.4203970000000  0.5223510000000 1.0
C      1  0.5092420000000  0.5822680000000  0.4895150000000 1.0
C      1  0.5746750000000  0.4457310000000  0.4603770000000 1.0
C      1  0.5726380000000  0.5572080000000  0.5412850000000 1.0
C      1  0.5196430000000  0.4889710000000  0.5164940000000 1.0
C      1  0.5275400000000  0.5092950000000  0.4778610000000 1.0
C      1  0.4786220000000  0.5090360000000  0.4791610000000 1.0
C      1  0.4729530000000  0.4644470000000  0.5255970000000 1.0
C      1  0.5760370000000  0.4555110000000  0.5637450000000 1.0
C      1  0.5889950000000  0.5392100000000  0.4406140000000 1.0
C      1  0.4759190000000  0.5950240000000  0.5251470000000 1.0
C      1  0.4874470000000  0.4143400000000  0.4617890000000 1.0
C      1  0.4009260000000  0.5075260000000  0.5013950000000 1.0
C      1  0.4178140000000  0.4817920000000  0.4927370000000 1.0
C      1  0.5514540000000  0.5123230000000  0.4583620000000 1.0
C      1  0.5460820000000  0.4941440000000  0.5460280000000 1.0
END
