TITL C-3289322-3858-247 0.000864172447524024 125000 -1057.5798611508 0 0 188 (C1) n - 1
REM
REM in /nfs/bkarasulu/CARBON/AIRSS/Generating-Clusters/AIREBO/with-SteepDescent/Higher-Symm/SD-CG/HFTN-CG
REM
REM
REM
REM
REM
REM ./C.cell (b20cbc046b6831c77cfcea5457e17084)
REM
REM compiler GCC version 9.2.1 20190827 (Red Hat 9.2.1-1)
REM options -cpp -mtune=generic -march=x86-64 -g -O0 -fpre-include=/usr/include/finclude/math-vector-fortran.h
REM seed -113004538 -1082541693 -1529294520 1988031181 411135125 -970495547 -103438468 399406771 1743676812 -1904492449 -1545592924 2001794984 -1701384975 202605952 1878126495 2111891754 2008543563 483465019 -885203693 1368532375 -1837570507 1483744383 982810783 -610363418 -556646595 1373938115 2010811653 -425509317 -32787553 -776871508 708794419 -1396726771 -1423676313
REM
CELL 1.54180   50.00000   50.00000   50.00000   90.00000   90.00000   90.00000
LATT -1
SFAC C  
C      1  0.5092140000000  0.6098740000000  0.5201680000000 1.0
C      1  0.4147920000000  0.4396890000000  0.5255890000000 1.0
C      1  0.5844710000000  0.4440060000000  0.5216870000000 1.0
C      1  0.5048220000000  0.6124650000000  0.4884890000000 1.0
C      1  0.4038690000000  0.4479880000000  0.4646120000000 1.0
C      1  0.5863610000000  0.4413240000000  0.4898620000000 1.0
C      1  0.5453560000000  0.4182890000000  0.4469050000000 1.0
C      1  0.5367730000000  0.5621230000000  0.4440050000000 1.0
C      1  0.4237400000000  0.5052690000000  0.4402900000000 1.0
C      1  0.5597280000000  0.4106670000000  0.5687540000000 1.0
C      1  0.5365620000000  0.5702060000000  0.5600190000000 1.0
C      1  0.4189450000000  0.4900760000000  0.5588870000000 1.0
C      1  0.4690420000000  0.4958930000000  0.4484810000000 1.0
C      1  0.5249350000000  0.4899240000000  0.4400530000000 1.0
C      1  0.5019960000000  0.5281130000000  0.4440560000000 1.0
C      1  0.4699820000000  0.4897250000000  0.5412450000000 1.0
C      1  0.5228810000000  0.4889110000000  0.5435600000000 1.0
C      1  0.4930040000000  0.5287270000000  0.5562150000000 1.0
C      1  0.6083990000000  0.5069750000000  0.4666600000000 1.0
C      1  0.4370350000000  0.5944760000000  0.4678820000000 1.0
C      1  0.4719230000000  0.4104240000000  0.4590520000000 1.0
C      1  0.6021030000000  0.5211740000000  0.5317050000000 1.0
C      1  0.4374690000000  0.5939730000000  0.5404470000000 1.0
C      1  0.4720500000000  0.3969670000000  0.5492090000000 1.0
C      1  0.4406430000000  0.4829240000000  0.4499350000000 1.0
C      1  0.5435960000000  0.4503780000000  0.4531340000000 1.0
C      1  0.5078480000000  0.5565980000000  0.4545540000000 1.0
C      1  0.4398830000000  0.4792430000000  0.5414740000000 1.0
C      1  0.5497910000000  0.4682750000000  0.5460140000000 1.0
C      1  0.5107730000000  0.5562470000000  0.5470590000000 1.0
C      1  0.5465710000000  0.5080650000000  0.4240020000000 1.0
C      1  0.4629400000000  0.5487970000000  0.4171700000000 1.0
C      1  0.4970410000000  0.4648880000000  0.4261380000000 1.0
C      1  0.5433380000000  0.5026870000000  0.5651490000000 1.0
C      1  0.4641000000000  0.5320950000000  0.5738140000000 1.0
C      1  0.5033730000000  0.4665110000000  0.5703110000000 1.0
C      1  0.5548710000000  0.5103220000000  0.4769240000000 1.0
C      1  0.4698970000000  0.5475840000000  0.4769880000000 1.0
C      1  0.4762960000000  0.4620940000000  0.4729720000000 1.0
C      1  0.5370390000000  0.5071050000000  0.5057310000000 1.0
C      1  0.4680910000000  0.5516850000000  0.5088180000000 1.0
C      1  0.4850540000000  0.4718390000000  0.5043650000000 1.0
C      1  0.5265000000000  0.5108920000000  0.6163990000000 1.0
C      1  0.4647040000000  0.5174880000000  0.6012470000000 1.0
C      1  0.5020760000000  0.4694020000000  0.6025710000000 1.0
C      1  0.5144710000000  0.5055410000000  0.3754520000000 1.0
C      1  0.4750370000000  0.4956590000000  0.3927790000000 1.0
C      1  0.5043620000000  0.4564960000000  0.3946130000000 1.0
C      1  0.6128320000000  0.4799290000000  0.4713090000000 1.0
C      1  0.4601530000000  0.6081460000000  0.4730980000000 1.0
C      1  0.4420040000000  0.4175030000000  0.4665460000000 1.0
C      1  0.6034740000000  0.4933050000000  0.5256480000000 1.0
C      1  0.4621650000000  0.6144640000000  0.5419560000000 1.0
C      1  0.4477650000000  0.4039240000000  0.5383010000000 1.0
C      1  0.4787800000000  0.5648030000000  0.5464550000000 1.0
C      1  0.4568680000000  0.4518970000000  0.5483740000000 1.0
C      1  0.5807560000000  0.4744310000000  0.5546300000000 1.0
C      1  0.4898080000000  0.5808610000000  0.4436150000000 1.0
C      1  0.4389040000000  0.4551180000000  0.4338210000000 1.0
C      1  0.5681530000000  0.4698110000000  0.4502150000000 1.0
C      1  0.5916050000000  0.5485420000000  0.4848660000000 1.0
C      1  0.4070980000000  0.5631330000000  0.4875610000000 1.0
C      1  0.5018840000000  0.3992230000000  0.5054330000000 1.0
C      1  0.5991830000000  0.5457250000000  0.5130430000000 1.0
C      1  0.4047560000000  0.5482730000000  0.5119520000000 1.0
C      1  0.4951090000000  0.3900950000000  0.5306780000000 1.0
C      1  0.4878550000000  0.5636770000000  0.5789140000000 1.0
C      1  0.4397880000000  0.4584060000000  0.5754050000000 1.0
C      1  0.5681400000000  0.4644030000000  0.5812990000000 1.0
C      1  0.4918820000000  0.5756460000000  0.4108450000000 1.0
C      1  0.4295280000000  0.4777660000000  0.4118810000000 1.0
C      1  0.5633420000000  0.4603660000000  0.4199270000000 1.0
C      1  0.4916700000000  0.5356950000000  0.4125470000000 1.0
C      1  0.4582600000000  0.4954080000000  0.4162690000000 1.0
C      1  0.5490890000000  0.4808280000000  0.4065740000000 1.0
C      1  0.5010020000000  0.5338760000000  0.5888730000000 1.0
C      1  0.4585080000000  0.4735900000000  0.5945090000000 1.0
C      1  0.5488650000000  0.4830400000000  0.5886040000000 1.0
C      1  0.6170040000000  0.4498970000000  0.4770760000000 1.0
C      1  0.4880500000000  0.6055160000000  0.4597290000000 1.0
C      1  0.4242970000000  0.4354690000000  0.4508420000000 1.0
C      1  0.6049100000000  0.4638030000000  0.5378360000000 1.0
C      1  0.4917760000000  0.6207870000000  0.5379050000000 1.0
C      1  0.4180920000000  0.4128270000000  0.5379960000000 1.0
C      1  0.3816760000000  0.4791700000000  0.5107200000000 1.0
C      1  0.5750700000000  0.3958310000000  0.5121190000000 1.0
C      1  0.5478730000000  0.6093140000000  0.5099760000000 1.0
C      1  0.3759080000000  0.4825730000000  0.4839090000000 1.0
C      1  0.5673160000000  0.3966840000000  0.4848010000000 1.0
C      1  0.5444390000000  0.6098070000000  0.4846050000000 1.0
C      1  0.5294160000000  0.4842700000000  0.6082930000000 1.0
C      1  0.4959900000000  0.5173130000000  0.6147720000000 1.0
C      1  0.4780690000000  0.4884760000000  0.6128990000000 1.0
C      1  0.5281460000000  0.4762580000000  0.3855810000000 1.0
C      1  0.4940380000000  0.5152560000000  0.3904750000000 1.0
C      1  0.4804610000000  0.4718820000000  0.3810780000000 1.0
C      1  0.5465640000000  0.5555960000000  0.5171990000000 1.0
C      1  0.4219600000000  0.5243370000000  0.5110700000000 1.0
C      1  0.5337060000000  0.4226350000000  0.5239390000000 1.0
C      1  0.5354350000000  0.5565840000000  0.4850780000000 1.0
C      1  0.4187780000000  0.5082400000000  0.4856360000000 1.0
C      1  0.5239640000000  0.4209580000000  0.4914000000000 1.0
C      1  0.4389870000000  0.4357730000000  0.4896400000000 1.0
C      1  0.5831580000000  0.4702290000000  0.4762250000000 1.0
C      1  0.4782740000000  0.5937310000000  0.4963330000000 1.0
C      1  0.4480830000000  0.4339600000000  0.5223570000000 1.0
C      1  0.5791830000000  0.4753610000000  0.5096020000000 1.0
C      1  0.4738200000000  0.5869430000000  0.5267820000000 1.0
C      1  0.4119760000000  0.5431230000000  0.5448210000000 1.0
C      1  0.5105000000000  0.3990010000000  0.5596600000000 1.0
C      1  0.5749800000000  0.5503580000000  0.5335450000000 1.0
C      1  0.4128300000000  0.5540850000000  0.4552460000000 1.0
C      1  0.5015800000000  0.3995900000000  0.4480160000000 1.0
C      1  0.5813710000000  0.5594200000000  0.4611200000000 1.0
C      1  0.4754720000000  0.5068950000000  0.4767050000000 1.0
C      1  0.5190730000000  0.4772780000000  0.4691710000000 1.0
C      1  0.5053040000000  0.5075600000000  0.4698010000000 1.0
C      1  0.4697370000000  0.5017090000000  0.5098170000000 1.0
C      1  0.5115870000000  0.4687260000000  0.5200590000000 1.0
C      1  0.4890970000000  0.5286410000000  0.5224290000000 1.0
C      1  0.4404240000000  0.4840760000000  0.5090320000000 1.0
C      1  0.5443000000000  0.4746820000000  0.5129530000000 1.0
C      1  0.5078960000000  0.5626260000000  0.5137820000000 1.0
C      1  0.4433330000000  0.4669240000000  0.4798180000000 1.0
C      1  0.5427090000000  0.4586690000000  0.4850540000000 1.0
C      1  0.4958440000000  0.5683840000000  0.4841160000000 1.0
C      1  0.5565300000000  0.4276140000000  0.4841540000000 1.0
C      1  0.5232060000000  0.5868950000000  0.4756740000000 1.0
C      1  0.4102370000000  0.4758760000000  0.4830020000000 1.0
C      1  0.5670270000000  0.4187520000000  0.5251840000000 1.0
C      1  0.5312920000000  0.5853230000000  0.5234770000000 1.0
C      1  0.4115170000000  0.4675340000000  0.5159410000000 1.0
C      1  0.4455710000000  0.5770290000000  0.5120550000000 1.0
C      1  0.4755930000000  0.4391820000000  0.5052490000000 1.0
C      1  0.5677360000000  0.5070200000000  0.5143960000000 1.0
C      1  0.4263990000000  0.5830860000000  0.4906540000000 1.0
C      1  0.4835740000000  0.4163170000000  0.4895480000000 1.0
C      1  0.5854050000000  0.5181790000000  0.4875680000000 1.0
C      1  0.5361940000000  0.5330700000000  0.5739990000000 1.0
C      1  0.4325140000000  0.5181970000000  0.5935940000000 1.0
C      1  0.5322270000000  0.4531720000000  0.5679400000000 1.0
C      1  0.5492220000000  0.5399310000000  0.4218080000000 1.0
C      1  0.4338230000000  0.5404410000000  0.4089410000000 1.0
C      1  0.5216930000000  0.4446770000000  0.4286680000000 1.0
C      1  0.5568890000000  0.5720730000000  0.4643930000000 1.0
C      1  0.4153550000000  0.5225710000000  0.4587590000000 1.0
C      1  0.5259690000000  0.4051040000000  0.4622410000000 1.0
C      1  0.5607700000000  0.5744970000000  0.5493730000000 1.0
C      1  0.4028530000000  0.5114500000000  0.5519690000000 1.0
C      1  0.5403220000000  0.4044510000000  0.5507390000000 1.0
C      1  0.5796790000000  0.5416850000000  0.4382830000000 1.0
C      1  0.4129440000000  0.5547450000000  0.4212550000000 1.0
C      1  0.5132100000000  0.4121200000000  0.4239190000000 1.0
C      1  0.5662030000000  0.5340050000000  0.5841510000000 1.0
C      1  0.4193870000000  0.5370430000000  0.5775100000000 1.0
C      1  0.5216950000000  0.4234870000000  0.5804680000000 1.0
C      1  0.5821170000000  0.5284330000000  0.5582770000000 1.0
C      1  0.4326920000000  0.5677780000000  0.5557420000000 1.0
C      1  0.4840990000000  0.4173370000000  0.5708460000000 1.0
C      1  0.5890530000000  0.5158110000000  0.4454090000000 1.0
C      1  0.4384960000000  0.5739760000000  0.4448640000000 1.0
C      1  0.4781700000000  0.4283000000000  0.4330050000000 1.0
C      1  0.4483450000000  0.5231020000000  0.4811700000000 1.0
C      1  0.5061790000000  0.4481040000000  0.4812000000000 1.0
C      1  0.5292530000000  0.5290480000000  0.4738030000000 1.0
C      1  0.4494180000000  0.5266220000000  0.5209070000000 1.0
C      1  0.5098810000000  0.4423640000000  0.5337030000000 1.0
C      1  0.5221120000000  0.5320390000000  0.5143220000000 1.0
C      1  0.4279300000000  0.4874540000000  0.5891420000000 1.0
C      1  0.5592350000000  0.4363790000000  0.5795880000000 1.0
C      1  0.5200960000000  0.5606770000000  0.5856410000000 1.0
C      1  0.4309200000000  0.5118830000000  0.4115300000000 1.0
C      1  0.5521350000000  0.4330880000000  0.4184050000000 1.0
C      1  0.5189180000000  0.5556860000000  0.4163200000000 1.0
C      1  0.5501420000000  0.5268480000000  0.6107420000000 1.0
C      1  0.4545940000000  0.5643440000000  0.5791890000000 1.0
C      1  0.4973760000000  0.4366300000000  0.5961750000000 1.0
C      1  0.5368090000000  0.4933530000000  0.3572450000000 1.0
C      1  0.4591160000000  0.5820570000000  0.4182480000000 1.0
C      1  0.4933320000000  0.4280990000000  0.4061220000000 1.0
C      1  0.4703650000000  0.4565550000000  0.4421410000000 1.0
C      1  0.5633530000000  0.4995350000000  0.4493800000000 1.0
C      1  0.4668730000000  0.5589510000000  0.4493820000000 1.0
C      1  0.4855810000000  0.4444140000000  0.5554120000000 1.0
C      1  0.5693880000000  0.5029740000000  0.5454350000000 1.0
C      1  0.4543290000000  0.5436760000000  0.5453980000000 1.0
C      1  0.4950380000000  0.4953140000000  0.5567830000000 1.0
C      1  0.4958160000000  0.4979420000000  0.4296350000000 1.0
END
