TITL C-3289330-4660-286 -0.00233414815913621 125000 -860.88297429313 0 0 157 (C1) n - 1
REM
REM in /nfs/bkarasulu/CARBON/AIRSS/Generating-Clusters/AIREBO/with-SteepDescent/Higher-Symm/SD-CG/HFTN-CG
REM
REM
REM
REM
REM
REM ./C.cell (b20cbc046b6831c77cfcea5457e17084)
REM
REM compiler GCC version 9.2.1 20190827 (Red Hat 9.2.1-1)
REM options -cpp -mtune=generic -march=x86-64 -g -O0 -fpre-include=/usr/include/finclude/math-vector-fortran.h
REM seed -134005548 -1533417978 1744503161 34849270 1737429259 -1690014862 399804710 9982762 1746239562 897490624 -1002632912 -1325210862 -51099586 881742459 1600896405 -1086085658 1506980534 -1116990840 1465751181 2114861726 2113643272 -1235939582 -1843312462 -850172804 -458494021 1004590271 158344158 -1534572322 1555277216 -165812154 1052577372 971903158 271497096
REM
CELL 1.54180   50.00000   50.00000   50.00000   90.00000   90.00000   90.00000
LATT -1
SFAC C  
C      1  0.4134320000000  0.4335470000000  0.5061960000000 1.0
C      1  0.4085570000000  0.4625360000000  0.5547770000000 1.0
C      1  0.4101460000000  0.5176690000000  0.5533260000000 1.0
C      1  0.4028160000000  0.5602110000000  0.5152980000000 1.0
C      1  0.4137690000000  0.5659970000000  0.4726310000000 1.0
C      1  0.4169700000000  0.5066190000000  0.4412180000000 1.0
C      1  0.4216650000000  0.4592770000000  0.4560240000000 1.0
C      1  0.4814990000000  0.4195020000000  0.4294280000000 1.0
C      1  0.4766780000000  0.3973220000000  0.5397650000000 1.0
C      1  0.4866530000000  0.4460940000000  0.5863270000000 1.0
C      1  0.4875240000000  0.5464210000000  0.5888880000000 1.0
C      1  0.4659220000000  0.6092290000000  0.5204550000000 1.0
C      1  0.4735140000000  0.5890850000000  0.4376990000000 1.0
C      1  0.4783950000000  0.5018400000000  0.3896710000000 1.0
C      1  0.5449000000000  0.5271570000000  0.4517630000000 1.0
C      1  0.5415550000000  0.4829710000000  0.4511960000000 1.0
C      1  0.5498380000000  0.4478140000000  0.4874620000000 1.0
C      1  0.5554250000000  0.4523840000000  0.5421700000000 1.0
C      1  0.5428480000000  0.4955090000000  0.5534270000000 1.0
C      1  0.5424280000000  0.5490700000000  0.5360430000000 1.0
C      1  0.5453560000000  0.5546570000000  0.4967740000000 1.0
C      1  0.5233380000000  0.4645300000000  0.4827770000000 1.0
C      1  0.5118350000000  0.4677920000000  0.5117020000000 1.0
C      1  0.5171980000000  0.4910560000000  0.5341750000000 1.0
C      1  0.5086600000000  0.5238820000000  0.5316790000000 1.0
C      1  0.5232060000000  0.5319490000000  0.5019520000000 1.0
C      1  0.5191210000000  0.5256070000000  0.4712520000000 1.0
C      1  0.5139920000000  0.4936970000000  0.4679910000000 1.0
C      1  0.4731900000000  0.4758720000000  0.4224220000000 1.0
C      1  0.4740190000000  0.4343310000000  0.4791340000000 1.0
C      1  0.4727610000000  0.4474580000000  0.5305340000000 1.0
C      1  0.4713510000000  0.4831650000000  0.5712060000000 1.0
C      1  0.4742900000000  0.5566210000000  0.5525610000000 1.0
C      1  0.4664620000000  0.5704130000000  0.4867970000000 1.0
C      1  0.4701620000000  0.5411120000000  0.4196220000000 1.0
C      1  0.4794570000000  0.5493910000000  0.5197400000000 1.0
C      1  0.4726300000000  0.5447490000000  0.4665390000000 1.0
C      1  0.4818130000000  0.5204640000000  0.4444290000000 1.0
C      1  0.4829200000000  0.4867630000000  0.4799280000000 1.0
C      1  0.4855640000000  0.4604270000000  0.4951330000000 1.0
C      1  0.4739400000000  0.4817150000000  0.5313800000000 1.0
C      1  0.4765860000000  0.5149590000000  0.5247540000000 1.0
C      1  0.5487420000000  0.5871420000000  0.5006270000000 1.0
C      1  0.5456570000000  0.5580020000000  0.4374110000000 1.0
C      1  0.5455550000000  0.4681220000000  0.4211440000000 1.0
C      1  0.5475610000000  0.4171040000000  0.4742630000000 1.0
C      1  0.5476040000000  0.4198140000000  0.5454100000000 1.0
C      1  0.5609720000000  0.4586140000000  0.5881070000000 1.0
C      1  0.5527560000000  0.5611070000000  0.5622440000000 1.0
C      1  0.5278220000000  0.4044010000000  0.5236200000000 1.0
C      1  0.5355720000000  0.4423830000000  0.5803640000000 1.0
C      1  0.5466830000000  0.5345510000000  0.5825910000000 1.0
C      1  0.5449470000000  0.5888210000000  0.5345390000000 1.0
C      1  0.5298760000000  0.5795150000000  0.4527640000000 1.0
C      1  0.5268980000000  0.4897030000000  0.4030360000000 1.0
C      1  0.5502870000000  0.4218580000000  0.4412130000000 1.0
C      1  0.4829420000000  0.4202120000000  0.5719290000000 1.0
C      1  0.5218980000000  0.4835190000000  0.6009470000000 1.0
C      1  0.5256690000000  0.5822260000000  0.5843860000000 1.0
C      1  0.4824570000000  0.6168130000000  0.4771970000000 1.0
C      1  0.5001860000000  0.5538670000000  0.4198840000000 1.0
C      1  0.4875210000000  0.4568080000000  0.4005000000000 1.0
C      1  0.4779010000000  0.3954410000000  0.4708470000000 1.0
C      1  0.4518550000000  0.4010720000000  0.4795590000000 1.0
C      1  0.4556500000000  0.4192870000000  0.5656620000000 1.0
C      1  0.4683970000000  0.5059850000000  0.5927750000000 1.0
C      1  0.4276110000000  0.5618320000000  0.5616480000000 1.0
C      1  0.4647030000000  0.6029170000000  0.4601620000000 1.0
C      1  0.4769960000000  0.5293630000000  0.3892330000000 1.0
C      1  0.4835510000000  0.4297300000000  0.4039170000000 1.0
C      1  0.5044020000000  0.4130080000000  0.5466170000000 1.0
C      1  0.5104610000000  0.4582040000000  0.5921950000000 1.0
C      1  0.5178960000000  0.5521250000000  0.5793080000000 1.0
C      1  0.4879560000000  0.6069400000000  0.5032880000000 1.0
C      1  0.5006690000000  0.5779480000000  0.4389110000000 1.0
C      1  0.4989790000000  0.4830940000000  0.3920600000000 1.0
C      1  0.4952510000000  0.4112470000000  0.4543140000000 1.0
C      1  0.5593440000000  0.4960450000000  0.4123550000000 1.0
C      1  0.5763390000000  0.4248270000000  0.4588730000000 1.0
C      1  0.5527320000000  0.4253880000000  0.5128760000000 1.0
C      1  0.5754460000000  0.4615160000000  0.5643610000000 1.0
C      1  0.5773470000000  0.5426070000000  0.5690720000000 1.0
C      1  0.5739670000000  0.5795040000000  0.5221070000000 1.0
C      1  0.5758110000000  0.5548850000000  0.4301420000000 1.0
C      1  0.5013020000000  0.4238660000000  0.4965470000000 1.0
C      1  0.5226510000000  0.4539830000000  0.5510920000000 1.0
C      1  0.5409010000000  0.5051820000000  0.5820890000000 1.0
C      1  0.5178540000000  0.5706000000000  0.5282030000000 1.0
C      1  0.5188760000000  0.5677530000000  0.4824150000000 1.0
C      1  0.5256520000000  0.5110200000000  0.4276670000000 1.0
C      1  0.5140120000000  0.4618830000000  0.4440200000000 1.0
C      1  0.4174390000000  0.5830600000000  0.5166010000000 1.0
C      1  0.4319940000000  0.5700740000000  0.4452850000000 1.0
C      1  0.4206190000000  0.4916140000000  0.4140600000000 1.0
C      1  0.4299830000000  0.4313370000000  0.4464260000000 1.0
C      1  0.4249160000000  0.4140820000000  0.5269500000000 1.0
C      1  0.4214350000000  0.4578170000000  0.5786490000000 1.0
C      1  0.4250300000000  0.5342890000000  0.5713700000000 1.0
C      1  0.4468350000000  0.4470650000000  0.5500130000000 1.0
C      1  0.4569500000000  0.5124680000000  0.5614200000000 1.0
C      1  0.4460560000000  0.5631470000000  0.5362070000000 1.0
C      1  0.4406870000000  0.5860920000000  0.4737120000000 1.0
C      1  0.4456830000000  0.5189370000000  0.4277030000000 1.0
C      1  0.4531540000000  0.4634180000000  0.4436570000000 1.0
C      1  0.4459420000000  0.4297350000000  0.4968790000000 1.0
C      1  0.4553690000000  0.4577120000000  0.5798210000000 1.0
C      1  0.4580840000000  0.5407450000000  0.5764610000000 1.0
C      1  0.4491620000000  0.5841610000000  0.5126840000000 1.0
C      1  0.4549570000000  0.5691050000000  0.4291280000000 1.0
C      1  0.4529130000000  0.4943710000000  0.4065370000000 1.0
C      1  0.4625100000000  0.4335340000000  0.4504810000000 1.0
C      1  0.4577570000000  0.4172950000000  0.5259210000000 1.0
C      1  0.5795110000000  0.4400850000000  0.5129050000000 1.0
C      1  0.5891190000000  0.4832860000000  0.5547150000000 1.0
C      1  0.5962520000000  0.5440320000000  0.5481460000000 1.0
C      1  0.5862380000000  0.5540830000000  0.5227680000000 1.0
C      1  0.5859550000000  0.5318160000000  0.4402040000000 1.0
C      1  0.5746920000000  0.5050610000000  0.4343760000000 1.0
C      1  0.5914340000000  0.4435360000000  0.4710430000000 1.0
C      1  0.4495210000000  0.5407900000000  0.5106590000000 1.0
C      1  0.4460380000000  0.5316910000000  0.4827830000000 1.0
C      1  0.4539690000000  0.5103870000000  0.4595530000000 1.0
C      1  0.4528460000000  0.4813260000000  0.4694290000000 1.0
C      1  0.4524610000000  0.4631560000000  0.4983460000000 1.0
C      1  0.4415700000000  0.4720140000000  0.5275170000000 1.0
C      1  0.4434950000000  0.5170150000000  0.5323000000000 1.0
C      1  0.5740480000000  0.5379560000000  0.4958240000000 1.0
C      1  0.5730690000000  0.5222660000000  0.4701830000000 1.0
C      1  0.5686980000000  0.4893280000000  0.4643350000000 1.0
C      1  0.5757980000000  0.4681600000000  0.4847190000000 1.0
C      1  0.5725090000000  0.4703700000000  0.5185520000000 1.0
C      1  0.5686620000000  0.4986210000000  0.5349320000000 1.0
C      1  0.5575780000000  0.5263690000000  0.5220010000000 1.0
C      1  0.4132880000000  0.5291130000000  0.5223460000000 1.0
C      1  0.4077090000000  0.5399550000000  0.4902940000000 1.0
C      1  0.4169730000000  0.5173670000000  0.4724650000000 1.0
C      1  0.4079340000000  0.4867140000000  0.4664890000000 1.0
C      1  0.4139170000000  0.4616450000000  0.4884720000000 1.0
C      1  0.4034220000000  0.4622580000000  0.5208360000000 1.0
C      1  0.4143610000000  0.4898130000000  0.5374910000000 1.0
C      1  0.5264820000000  0.4040270000000  0.4907110000000 1.0
C      1  0.5444990000000  0.4123760000000  0.5738230000000 1.0
C      1  0.5533100000000  0.4818280000000  0.6018950000000 1.0
C      1  0.5456620000000  0.5928670000000  0.5657910000000 1.0
C      1  0.5426700000000  0.5984110000000  0.4728320000000 1.0
C      1  0.5243680000000  0.5412570000000  0.4207890000000 1.0
C      1  0.5343750000000  0.4399160000000  0.4279090000000 1.0
C      1  0.5052250000000  0.5492860000000  0.5501660000000 1.0
C      1  0.4956960000000  0.5745870000000  0.5036880000000 1.0
C      1  0.5027320000000  0.5509850000000  0.4595860000000 1.0
C      1  0.4992930000000  0.4918400000000  0.4373780000000 1.0
C      1  0.5117630000000  0.4367380000000  0.4668660000000 1.0
C      1  0.5039570000000  0.4394870000000  0.5266570000000 1.0
C      1  0.4966740000000  0.4753860000000  0.5550640000000 1.0
C      1  0.6220530000000  0.5368280000000  0.5511290000000 1.0
C      1  0.4919590000000  0.5072550000000  0.4984640000000 1.0
C      1  0.5368600000000  0.5041090000000  0.5114310000000 1.0
END
