TITL C-3289333-7213-496 -0.000447928693841038 125000 -474.829119836659 0 0 85 (C1) n - 1
REM
REM in /nfs/bkarasulu/CARBON/AIRSS/Generating-Clusters/AIREBO/with-SteepDescent/Higher-Symm/SD-CG/HFTN-CG
REM
REM
REM
REM
REM
REM ./C.cell (b20cbc046b6831c77cfcea5457e17084)
REM
REM compiler GCC version 9.2.1 20190827 (Red Hat 9.2.1-1)
REM options -cpp -mtune=generic -march=x86-64 -g -O0 -fpre-include=/usr/include/finclude/math-vector-fortran.h
REM seed 1936794286 1910537467 -1023866446 -1101725182 121923450 -236023431 -609062376 -292591370 670136814 2022263116 -2064144506 -1882125273 -1733293909 -2141333781 -1495104948 1984736550 1370148822 710856188 289177131 1948569555 1463311664 -1442961269 -1982130138 1292497660 -1524441312 1045661660 1801382690 1282149569 -496258052 -148185314 -1440695623 -272610135 -1138985491
REM
CELL 1.54180   50.00000   50.00000   50.00000   90.00000   90.00000   90.00000
LATT -1
SFAC C  
C      1  0.5080430000000  0.5407590000000  0.4285620000000 1.0
C      1  0.5293010000000  0.4701090000000  0.4249920000000 1.0
C      1  0.4582750000000  0.4885150000000  0.4277660000000 1.0
C      1  0.4987720000000  0.5228260000000  0.5776000000000 1.0
C      1  0.5150170000000  0.4933190000000  0.5755010000000 1.0
C      1  0.4810340000000  0.4937460000000  0.5740210000000 1.0
C      1  0.4373230000000  0.5189150000000  0.5054280000000 1.0
C      1  0.5386580000000  0.5426720000000  0.5189980000000 1.0
C      1  0.5240260000000  0.4357040000000  0.5087980000000 1.0
C      1  0.4273690000000  0.5297510000000  0.4831760000000 1.0
C      1  0.5368290000000  0.5457880000000  0.4911360000000 1.0
C      1  0.5179650000000  0.4156480000000  0.4906020000000 1.0
C      1  0.5693490000000  0.4585990000000  0.4870750000000 1.0
C      1  0.4343970000000  0.4742790000000  0.4975240000000 1.0
C      1  0.5004490000000  0.5833250000000  0.4945250000000 1.0
C      1  0.5815480000000  0.4717780000000  0.5072880000000 1.0
C      1  0.4443280000000  0.4630710000000  0.5203500000000 1.0
C      1  0.4929580000000  0.5730950000000  0.5184320000000 1.0
C      1  0.5398910000000  0.4721060000000  0.4792380000000 1.0
C      1  0.4606380000000  0.4820040000000  0.4787200000000 1.0
C      1  0.5062130000000  0.5401400000000  0.4822680000000 1.0
C      1  0.5218530000000  0.4676540000000  0.5035010000000 1.0
C      1  0.4632460000000  0.5008000000000  0.5054790000000 1.0
C      1  0.5094350000000  0.5243090000000  0.5105610000000 1.0
C      1  0.4876670000000  0.5885240000000  0.4654760000000 1.0
C      1  0.5841800000000  0.4658320000000  0.4507310000000 1.0
C      1  0.4280610000000  0.4446340000000  0.4547320000000 1.0
C      1  0.4838790000000  0.5917560000000  0.5525280000000 1.0
C      1  0.5757510000000  0.4652120000000  0.5607590000000 1.0
C      1  0.4389040000000  0.4367730000000  0.5533110000000 1.0
C      1  0.5279000000000  0.5571370000000  0.4429460000000 1.0
C      1  0.5348750000000  0.4443200000000  0.4380210000000 1.0
C      1  0.4328110000000  0.4958490000000  0.4419600000000 1.0
C      1  0.5165150000000  0.5476740000000  0.5625860000000 1.0
C      1  0.5300700000000  0.4638980000000  0.5763610000000 1.0
C      1  0.4491050000000  0.4916280000000  0.5625110000000 1.0
C      1  0.4997250000000  0.4227140000000  0.4706500000000 1.0
C      1  0.4358090000000  0.5560060000000  0.4652810000000 1.0
C      1  0.5568040000000  0.5357920000000  0.4753590000000 1.0
C      1  0.5042550000000  0.4422360000000  0.5288500000000 1.0
C      1  0.4379930000000  0.5355220000000  0.5287060000000 1.0
C      1  0.5616630000000  0.5284720000000  0.5303410000000 1.0
C      1  0.5675130000000  0.4892780000000  0.5483920000000 1.0
C      1  0.4675800000000  0.4421590000000  0.5452040000000 1.0
C      1  0.4676600000000  0.5663110000000  0.5503370000000 1.0
C      1  0.5654420000000  0.4883980000000  0.4532190000000 1.0
C      1  0.4571140000000  0.4477790000000  0.4539490000000 1.0
C      1  0.4758550000000  0.5619640000000  0.4574580000000 1.0
C      1  0.5453150000000  0.5386820000000  0.5576910000000 1.0
C      1  0.5160730000000  0.4565680000000  0.5521350000000 1.0
C      1  0.4392790000000  0.5182300000000  0.5531900000000 1.0
C      1  0.5519950000000  0.5408070000000  0.4483920000000 1.0
C      1  0.5098980000000  0.4309790000000  0.4463280000000 1.0
C      1  0.4357900000000  0.5244430000000  0.4527930000000 1.0
C      1  0.4693490000000  0.5239240000000  0.5506280000000 1.0
C      1  0.5272610000000  0.5138830000000  0.5442060000000 1.0
C      1  0.4973000000000  0.4799330000000  0.5402670000000 1.0
C      1  0.4660590000000  0.5178640000000  0.4407840000000 1.0
C      1  0.5302380000000  0.5175430000000  0.4381530000000 1.0
C      1  0.4996110000000  0.4629330000000  0.4369260000000 1.0
C      1  0.4906260000000  0.4806770000000  0.5069320000000 1.0
C      1  0.4817570000000  0.5222260000000  0.5216780000000 1.0
C      1  0.5289350000000  0.4970610000000  0.5163760000000 1.0
C      1  0.4878940000000  0.4697030000000  0.4681400000000 1.0
C      1  0.4801790000000  0.5240410000000  0.4711020000000 1.0
C      1  0.5309350000000  0.5017840000000  0.4683120000000 1.0
C      1  0.5454760000000  0.4912670000000  0.4327750000000 1.0
C      1  0.4689000000000  0.4636650000000  0.4336320000000 1.0
C      1  0.4818120000000  0.5441240000000  0.4366630000000 1.0
C      1  0.5460300000000  0.4992700000000  0.5635420000000 1.0
C      1  0.4777280000000  0.4640560000000  0.5594380000000 1.0
C      1  0.4771020000000  0.5462270000000  0.5686690000000 1.0
C      1  0.5629300000000  0.4977700000000  0.5157730000000 1.0
C      1  0.4753100000000  0.4509600000000  0.5132690000000 1.0
C      1  0.4660690000000  0.5523000000000  0.5193870000000 1.0
C      1  0.5616430000000  0.5057130000000  0.4824130000000 1.0
C      1  0.4758710000000  0.4404970000000  0.4807290000000 1.0
C      1  0.4622100000000  0.5491880000000  0.4856010000000 1.0
C      1  0.4383280000000  0.4689100000000  0.5495010000000 1.0
C      1  0.5072690000000  0.5695960000000  0.5467750000000 1.0
C      1  0.5568880000000  0.4556430000000  0.5792710000000 1.0
C      1  0.4303510000000  0.4754390000000  0.4647340000000 1.0
C      1  0.5141270000000  0.5681260000000  0.4672270000000 1.0
C      1  0.5550310000000  0.4501550000000  0.4585170000000 1.0
C      1  0.4998900000000  0.4984400000000  0.4794290000000 1.0
END
