TITL C-3289323-3850-106 -0.00240469610397461 125000 -658.59917667385 0 0 118 (C1) n - 1
REM
REM in /nfs/bkarasulu/CARBON/AIRSS/Generating-Clusters/AIREBO/with-SteepDescent/Higher-Symm/SD-CG/HFTN-CG
REM
REM
REM
REM
REM
REM ./C.cell (b20cbc046b6831c77cfcea5457e17084)
REM
REM compiler GCC version 9.2.1 20190827 (Red Hat 9.2.1-1)
REM options -cpp -mtune=generic -march=x86-64 -g -O0 -fpre-include=/usr/include/finclude/math-vector-fortran.h
REM seed 589452369 1569895900 -1616582956 -1176203413 -1798982096 -215125051 -1069254111 1886133649 1197509134 1077638407 1177112335 169668536 -362047597 -1177598115 644909025 -1131039884 1957739864 1700077962 -343664267 -2022332390 -7920071 -121584068 393191428 1234806233 -1742274845 -1710789211 841525165 -738076128 854950896 -1980381705 1433402689 -1055674459 315014633
REM
CELL 1.54180   50.00000   50.00000   50.00000   90.00000   90.00000   90.00000
LATT -1
SFAC C  
C      1  0.4962070000000  0.4595790000000  0.4221030000000 1.0
C      1  0.5761020000000  0.4624230000000  0.4942770000000 1.0
C      1  0.5049670000000  0.4595770000000  0.5739710000000 1.0
C      1  0.4217790000000  0.4633850000000  0.5041540000000 1.0
C      1  0.4970250000000  0.5378010000000  0.4295840000000 1.0
C      1  0.5735880000000  0.5401100000000  0.4954680000000 1.0
C      1  0.5019930000000  0.5408870000000  0.5736310000000 1.0
C      1  0.4286330000000  0.5415110000000  0.5035030000000 1.0
C      1  0.4663780000000  0.5248020000000  0.4269830000000 1.0
C      1  0.5759730000000  0.5268870000000  0.4642280000000 1.0
C      1  0.5328200000000  0.5381190000000  0.5894890000000 1.0
C      1  0.4261110000000  0.5283010000000  0.5347350000000 1.0
C      1  0.4620180000000  0.4698130000000  0.4133720000000 1.0
C      1  0.5817830000000  0.4716920000000  0.4620560000000 1.0
C      1  0.5363430000000  0.4646540000000  0.5860530000000 1.0
C      1  0.4081050000000  0.4691250000000  0.5350600000000 1.0
C      1  0.5502010000000  0.4956340000000  0.5839900000000 1.0
C      1  0.4270460000000  0.4863720000000  0.5581860000000 1.0
C      1  0.4343330000000  0.4857460000000  0.4252110000000 1.0
C      1  0.5707880000000  0.4857320000000  0.4349720000000 1.0
C      1  0.5619930000000  0.5218130000000  0.5829590000000 1.0
C      1  0.4205050000000  0.5162400000000  0.5646320000000 1.0
C      1  0.4361190000000  0.5132010000000  0.4213920000000 1.0
C      1  0.5781410000000  0.5127360000000  0.4337070000000 1.0
C      1  0.5310800000000  0.5758680000000  0.5402790000000 1.0
C      1  0.4575450000000  0.5729570000000  0.5310560000000 1.0
C      1  0.4701700000000  0.5709370000000  0.4565490000000 1.0
C      1  0.5435840000000  0.5722320000000  0.4676100000000 1.0
C      1  0.5330740000000  0.4273910000000  0.5363020000000 1.0
C      1  0.4619930000000  0.4261570000000  0.5317900000000 1.0
C      1  0.4655590000000  0.4278390000000  0.4601900000000 1.0
C      1  0.5398350000000  0.4261910000000  0.4633780000000 1.0
C      1  0.4793440000000  0.4566800000000  0.5027880000000 1.0
C      1  0.4974930000000  0.4539710000000  0.4792150000000 1.0
C      1  0.5274040000000  0.4555310000000  0.4886430000000 1.0
C      1  0.4959240000000  0.4606590000000  0.5272650000000 1.0
C      1  0.4754740000000  0.5420040000000  0.4975150000000 1.0
C      1  0.5034830000000  0.5418530000000  0.4812720000000 1.0
C      1  0.5250170000000  0.5440160000000  0.5041710000000 1.0
C      1  0.4976620000000  0.5422440000000  0.5207370000000 1.0
C      1  0.5308370000000  0.4214750000000  0.5089800000000 1.0
C      1  0.4892340000000  0.4213070000000  0.5289370000000 1.0
C      1  0.4682100000000  0.4215240000000  0.4877090000000 1.0
C      1  0.5125750000000  0.4195160000000  0.4664320000000 1.0
C      1  0.5307590000000  0.5824650000000  0.5125180000000 1.0
C      1  0.4858210000000  0.5792200000000  0.5299020000000 1.0
C      1  0.4700660000000  0.5793940000000  0.4839580000000 1.0
C      1  0.5153350000000  0.5778700000000  0.4686250000000 1.0
C      1  0.5549460000000  0.4361640000000  0.4914140000000 1.0
C      1  0.5067540000000  0.4407530000000  0.5482530000000 1.0
C      1  0.4485800000000  0.4424760000000  0.5056550000000 1.0
C      1  0.4939370000000  0.4399390000000  0.4486840000000 1.0
C      1  0.5503740000000  0.5610790000000  0.4956540000000 1.0
C      1  0.5041140000000  0.5590910000000  0.5487020000000 1.0
C      1  0.4517540000000  0.5613460000000  0.5032870000000 1.0
C      1  0.4974890000000  0.5570570000000  0.4521320000000 1.0
C      1  0.5465650000000  0.4432650000000  0.4389890000000 1.0
C      1  0.5572660000000  0.4376460000000  0.5436010000000 1.0
C      1  0.4522960000000  0.4372370000000  0.5592040000000 1.0
C      1  0.4401710000000  0.4439810000000  0.4522420000000 1.0
C      1  0.5543590000000  0.5569030000000  0.4470330000000 1.0
C      1  0.5580120000000  0.5661620000000  0.5505220000000 1.0
C      1  0.4463480000000  0.5582560000000  0.5518480000000 1.0
C      1  0.4492290000000  0.5567440000000  0.4452920000000 1.0
C      1  0.4784440000000  0.4813290000000  0.5769940000000 1.0
C      1  0.4177120000000  0.4859650000000  0.4767990000000 1.0
C      1  0.5210250000000  0.4832850000000  0.4190910000000 1.0
C      1  0.5819370000000  0.4867880000000  0.5175520000000 1.0
C      1  0.4824090000000  0.5136550000000  0.5671590000000 1.0
C      1  0.4317340000000  0.5168220000000  0.4797160000000 1.0
C      1  0.5212660000000  0.5142260000000  0.4333240000000 1.0
C      1  0.5712270000000  0.5187170000000  0.5223050000000 1.0
C      1  0.4328260000000  0.4512220000000  0.5411140000000 1.0
C      1  0.4623240000000  0.4634960000000  0.4428600000000 1.0
C      1  0.5510140000000  0.4643850000000  0.4633980000000 1.0
C      1  0.5559080000000  0.4644090000000  0.5605140000000 1.0
C      1  0.4562290000000  0.5271310000000  0.5505630000000 1.0
C      1  0.4496250000000  0.5263360000000  0.4565400000000 1.0
C      1  0.5447420000000  0.5260290000000  0.4507800000000 1.0
C      1  0.5384580000000  0.5407340000000  0.5577060000000 1.0
C      1  0.3997960000000  0.4867680000000  0.5120180000000 1.0
C      1  0.4868170000000  0.4820970000000  0.3988220000000 1.0
C      1  0.6031440000000  0.4812810000000  0.4844650000000 1.0
C      1  0.5133020000000  0.4852190000000  0.5953680000000 1.0
C      1  0.4077610000000  0.5166190000000  0.5110590000000 1.0
C      1  0.4901270000000  0.5127930000000  0.4084010000000 1.0
C      1  0.5927540000000  0.5128110000000  0.4881320000000 1.0
C      1  0.5089850000000  0.5171660000000  0.5966860000000 1.0
C      1  0.4240320000000  0.4720400000000  0.4494100000000 1.0
C      1  0.5490270000000  0.4703920000000  0.4240830000000 1.0
C      1  0.5777480000000  0.4624000000000  0.5364740000000 1.0
C      1  0.4522320000000  0.4677470000000  0.5711940000000 1.0
C      1  0.4307800000000  0.5428300000000  0.4254770000000 1.0
C      1  0.5727700000000  0.5422630000000  0.4275270000000 1.0
C      1  0.5710120000000  0.5345450000000  0.5523660000000 1.0
C      1  0.4268940000000  0.5443540000000  0.5712870000000 1.0
C      1  0.5325080000000  0.4849740000000  0.5023070000000 1.0
C      1  0.5131580000000  0.4844740000000  0.5278380000000 1.0
C      1  0.4582210000000  0.4798920000000  0.4995140000000 1.0
C      1  0.5046120000000  0.4840480000000  0.4720720000000 1.0
C      1  0.5393170000000  0.5161410000000  0.5148170000000 1.0
C      1  0.4948140000000  0.5126500000000  0.5355570000000 1.0
C      1  0.4626220000000  0.5130420000000  0.4929980000000 1.0
C      1  0.5064800000000  0.5163910000000  0.4619350000000 1.0
C      1  0.5350470000000  0.4895240000000  0.4696300000000 1.0
C      1  0.5344300000000  0.4884400000000  0.5540750000000 1.0
C      1  0.4461840000000  0.4805460000000  0.5306830000000 1.0
C      1  0.4737060000000  0.4796880000000  0.4602470000000 1.0
C      1  0.5432880000000  0.5170450000000  0.4814330000000 1.0
C      1  0.5269790000000  0.5180730000000  0.5437710000000 1.0
C      1  0.4629700000000  0.5075810000000  0.5265570000000 1.0
C      1  0.4760210000000  0.5100070000000  0.4628490000000 1.0
C      1  0.3897720000000  0.5033880000000  0.4853640000000 1.0
C      1  0.5148510000000  0.4992940000000  0.3897310000000 1.0
C      1  0.6129590000000  0.4994200000000  0.5116850000000 1.0
C      1  0.4835890000000  0.4976310000000  0.6063920000000 1.0
C      1  0.5002890000000  0.4167260000000  0.4980140000000 1.0
C      1  0.5004860000000  0.5796130000000  0.4991840000000 1.0
END
