TITL C-3289328-6581-309 -0.00102147039571396 125000 -1060.36910688883 0 0 194 (C1) n - 1
REM
REM in /nfs/bkarasulu/CARBON/AIRSS/Generating-Clusters/AIREBO/with-SteepDescent/Higher-Symm/SD-CG/HFTN-CG
REM
REM
REM
REM
REM
REM ./C.cell (b20cbc046b6831c77cfcea5457e17084)
REM
REM compiler GCC version 9.2.1 20190827 (Red Hat 9.2.1-1)
REM options -cpp -mtune=generic -march=x86-64 -g -O0 -fpre-include=/usr/include/finclude/math-vector-fortran.h
REM seed -262204992 -1054279802 1604287910 1942512381 -2106336083 2012467222 -2001364832 1940141596 -2080907187 1868281037 758309599 -1994865087 1904186001 941943131 -280921548 2056582559 -935611060 432076257 1182527496 -1256527573 -379191938 474067781 -1478455966 213821828 908957976 1808059861 -971265121 159213278 1567198521 -840697940 687517275 1115015005 -855431168
REM
CELL 1.54180   50.00000   50.00000   50.00000   90.00000   90.00000   90.00000
LATT -1
SFAC C  
C      1  0.4568640000000  0.4005210000000  0.4491430000000 1.0
C      1  0.3906080000000  0.4873970000000  0.4510020000000 1.0
C      1  0.4350180000000  0.5722850000000  0.4598890000000 1.0
C      1  0.5396720000000  0.5995030000000  0.4554960000000 1.0
C      1  0.6025790000000  0.5234010000000  0.4455930000000 1.0
C      1  0.5745000000000  0.4307620000000  0.4580020000000 1.0
C      1  0.4638530000000  0.5886370000000  0.5396810000000 1.0
C      1  0.3967880000000  0.5195060000000  0.5415350000000 1.0
C      1  0.4281580000000  0.4274250000000  0.5482100000000 1.0
C      1  0.5317680000000  0.3981690000000  0.5486190000000 1.0
C      1  0.5993520000000  0.4812860000000  0.5399600000000 1.0
C      1  0.5658670000000  0.5830580000000  0.5463360000000 1.0
C      1  0.5456580000000  0.4837160000000  0.5036980000000 1.0
C      1  0.5085140000000  0.4477280000000  0.5100350000000 1.0
C      1  0.4656090000000  0.4598470000000  0.5093340000000 1.0
C      1  0.4560310000000  0.5088250000000  0.5114690000000 1.0
C      1  0.4956460000000  0.5421340000000  0.5109890000000 1.0
C      1  0.5350540000000  0.5311300000000  0.5004210000000 1.0
C      1  0.5480860000000  0.5070560000000  0.4855660000000 1.0
C      1  0.5134480000000  0.5500270000000  0.4860130000000 1.0
C      1  0.4772930000000  0.5243460000000  0.4950850000000 1.0
C      1  0.4510970000000  0.4829960000000  0.4954730000000 1.0
C      1  0.4839430000000  0.4418310000000  0.4911260000000 1.0
C      1  0.5284550000000  0.4620080000000  0.4900690000000 1.0
C      1  0.4822330000000  0.4090380000000  0.5314700000000 1.0
C      1  0.4249730000000  0.4713560000000  0.5329220000000 1.0
C      1  0.4391670000000  0.5575690000000  0.5416690000000 1.0
C      1  0.5144340000000  0.5743730000000  0.5350900000000 1.0
C      1  0.5779900000000  0.5339800000000  0.5128570000000 1.0
C      1  0.5675120000000  0.4570250000000  0.5344740000000 1.0
C      1  0.4838740000000  0.5835110000000  0.4793920000000 1.0
C      1  0.4393550000000  0.5301900000000  0.4686390000000 1.0
C      1  0.4258790000000  0.4457460000000  0.4787390000000 1.0
C      1  0.5208620000000  0.4087620000000  0.4748240000000 1.0
C      1  0.5901560000000  0.4717290000000  0.4772210000000 1.0
C      1  0.5657880000000  0.5416290000000  0.4548850000000 1.0
C      1  0.4119080000000  0.4154700000000  0.5003230000000 1.0
C      1  0.3871250000000  0.5192600000000  0.5030340000000 1.0
C      1  0.4587900000000  0.6043780000000  0.5022590000000 1.0
C      1  0.5690400000000  0.5945310000000  0.4938170000000 1.0
C      1  0.6192010000000  0.4875650000000  0.4989830000000 1.0
C      1  0.5644860000000  0.3950670000000  0.4969090000000 1.0
C      1  0.4279560000000  0.5903250000000  0.5052200000000 1.0
C      1  0.3785900000000  0.4899310000000  0.5022700000000 1.0
C      1  0.4399900000000  0.4098060000000  0.4968280000000 1.0
C      1  0.5870070000000  0.4118760000000  0.4908840000000 1.0
C      1  0.6130710000000  0.5210190000000  0.4988330000000 1.0
C      1  0.5451450000000  0.6103950000000  0.4939610000000 1.0
C      1  0.5193160000000  0.5225380000000  0.3752470000000 1.0
C      1  0.5329460000000  0.4995380000000  0.3860290000000 1.0
C      1  0.5188250000000  0.4751660000000  0.3879110000000 1.0
C      1  0.4903810000000  0.4771390000000  0.3898630000000 1.0
C      1  0.4748130000000  0.5002920000000  0.3854710000000 1.0
C      1  0.4896290000000  0.5241200000000  0.3816660000000 1.0
C      1  0.5146400000000  0.4848450000000  0.6178470000000 1.0
C      1  0.5183120000000  0.5114020000000  0.6303080000000 1.0
C      1  0.4953040000000  0.5202130000000  0.6436440000000 1.0
C      1  0.4718730000000  0.5176330000000  0.6279000000000 1.0
C      1  0.4669010000000  0.4920400000000  0.6155580000000 1.0
C      1  0.4892100000000  0.4753330000000  0.6106070000000 1.0
C      1  0.4024520000000  0.5214890000000  0.5708900000000 1.0
C      1  0.4689340000000  0.5735210000000  0.5627290000000 1.0
C      1  0.5710610000000  0.5733380000000  0.5714430000000 1.0
C      1  0.5804920000000  0.4850230000000  0.5626860000000 1.0
C      1  0.5205490000000  0.3979830000000  0.5746140000000 1.0
C      1  0.4484250000000  0.4180030000000  0.5717050000000 1.0
C      1  0.3978140000000  0.4794720000000  0.4259940000000 1.0
C      1  0.4769560000000  0.4202890000000  0.4368020000000 1.0
C      1  0.5531390000000  0.4227310000000  0.4329670000000 1.0
C      1  0.5856580000000  0.5198700000000  0.4204700000000 1.0
C      1  0.5295630000000  0.5975640000000  0.4300760000000 1.0
C      1  0.4291240000000  0.5724000000000  0.4322890000000 1.0
C      1  0.5758570000000  0.5230600000000  0.4807220000000 1.0
C      1  0.5508750000000  0.4437040000000  0.5079780000000 1.0
C      1  0.4902470000000  0.4103130000000  0.4852910000000 1.0
C      1  0.4238000000000  0.4763220000000  0.4875470000000 1.0
C      1  0.4539780000000  0.5458950000000  0.4932830000000 1.0
C      1  0.5171610000000  0.5837900000000  0.4844480000000 1.0
C      1  0.5760550000000  0.4763610000000  0.5078370000000 1.0
C      1  0.5566650000000  0.5573980000000  0.5004230000000 1.0
C      1  0.4894260000000  0.5755480000000  0.5120140000000 1.0
C      1  0.4262880000000  0.5152770000000  0.4962750000000 1.0
C      1  0.4344150000000  0.4465020000000  0.5117070000000 1.0
C      1  0.5128900000000  0.4149480000000  0.5179310000000 1.0
C      1  0.4385630000000  0.4487960000000  0.5801640000000 1.0
C      1  0.4228030000000  0.5398830000000  0.5833670000000 1.0
C      1  0.4913990000000  0.5790550000000  0.5777740000000 1.0
C      1  0.5735780000000  0.5452140000000  0.5699950000000 1.0
C      1  0.5723940000000  0.4617170000000  0.5790130000000 1.0
C      1  0.4976660000000  0.4144130000000  0.5779390000000 1.0
C      1  0.4318460000000  0.5463740000000  0.4216620000000 1.0
C      1  0.4195880000000  0.4613390000000  0.4253780000000 1.0
C      1  0.5039740000000  0.4256180000000  0.4330200000000 1.0
C      1  0.5705710000000  0.4503350000000  0.4234150000000 1.0
C      1  0.5732220000000  0.5452890000000  0.4095150000000 1.0
C      1  0.5038570000000  0.5860020000000  0.4305840000000 1.0
C      1  0.4727630000000  0.5364710000000  0.6036490000000 1.0
C      1  0.5064050000000  0.5336510000000  0.5994120000000 1.0
C      1  0.5316880000000  0.5157920000000  0.5992210000000 1.0
C      1  0.5354160000000  0.4820080000000  0.5980900000000 1.0
C      1  0.4863670000000  0.4613200000000  0.5863580000000 1.0
C      1  0.4528130000000  0.4945490000000  0.5912050000000 1.0
C      1  0.4826340000000  0.4668370000000  0.4145700000000 1.0
C      1  0.5280980000000  0.4626720000000  0.4115790000000 1.0
C      1  0.5444110000000  0.5047700000000  0.4116890000000 1.0
C      1  0.5199790000000  0.5437160000000  0.3981020000000 1.0
C      1  0.4875420000000  0.5421720000000  0.4081910000000 1.0
C      1  0.4564470000000  0.5025850000000  0.4077250000000 1.0
C      1  0.5555110000000  0.5020800000000  0.5528700000000 1.0
C      1  0.5269260000000  0.4499880000000  0.5603810000000 1.0
C      1  0.4563340000000  0.4461770000000  0.5449710000000 1.0
C      1  0.4331170000000  0.5130840000000  0.5555890000000 1.0
C      1  0.4665900000000  0.5424900000000  0.5553280000000 1.0
C      1  0.5418030000000  0.5388210000000  0.5467850000000 1.0
C      1  0.5680910000000  0.5034630000000  0.4438610000000 1.0
C      1  0.5338170000000  0.5479400000000  0.4487010000000 1.0
C      1  0.4773050000000  0.5419300000000  0.4466490000000 1.0
C      1  0.4427560000000  0.4914600000000  0.4530130000000 1.0
C      1  0.4645320000000  0.4493900000000  0.4451660000000 1.0
C      1  0.5493530000000  0.4546950000000  0.4559770000000 1.0
C      1  0.4861040000000  0.5968190000000  0.4481740000000 1.0
C      1  0.5810050000000  0.5559140000000  0.4368920000000 1.0
C      1  0.5868210000000  0.4657270000000  0.4438790000000 1.0
C      1  0.5272890000000  0.4142080000000  0.4433800000000 1.0
C      1  0.4164570000000  0.4420120000000  0.4460450000000 1.0
C      1  0.4278920000000  0.5281680000000  0.4446540000000 1.0
C      1  0.4746330000000  0.4085480000000  0.5625320000000 1.0
C      1  0.5784760000000  0.4457390000000  0.5557890000000 1.0
C      1  0.5845900000000  0.5390400000000  0.5458340000000 1.0
C      1  0.5111880000000  0.5869830000000  0.5595280000000 1.0
C      1  0.4253850000000  0.5638250000000  0.5696810000000 1.0
C      1  0.4215750000000  0.4649450000000  0.5596470000000 1.0
C      1  0.5919160000000  0.4989210000000  0.4651710000000 1.0
C      1  0.5475090000000  0.4295560000000  0.4772370000000 1.0
C      1  0.4435900000000  0.4293250000000  0.4564780000000 1.0
C      1  0.4143860000000  0.4993410000000  0.4686710000000 1.0
C      1  0.4635730000000  0.5618320000000  0.4666680000000 1.0
C      1  0.5444000000000  0.5707470000000  0.4716230000000 1.0
C      1  0.5783000000000  0.5040490000000  0.5276710000000 1.0
C      1  0.5432840000000  0.5649710000000  0.5313860000000 1.0
C      1  0.4577190000000  0.5659370000000  0.5155230000000 1.0
C      1  0.4199140000000  0.5011910000000  0.5265920000000 1.0
C      1  0.4564490000000  0.4222540000000  0.5208120000000 1.0
C      1  0.5380280000000  0.4290770000000  0.5358940000000 1.0
C      1  0.5841720000000  0.4375720000000  0.5046280000000 1.0
C      1  0.4886370000000  0.3851490000000  0.5081370000000 1.0
C      1  0.3838040000000  0.4594290000000  0.5166520000000 1.0
C      1  0.4143490000000  0.5642160000000  0.5222310000000 1.0
C      1  0.5160010000000  0.6053350000000  0.5107390000000 1.0
C      1  0.6064860000000  0.5522180000000  0.5114880000000 1.0
C      1  0.5829830000000  0.5663520000000  0.4808130000000 1.0
C      1  0.4853830000000  0.6170850000000  0.4845810000000 1.0
C      1  0.4075110000000  0.5427510000000  0.4892370000000 1.0
C      1  0.3888490000000  0.4372150000000  0.4916920000000 1.0
C      1  0.5376990000000  0.3992110000000  0.5007600000000 1.0
C      1  0.6201810000000  0.4592720000000  0.4797340000000 1.0
C      1  0.5324870000000  0.4907400000000  0.5305370000000 1.0
C      1  0.5139110000000  0.4665720000000  0.5365700000000 1.0
C      1  0.4808750000000  0.4738360000000  0.5330780000000 1.0
C      1  0.4558560000000  0.4947820000000  0.5426460000000 1.0
C      1  0.4929410000000  0.5302400000000  0.5398280000000 1.0
C      1  0.5242830000000  0.5216350000000  0.5295200000000 1.0
C      1  0.5367860000000  0.4965640000000  0.4552580000000 1.0
C      1  0.5186520000000  0.5237540000000  0.4646930000000 1.0
C      1  0.4862990000000  0.5162250000000  0.4643040000000 1.0
C      1  0.4682910000000  0.4881390000000  0.4708640000000 1.0
C      1  0.4825130000000  0.4612550000000  0.4668230000000 1.0
C      1  0.5139480000000  0.4718770000000  0.4604500000000 1.0
C      1  0.5067670000000  0.4553430000000  0.4315960000000 1.0
C      1  0.4512230000000  0.4738190000000  0.4255900000000 1.0
C      1  0.4593610000000  0.5313910000000  0.4202950000000 1.0
C      1  0.5047430000000  0.5565540000000  0.4327560000000 1.0
C      1  0.5428820000000  0.5365010000000  0.4179730000000 1.0
C      1  0.5510120000000  0.4772360000000  0.4305560000000 1.0
C      1  0.4938420000000  0.5626140000000  0.5997590000000 1.0
C      1  0.4531340000000  0.5248130000000  0.5804500000000 1.0
C      1  0.4601940000000  0.4716270000000  0.5671960000000 1.0
C      1  0.5033590000000  0.4415160000000  0.5778740000000 1.0
C      1  0.5448330000000  0.4621440000000  0.5830470000000 1.0
C      1  0.5492360000000  0.5251260000000  0.5761040000000 1.0
C      1  0.4855760000000  0.6075270000000  0.5229800000000 1.0
C      1  0.5802830000000  0.5734440000000  0.5189160000000 1.0
C      1  0.6055190000000  0.4615740000000  0.5161740000000 1.0
C      1  0.5145990000000  0.3824180000000  0.5283160000000 1.0
C      1  0.4060480000000  0.4356740000000  0.5270340000000 1.0
C      1  0.3919040000000  0.5444800000000  0.5253850000000 1.0
C      1  0.4596190000000  0.4002500000000  0.4786980000000 1.0
C      1  0.6039210000000  0.4332440000000  0.4705410000000 1.0
C      1  0.6034620000000  0.5415710000000  0.4734640000000 1.0
C      1  0.5181880000000  0.6160540000000  0.4736860000000 1.0
C      1  0.4177180000000  0.5693280000000  0.4827740000000 1.0
C      1  0.3917150000000  0.4685920000000  0.4792530000000 1.0
C      1  0.4948900000000  0.5003210000000  0.5451450000000 1.0
C      1  0.4978940000000  0.4952010000000  0.4432090000000 1.0
END
