TITL C-3289325-7307-31 0.00691080862343123 125000 -960.691805164211 0 0 172 (C1) n - 1
REM
REM in /nfs/bkarasulu/CARBON/AIRSS/Generating-Clusters/AIREBO/with-SteepDescent/Higher-Symm/SD-CG/HFTN-CG
REM
REM
REM
REM
REM
REM ./C.cell (b20cbc046b6831c77cfcea5457e17084)
REM
REM compiler GCC version 9.2.1 20190827 (Red Hat 9.2.1-1)
REM options -cpp -mtune=generic -march=x86-64 -g -O0 -fpre-include=/usr/include/finclude/math-vector-fortran.h
REM seed -2128307775 2077541527 917302650 1355979494 -824146797 -293909836 -1914327308 -858658543 1373859525 1456511253 -449819276 -438081844 -355731135 -522175330 -1569336392 383110321 -521860169 1189998593 1037897154 702820639 909981327 -95149221 -412761134 337098875 -927394262 -1038799924 819441740 -1437582632 -357101842 1423041296 -1050731580 39067843 1796206012
REM
CELL 1.54180   50.00000   50.00000   50.00000   90.00000   90.00000   90.00000
LATT -1
SFAC C  
C      1  0.4435290000000  0.4844000000000  0.4905750000000 1.0
C      1  0.4507300000000  0.5177730000000  0.4943770000000 1.0
C      1  0.4662140000000  0.5493820000000  0.4956090000000 1.0
C      1  0.4970680000000  0.5354960000000  0.4990050000000 1.0
C      1  0.5273980000000  0.5497640000000  0.4960440000000 1.0
C      1  0.5534250000000  0.5287330000000  0.5020980000000 1.0
C      1  0.5524220000000  0.5008620000000  0.4886330000000 1.0
C      1  0.5526680000000  0.4674150000000  0.4952810000000 1.0
C      1  0.5236640000000  0.4497680000000  0.4932280000000 1.0
C      1  0.4899990000000  0.4455610000000  0.4961350000000 1.0
C      1  0.4590560000000  0.4587190000000  0.5013930000000 1.0
C      1  0.3945300000000  0.5244870000000  0.5022510000000 1.0
C      1  0.4417710000000  0.5725330000000  0.5004390000000 1.0
C      1  0.4835420000000  0.5784940000000  0.4987180000000 1.0
C      1  0.5429310000000  0.5797450000000  0.5000890000000 1.0
C      1  0.5809860000000  0.5433160000000  0.5009050000000 1.0
C      1  0.6119930000000  0.5004900000000  0.5023070000000 1.0
C      1  0.5786970000000  0.4514710000000  0.4975010000000 1.0
C      1  0.5363070000000  0.4186110000000  0.4983670000000 1.0
C      1  0.4860820000000  0.4153180000000  0.5037480000000 1.0
C      1  0.4370360000000  0.4343440000000  0.5004750000000 1.0
C      1  0.4143510000000  0.4774550000000  0.4953510000000 1.0
C      1  0.4351430000000  0.4054950000000  0.5430210000000 1.0
C      1  0.3935130000000  0.4468130000000  0.5272490000000 1.0
C      1  0.3932780000000  0.5057610000000  0.5293000000000 1.0
C      1  0.4192650000000  0.5638520000000  0.5207200000000 1.0
C      1  0.4696920000000  0.6055200000000  0.5429840000000 1.0
C      1  0.5444860000000  0.6122730000000  0.5235120000000 1.0
C      1  0.5860950000000  0.5716180000000  0.5403400000000 1.0
C      1  0.6157920000000  0.5187890000000  0.5302820000000 1.0
C      1  0.5917960000000  0.4454760000000  0.5233150000000 1.0
C      1  0.5616960000000  0.4046650000000  0.5441800000000 1.0
C      1  0.5104310000000  0.3920700000000  0.5402270000000 1.0
C      1  0.4927980000000  0.4472040000000  0.6324720000000 1.0
C      1  0.4711700000000  0.4591560000000  0.6190240000000 1.0
C      1  0.4579400000000  0.4821410000000  0.6274220000000 1.0
C      1  0.4595700000000  0.5097600000000  0.6238460000000 1.0
C      1  0.4730970000000  0.5283430000000  0.6407280000000 1.0
C      1  0.4907810000000  0.5450260000000  0.6255390000000 1.0
C      1  0.5183290000000  0.5461610000000  0.6293910000000 1.0
C      1  0.5407150000000  0.5319260000000  0.6228810000000 1.0
C      1  0.5465040000000  0.5007370000000  0.6221930000000 1.0
C      1  0.5353860000000  0.4772010000000  0.6200750000000 1.0
C      1  0.5194700000000  0.4509370000000  0.6257820000000 1.0
C      1  0.4337470000000  0.5198260000000  0.4100380000000 1.0
C      1  0.4634510000000  0.5298040000000  0.4042710000000 1.0
C      1  0.4995850000000  0.5844070000000  0.4038480000000 1.0
C      1  0.5202350000000  0.5872920000000  0.3866470000000 1.0
C      1  0.5664230000000  0.5408970000000  0.4042750000000 1.0
C      1  0.5540230000000  0.4837410000000  0.3943400000000 1.0
C      1  0.5623930000000  0.4569120000000  0.3985860000000 1.0
C      1  0.5418090000000  0.4371040000000  0.4000300000000 1.0
C      1  0.4776470000000  0.4339880000000  0.3987970000000 1.0
C      1  0.4511310000000  0.4420540000000  0.4065310000000 1.0
C      1  0.4260860000000  0.4922560000000  0.4162920000000 1.0
C      1  0.4839160000000  0.4231740000000  0.3750930000000 1.0
C      1  0.4285370000000  0.4357340000000  0.3935780000000 1.0
C      1  0.4057620000000  0.4803010000000  0.4023460000000 1.0
C      1  0.4144550000000  0.5467190000000  0.4181500000000 1.0
C      1  0.4765380000000  0.5257690000000  0.3821380000000 1.0
C      1  0.4797900000000  0.6027830000000  0.4050310000000 1.0
C      1  0.5439510000000  0.5715600000000  0.4374920000000 1.0
C      1  0.5712340000000  0.5413880000000  0.4335700000000 1.0
C      1  0.5496720000000  0.4958610000000  0.3702140000000 1.0
C      1  0.5775930000000  0.4560530000000  0.4252330000000 1.0
C      1  0.5396910000000  0.4142370000000  0.3853680000000 1.0
C      1  0.4445570000000  0.4144340000000  0.4764730000000 1.0
C      1  0.4051840000000  0.4565170000000  0.4723780000000 1.0
C      1  0.3853120000000  0.5119520000000  0.4732980000000 1.0
C      1  0.4063050000000  0.5683650000000  0.4676400000000 1.0
C      1  0.4653110000000  0.5876450000000  0.4721750000000 1.0
C      1  0.5264550000000  0.5889250000000  0.4725160000000 1.0
C      1  0.5798010000000  0.5638180000000  0.4737040000000 1.0
C      1  0.6126080000000  0.5154430000000  0.4731760000000 1.0
C      1  0.5977460000000  0.4588470000000  0.4730600000000 1.0
C      1  0.5561670000000  0.4155910000000  0.4727940000000 1.0
C      1  0.4990280000000  0.3989620000000  0.4767400000000 1.0
C      1  0.4976570000000  0.4490810000000  0.5352180000000 1.0
C      1  0.4717250000000  0.4611660000000  0.5317690000000 1.0
C      1  0.4571120000000  0.4910710000000  0.5275860000000 1.0
C      1  0.4437570000000  0.5210170000000  0.5274990000000 1.0
C      1  0.4652150000000  0.5453240000000  0.5293690000000 1.0
C      1  0.4917230000000  0.5600260000000  0.5416960000000 1.0
C      1  0.5213480000000  0.5498380000000  0.5296910000000 1.0
C      1  0.5479490000000  0.5291670000000  0.5343110000000 1.0
C      1  0.5625000000000  0.5026870000000  0.5413650000000 1.0
C      1  0.5431800000000  0.4766870000000  0.5372310000000 1.0
C      1  0.5272900000000  0.4544500000000  0.5267130000000 1.0
C      1  0.6018620000000  0.5405110000000  0.4749150000000 1.0
C      1  0.6114430000000  0.4820170000000  0.4742270000000 1.0
C      1  0.5797190000000  0.4299140000000  0.4723140000000 1.0
C      1  0.5265960000000  0.3987750000000  0.4740910000000 1.0
C      1  0.4672060000000  0.4002080000000  0.4798430000000 1.0
C      1  0.4177720000000  0.4324020000000  0.4729550000000 1.0
C      1  0.3910520000000  0.4853660000000  0.4724010000000 1.0
C      1  0.3927580000000  0.5443190000000  0.4746680000000 1.0
C      1  0.4320810000000  0.5814680000000  0.4723830000000 1.0
C      1  0.4990240000000  0.5929810000000  0.4728410000000 1.0
C      1  0.5601160000000  0.5831050000000  0.4726790000000 1.0
C      1  0.5655300000000  0.5860330000000  0.5237590000000 1.0
C      1  0.5941610000000  0.5449860000000  0.5289260000000 1.0
C      1  0.5912260000000  0.4958310000000  0.5270960000000 1.0
C      1  0.5734580000000  0.4351090000000  0.5467270000000 1.0
C      1  0.5357950000000  0.4044680000000  0.5251790000000 1.0
C      1  0.4841280000000  0.4102450000000  0.5339210000000 1.0
C      1  0.4205100000000  0.4261400000000  0.5244290000000 1.0
C      1  0.4060770000000  0.4782920000000  0.5245320000000 1.0
C      1  0.4168190000000  0.5361590000000  0.5184790000000 1.0
C      1  0.4517310000000  0.5880640000000  0.5249180000000 1.0
C      1  0.4914860000000  0.5895380000000  0.5264700000000 1.0
C      1  0.5453790000000  0.4989780000000  0.4217080000000 1.0
C      1  0.5464920000000  0.4669270000000  0.4337210000000 1.0
C      1  0.5243500000000  0.4431840000000  0.4251090000000 1.0
C      1  0.4948130000000  0.4389370000000  0.4203710000000 1.0
C      1  0.4534150000000  0.4555110000000  0.4323570000000 1.0
C      1  0.4405700000000  0.4801510000000  0.4372700000000 1.0
C      1  0.4412000000000  0.5399570000000  0.4355240000000 1.0
C      1  0.4718170000000  0.5514620000000  0.4279580000000 1.0
C      1  0.4986810000000  0.5623250000000  0.4206030000000 1.0
C      1  0.5249040000000  0.5498850000000  0.4289390000000 1.0
C      1  0.5404040000000  0.5286180000000  0.4115860000000 1.0
C      1  0.5651630000000  0.4662670000000  0.5576760000000 1.0
C      1  0.5302690000000  0.4285990000000  0.5459730000000 1.0
C      1  0.5004830000000  0.4254900000000  0.5595530000000 1.0
C      1  0.4546210000000  0.4425170000000  0.5634060000000 1.0
C      1  0.4342760000000  0.4751820000000  0.5438040000000 1.0
C      1  0.4304860000000  0.5166470000000  0.5573780000000 1.0
C      1  0.4540480000000  0.5678460000000  0.5521560000000 1.0
C      1  0.4790700000000  0.5667390000000  0.5729040000000 1.0
C      1  0.5374410000000  0.5764740000000  0.5395720000000 1.0
C      1  0.5467270000000  0.5513490000000  0.5602070000000 1.0
C      1  0.5711190000000  0.5044610000000  0.5727910000000 1.0
C      1  0.5084250000000  0.3939860000000  0.5712670000000 1.0
C      1  0.4584070000000  0.4161260000000  0.5534530000000 1.0
C      1  0.4182080000000  0.4488570000000  0.5482630000000 1.0
C      1  0.4020570000000  0.5165140000000  0.5532120000000 1.0
C      1  0.4223920000000  0.5729070000000  0.5468960000000 1.0
C      1  0.4715470000000  0.5990380000000  0.5698400000000 1.0
C      1  0.5184830000000  0.6005210000000  0.5311690000000 1.0
C      1  0.5740280000000  0.5671090000000  0.5654280000000 1.0
C      1  0.5935230000000  0.5233750000000  0.5555650000000 1.0
C      1  0.5924760000000  0.4696200000000  0.5417530000000 1.0
C      1  0.5526880000000  0.4238150000000  0.5710880000000 1.0
C      1  0.4779750000000  0.5455330000000  0.5952140000000 1.0
C      1  0.5098210000000  0.5423640000000  0.5905050000000 1.0
C      1  0.5352400000000  0.5382290000000  0.5837890000000 1.0
C      1  0.5553790000000  0.5177420000000  0.5956670000000 1.0
C      1  0.5571980000000  0.4763650000000  0.5861900000000 1.0
C      1  0.5316460000000  0.4554830000000  0.5941830000000 1.0
C      1  0.5015370000000  0.4478790000000  0.5828030000000 1.0
C      1  0.4724140000000  0.4554020000000  0.5893600000000 1.0
C      1  0.4490530000000  0.4743750000000  0.5742090000000 1.0
C      1  0.4467200000000  0.5053460000000  0.5772830000000 1.0
C      1  0.4588720000000  0.5200260000000  0.5972570000000 1.0
C      1  0.5524200000000  0.5000010000000  0.4550220000000 1.0
C      1  0.5439580000000  0.4699700000000  0.4653370000000 1.0
C      1  0.5247720000000  0.4449420000000  0.4590720000000 1.0
C      1  0.4947020000000  0.4501460000000  0.4656710000000 1.0
C      1  0.4792880000000  0.4477500000000  0.4428870000000 1.0
C      1  0.4434160000000  0.4944100000000  0.4609900000000 1.0
C      1  0.4456490000000  0.5253730000000  0.4623330000000 1.0
C      1  0.4699050000000  0.5479410000000  0.4618290000000 1.0
C      1  0.4975510000000  0.5384010000000  0.4555090000000 1.0
C      1  0.5281860000000  0.5446800000000  0.4623920000000 1.0
C      1  0.5525190000000  0.5297520000000  0.4495590000000 1.0
C      1  0.4954670000000  0.4995560000000  0.4464100000000 1.0
C      1  0.5075950000000  0.5072670000000  0.5714670000000 1.0
C      1  0.4876440000000  0.4968150000000  0.5236160000000 1.0
C      1  0.4962090000000  0.5074080000000  0.4991900000000 1.0
C      1  0.4909770000000  0.5004960000000  0.4204910000000 1.0
C      1  0.5006340000000  0.4995570000000  0.5476490000000 1.0
C      1  0.4976890000000  0.4969210000000  0.4731680000000 1.0
END
