TITL C-3289324-3781-174 0.00105232704676411 125000 -879.40223643689 0 0 158 (C1) n - 1
REM
REM in /nfs/bkarasulu/CARBON/AIRSS/Generating-Clusters/AIREBO/with-SteepDescent/Higher-Symm/SD-CG/HFTN-CG
REM
REM
REM
REM
REM
REM ./C.cell (b20cbc046b6831c77cfcea5457e17084)
REM
REM compiler GCC version 9.2.1 20190827 (Red Hat 9.2.1-1)
REM options -cpp -mtune=generic -march=x86-64 -g -O0 -fpre-include=/usr/include/finclude/math-vector-fortran.h
REM seed 1996465335 -1569526060 1621056687 -851220999 -707861846 -1524529861 1405875927 698932366 -793711701 348615055 -501925049 658172734 1705768229 -607029575 1069257534 -828613113 95481099 1652356438 884185981 574052296 164205066 -1969437271 -1529950165 840820577 -1103826669 -1922568786 1042415055 2064974251 2126114333 -2016956256 698098232 -1709990335 -996934199
REM
CELL 1.54180   50.00000   50.00000   50.00000   90.00000   90.00000   90.00000
LATT -1
SFAC C  
C      1  0.4642690000000  0.5105760000000  0.4380680000000 1.0
C      1  0.4664840000000  0.5574680000000  0.4668400000000 1.0
C      1  0.4644870000000  0.5698710000000  0.5228590000000 1.0
C      1  0.4782170000000  0.5225490000000  0.5646360000000 1.0
C      1  0.4615590000000  0.4510020000000  0.5569400000000 1.0
C      1  0.4676060000000  0.4197190000000  0.5024140000000 1.0
C      1  0.4662100000000  0.4510310000000  0.4527560000000 1.0
C      1  0.4583630000000  0.5261790000000  0.4774610000000 1.0
C      1  0.4614840000000  0.5397190000000  0.5085160000000 1.0
C      1  0.4738080000000  0.5216300000000  0.5345980000000 1.0
C      1  0.4631720000000  0.4928330000000  0.5274440000000 1.0
C      1  0.4622190000000  0.4517990000000  0.5024890000000 1.0
C      1  0.4671410000000  0.4703940000000  0.4755530000000 1.0
C      1  0.4770050000000  0.4997250000000  0.4669520000000 1.0
C      1  0.4981510000000  0.5114720000000  0.4353580000000 1.0
C      1  0.4981050000000  0.5653390000000  0.4791210000000 1.0
C      1  0.4944280000000  0.5773120000000  0.5280760000000 1.0
C      1  0.5090580000000  0.5199660000000  0.5689940000000 1.0
C      1  0.4862250000000  0.4682670000000  0.5597650000000 1.0
C      1  0.4990820000000  0.4325120000000  0.5041860000000 1.0
C      1  0.4951690000000  0.4467600000000  0.4420470000000 1.0
C      1  0.5637150000000  0.5577580000000  0.5624320000000 1.0
C      1  0.5693910000000  0.4963930000000  0.5779080000000 1.0
C      1  0.5673280000000  0.4306250000000  0.5369220000000 1.0
C      1  0.5730270000000  0.4166600000000  0.4767370000000 1.0
C      1  0.5644190000000  0.4862450000000  0.4208170000000 1.0
C      1  0.5772560000000  0.5329260000000  0.4339960000000 1.0
C      1  0.5688520000000  0.5747190000000  0.5047000000000 1.0
C      1  0.5376530000000  0.4538120000000  0.5501860000000 1.0
C      1  0.5321290000000  0.4227470000000  0.4986070000000 1.0
C      1  0.5215090000000  0.4592730000000  0.4522510000000 1.0
C      1  0.5299520000000  0.5131330000000  0.4381620000000 1.0
C      1  0.5298320000000  0.5592730000000  0.4740160000000 1.0
C      1  0.5181290000000  0.5605740000000  0.5374370000000 1.0
C      1  0.5339190000000  0.5128160000000  0.5516020000000 1.0
C      1  0.4918350000000  0.3997590000000  0.4684770000000 1.0
C      1  0.4924350000000  0.4576270000000  0.4099250000000 1.0
C      1  0.4843480000000  0.5317800000000  0.4118400000000 1.0
C      1  0.4954870000000  0.5989990000000  0.4807800000000 1.0
C      1  0.4855920000000  0.5972340000000  0.5540050000000 1.0
C      1  0.4918770000000  0.5085640000000  0.5993570000000 1.0
C      1  0.4915120000000  0.4126950000000  0.5525240000000 1.0
C      1  0.4284290000000  0.5468220000000  0.5121870000000 1.0
C      1  0.4239280000000  0.5297010000000  0.5405290000000 1.0
C      1  0.4363740000000  0.4981980000000  0.5436130000000 1.0
C      1  0.4299050000000  0.4619760000000  0.5060090000000 1.0
C      1  0.4155130000000  0.4598800000000  0.4752740000000 1.0
C      1  0.4161020000000  0.4915450000000  0.4628960000000 1.0
C      1  0.4282170000000  0.5232270000000  0.4653900000000 1.0
C      1  0.5103980000000  0.4935990000000  0.4689380000000 1.0
C      1  0.5083040000000  0.5271290000000  0.4686740000000 1.0
C      1  0.4924940000000  0.5381260000000  0.4946550000000 1.0
C      1  0.5037260000000  0.5180210000000  0.5196690000000 1.0
C      1  0.4962150000000  0.4872300000000  0.5332340000000 1.0
C      1  0.4932970000000  0.4644260000000  0.5081070000000 1.0
C      1  0.5141150000000  0.4633640000000  0.4840410000000 1.0
C      1  0.5043730000000  0.4157640000000  0.4412080000000 1.0
C      1  0.4861340000000  0.4910450000000  0.4109690000000 1.0
C      1  0.5067490000000  0.5712840000000  0.4389840000000 1.0
C      1  0.5093760000000  0.5996280000000  0.5094600000000 1.0
C      1  0.5214040000000  0.5438160000000  0.5859010000000 1.0
C      1  0.5085840000000  0.4510870000000  0.5785930000000 1.0
C      1  0.5023570000000  0.4060180000000  0.5234710000000 1.0
C      1  0.5548120000000  0.5283260000000  0.4996190000000 1.0
C      1  0.5333310000000  0.5337590000000  0.5254170000000 1.0
C      1  0.5293780000000  0.4827900000000  0.5394430000000 1.0
C      1  0.5551620000000  0.4743080000000  0.5206540000000 1.0
C      1  0.5442760000000  0.4602520000000  0.4921330000000 1.0
C      1  0.5440310000000  0.4867130000000  0.4706600000000 1.0
C      1  0.5413210000000  0.5205820000000  0.4693370000000 1.0
C      1  0.5496490000000  0.4115080000000  0.5508190000000 1.0
C      1  0.5498420000000  0.4054110000000  0.4673230000000 1.0
C      1  0.5488680000000  0.4586680000000  0.4112880000000 1.0
C      1  0.5530630000000  0.5409030000000  0.4213760000000 1.0
C      1  0.5471750000000  0.5920480000000  0.4887170000000 1.0
C      1  0.5457430000000  0.5844330000000  0.5702810000000 1.0
C      1  0.5501830000000  0.4842940000000  0.5942550000000 1.0
C      1  0.4219150000000  0.4323370000000  0.4622660000000 1.0
C      1  0.4219420000000  0.4850410000000  0.4309870000000 1.0
C      1  0.4285920000000  0.5420120000000  0.4391680000000 1.0
C      1  0.4233630000000  0.5718810000000  0.4934430000000 1.0
C      1  0.4341990000000  0.5348850000000  0.5687680000000 1.0
C      1  0.4392990000000  0.4821040000000  0.5715860000000 1.0
C      1  0.4251370000000  0.4343450000000  0.5252410000000 1.0
C      1  0.5134810000000  0.5935010000000  0.4551940000000 1.0
C      1  0.5129850000000  0.6094730000000  0.5419430000000 1.0
C      1  0.5184590000000  0.5208340000000  0.6073950000000 1.0
C      1  0.5087570000000  0.4212620000000  0.5727910000000 1.0
C      1  0.5061030000000  0.3931160000000  0.4922410000000 1.0
C      1  0.5121020000000  0.4298960000000  0.4108780000000 1.0
C      1  0.5052490000000  0.5154610000000  0.3962030000000 1.0
C      1  0.4794470000000  0.5628050000000  0.4365910000000 1.0
C      1  0.4491020000000  0.5866650000000  0.5028110000000 1.0
C      1  0.4598410000000  0.5471550000000  0.5690970000000 1.0
C      1  0.4908790000000  0.4758160000000  0.5924020000000 1.0
C      1  0.4511260000000  0.4171950000000  0.5281350000000 1.0
C      1  0.4511070000000  0.4260000000000  0.4586160000000 1.0
C      1  0.4510260000000  0.4880440000000  0.4214640000000 1.0
C      1  0.4006840000000  0.4731860000000  0.5195990000000 1.0
C      1  0.3925990000000  0.4749730000000  0.4909320000000 1.0
C      1  0.3837690000000  0.4988440000000  0.4754430000000 1.0
C      1  0.4000720000000  0.5229000000000  0.4815780000000 1.0
C      1  0.4021530000000  0.5314320000000  0.5071420000000 1.0
C      1  0.3911580000000  0.5199180000000  0.5316760000000 1.0
C      1  0.4054080000000  0.4945530000000  0.5361950000000 1.0
C      1  0.5882310000000  0.5265650000000  0.5056360000000 1.0
C      1  0.5962850000000  0.5199340000000  0.5316950000000 1.0
C      1  0.5977030000000  0.4928220000000  0.5382890000000 1.0
C      1  0.5868780000000  0.4748070000000  0.5171420000000 1.0
C      1  0.6028450000000  0.4739460000000  0.4875590000000 1.0
C      1  0.6086290000000  0.5002610000000  0.4703370000000 1.0
C      1  0.5985500000000  0.5249600000000  0.4790820000000 1.0
C      1  0.5367800000000  0.4371400000000  0.4012300000000 1.0
C      1  0.5320090000000  0.5213310000000  0.4052430000000 1.0
C      1  0.5397310000000  0.6004470000000  0.4642360000000 1.0
C      1  0.5364970000000  0.6085870000000  0.5582610000000 1.0
C      1  0.5383720000000  0.5017220000000  0.6133150000000 1.0
C      1  0.5339540000000  0.4079840000000  0.5744670000000 1.0
C      1  0.5353370000000  0.3901000000000  0.4896250000000 1.0
C      1  0.5585100000000  0.5561110000000  0.5302130000000 1.0
C      1  0.5609730000000  0.5236760000000  0.5663680000000 1.0
C      1  0.5711390000000  0.4558970000000  0.5523450000000 1.0
C      1  0.5636590000000  0.4346630000000  0.5033400000000 1.0
C      1  0.5680880000000  0.4797380000000  0.4518090000000 1.0
C      1  0.5865800000000  0.5069370000000  0.4275520000000 1.0
C      1  0.5613030000000  0.5556070000000  0.4803850000000 1.0
C      1  0.6092170000000  0.4979440000000  0.4421000000000 1.0
C      1  0.5821740000000  0.5411230000000  0.4611910000000 1.0
C      1  0.5855260000000  0.5759860000000  0.5343550000000 1.0
C      1  0.5873710000000  0.5364470000000  0.5518320000000 1.0
C      1  0.5832650000000  0.4798690000000  0.5598840000000 1.0
C      1  0.5957570000000  0.4458100000000  0.5047110000000 1.0
C      1  0.5900230000000  0.4664100000000  0.4599730000000 1.0
C      1  0.4634130000000  0.4607190000000  0.4230100000000 1.0
C      1  0.4565900000000  0.5413130000000  0.4254150000000 1.0
C      1  0.4661200000000  0.5892890000000  0.4788240000000 1.0
C      1  0.4667800000000  0.5707550000000  0.5559860000000 1.0
C      1  0.4664340000000  0.4960080000000  0.5805840000000 1.0
C      1  0.4660650000000  0.4239140000000  0.5508210000000 1.0
C      1  0.4659580000000  0.4086820000000  0.4748600000000 1.0
C      1  0.4336480000000  0.4586200000000  0.5476110000000 1.0
C      1  0.4134710000000  0.4252790000000  0.4944930000000 1.0
C      1  0.4128060000000  0.4527250000000  0.4363580000000 1.0
C      1  0.4102470000000  0.5161220000000  0.4296890000000 1.0
C      1  0.4329690000000  0.5628170000000  0.4647450000000 1.0
C      1  0.3990580000000  0.5852970000000  0.4953010000000 1.0
C      1  0.4301100000000  0.5122880000000  0.5842650000000 1.0
C      1  0.5270440000000  0.5707780000000  0.5060060000000 1.0
C      1  0.5247200000000  0.5639780000000  0.5675470000000 1.0
C      1  0.5378400000000  0.4622920000000  0.5830210000000 1.0
C      1  0.5279330000000  0.4266860000000  0.5321230000000 1.0
C      1  0.5257130000000  0.4279040000000  0.4647350000000 1.0
C      1  0.5331110000000  0.4796150000000  0.4329480000000 1.0
C      1  0.5275510000000  0.5468810000000  0.4423850000000 1.0
C      1  0.4565750000000  0.4909270000000  0.4992480000000 1.0
C      1  0.4275040000000  0.4941310000000  0.4943180000000 1.0
C      1  0.5567920000000  0.4971370000000  0.4996920000000 1.0
C      1  0.5170120000000  0.5002270000000  0.4991710000000 1.0
END
