TITL C-3289332-8317-291 -2.13723485413107e-07 125000 -120.585047810485 0 0 22 (T23) n - 1
REM
REM in /nfs/bkarasulu/CARBON/AIRSS/Generating-Clusters/AIREBO/with-SteepDescent/Higher-Symm/SD-CG/HFTN-CG
REM
REM
REM
REM
REM
REM ./C.cell (b20cbc046b6831c77cfcea5457e17084)
REM
REM compiler GCC version 9.2.1 20190827 (Red Hat 9.2.1-1)
REM options -cpp -mtune=generic -march=x86-64 -g -O0 -fpre-include=/usr/include/finclude/math-vector-fortran.h
REM seed 844455049 756639273 2069486406 1454860873 -2064849947 490304144 615952561 1913961653 -1458339970 1932121122 1301617540 136667328 78522404 1380610644 1907127417 1445327117 1282563524 1679324346 -1798962619 1870752667 -1214717173 -1761405350 2057897704 -1985387422 -733357675 -1981046298 1053879314 -372680285 1596012903 -655061546 -1660992702 -599314389 466364819
REM
CELL 1.54180   50.00000   50.00000   50.00000   90.00000   90.00000   90.00000
LATT -1
SFAC C  
C      1  0.5102960000000  0.5129820000000  0.4573160000000 1.0
C      1  0.4551830000000  0.5100990000000  0.5149790000000 1.0
C      1  0.5125250000000  0.4546700000000  0.5117730000000 1.0
C      1  0.4902790000000  0.5124700000000  0.5473260000000 1.0
C      1  0.5097610000000  0.4866360000000  0.5471870000000 1.0
C      1  0.4903240000000  0.4875270000000  0.4570540000000 1.0
C      1  0.5453360000000  0.5094350000000  0.4896170000000 1.0
C      1  0.4550770000000  0.4905720000000  0.4891800000000 1.0
C      1  0.5450650000000  0.4895090000000  0.5151080000000 1.0
C      1  0.4869440000000  0.4550700000000  0.4919650000000 1.0
C      1  0.5134500000000  0.5448920000000  0.4927500000000 1.0
C      1  0.4877410000000  0.5449840000000  0.5123960000000 1.0
C      1  0.5008630000000  0.5729020000000  0.5027910000000 1.0
C      1  0.4999300000000  0.4993350000000  0.5752220000000 1.0
C      1  0.4994670000000  0.4269060000000  0.5016500000000 1.0
C      1  0.5004000000000  0.5004720000000  0.4292200000000 1.0
C      1  0.5731650000000  0.4992040000000  0.5024500000000 1.0
C      1  0.4271650000000  0.5006030000000  0.5019920000000 1.0
C      1  0.5247490000000  0.5241340000000  0.4782130000000 1.0
C      1  0.4760450000000  0.5242210000000  0.5266090000000 1.0
C      1  0.5241290000000  0.4752090000000  0.5263820000000 1.0
C      1  0.4757370000000  0.4760520000000  0.4776810000000 1.0
END
