TITL C-3289321-8710-427 -0.000188575164165676 125000 -1020.70359679636 0 0 190 (C1) n - 1
REM
REM in /nfs/bkarasulu/CARBON/AIRSS/Generating-Clusters/AIREBO/with-SteepDescent/Higher-Symm/SD-CG/HFTN-CG
REM
REM
REM
REM
REM
REM ./C.cell (b20cbc046b6831c77cfcea5457e17084)
REM
REM compiler GCC version 9.2.1 20190827 (Red Hat 9.2.1-1)
REM options -cpp -mtune=generic -march=x86-64 -g -O0 -fpre-include=/usr/include/finclude/math-vector-fortran.h
REM seed 1545898393 300180525 -989800763 -275469777 -2013964395 -2084232482 1967506865 487824182 -1870302473 794488898 -867477505 201566068 1944538624 -532731794 339579229 785564428 -1654355519 1110097028 -875465210 1499141511 -52920087 646629784 -149168370 -1885976682 115156455 1936020378 -824093798 -318030525 1620660662 -1963348517 -535637906 -2028444726 141753593
REM
CELL 1.54180   50.00000   50.00000   50.00000   90.00000   90.00000   90.00000
LATT -1
SFAC C  
C      1  0.4719060000000  0.5750350000000  0.4563460000000 1.0
C      1  0.5593910000000  0.5786330000000  0.4920340000000 1.0
C      1  0.4690020000000  0.5821390000000  0.5480040000000 1.0
C      1  0.5384430000000  0.4155160000000  0.4518070000000 1.0
C      1  0.4355120000000  0.4244270000000  0.4926100000000 1.0
C      1  0.5234910000000  0.4184350000000  0.5479060000000 1.0
C      1  0.5980760000000  0.5075690000000  0.4357920000000 1.0
C      1  0.5092360000000  0.5019740000000  0.6157780000000 1.0
C      1  0.3963690000000  0.5006870000000  0.4573960000000 1.0
C      1  0.4109110000000  0.4946110000000  0.4341390000000 1.0
C      1  0.4827290000000  0.4873890000000  0.6152980000000 1.0
C      1  0.6049520000000  0.4960290000000  0.4604180000000 1.0
C      1  0.4807670000000  0.5093260000000  0.4319530000000 1.0
C      1  0.5860800000000  0.5046950000000  0.5404790000000 1.0
C      1  0.4575460000000  0.5061060000000  0.5460550000000 1.0
C      1  0.5189920000000  0.4991600000000  0.4314040000000 1.0
C      1  0.4369270000000  0.4787460000000  0.5264010000000 1.0
C      1  0.5498240000000  0.4906160000000  0.5332270000000 1.0
C      1  0.4568680000000  0.4847480000000  0.5852760000000 1.0
C      1  0.4530980000000  0.4840880000000  0.4134170000000 1.0
C      1  0.5684690000000  0.5016010000000  0.4872950000000 1.0
C      1  0.5365910000000  0.5162660000000  0.5796590000000 1.0
C      1  0.5478470000000  0.5030930000000  0.4451040000000 1.0
C      1  0.4188370000000  0.5044370000000  0.4954870000000 1.0
C      1  0.5606120000000  0.5470000000000  0.4141810000000 1.0
C      1  0.5561840000000  0.5614890000000  0.5895410000000 1.0
C      1  0.3902270000000  0.5550830000000  0.4929330000000 1.0
C      1  0.4318990000000  0.4467850000000  0.4112460000000 1.0
C      1  0.4502340000000  0.4334520000000  0.6045160000000 1.0
C      1  0.6026090000000  0.4521930000000  0.4806640000000 1.0
C      1  0.5552160000000  0.4935620000000  0.5640120000000 1.0
C      1  0.4073590000000  0.4955480000000  0.5262360000000 1.0
C      1  0.5322240000000  0.4867590000000  0.4026350000000 1.0
C      1  0.4375390000000  0.5073610000000  0.5702450000000 1.0
C      1  0.6071240000000  0.4795640000000  0.5314150000000 1.0
C      1  0.4626840000000  0.5156220000000  0.4050560000000 1.0
C      1  0.4669440000000  0.5813750000000  0.5152770000000 1.0
C      1  0.5001160000000  0.5765050000000  0.4678920000000 1.0
C      1  0.5367630000000  0.5793770000000  0.5137930000000 1.0
C      1  0.5320520000000  0.4195090000000  0.5166840000000 1.0
C      1  0.5070250000000  0.4215450000000  0.4633560000000 1.0
C      1  0.4629070000000  0.4196540000000  0.5121760000000 1.0
C      1  0.5420260000000  0.4632420000000  0.5691450000000 1.0
C      1  0.4046820000000  0.4562180000000  0.5200070000000 1.0
C      1  0.5428020000000  0.4614040000000  0.4227080000000 1.0
C      1  0.4554380000000  0.5372750000000  0.5732740000000 1.0
C      1  0.6054550000000  0.5711950000000  0.4853490000000 1.0
C      1  0.4508940000000  0.5433340000000  0.4211420000000 1.0
C      1  0.6154350000000  0.5075090000000  0.5139100000000 1.0
C      1  0.4292480000000  0.5138830000000  0.6025720000000 1.0
C      1  0.4316220000000  0.5109190000000  0.3920330000000 1.0
C      1  0.3811370000000  0.4872890000000  0.5062210000000 1.0
C      1  0.5608740000000  0.4852510000000  0.5964930000000 1.0
C      1  0.5643250000000  0.4931250000000  0.3933800000000 1.0
C      1  0.5364130000000  0.5567730000000  0.4519290000000 1.0
C      1  0.5085990000000  0.5487880000000  0.5672330000000 1.0
C      1  0.4427560000000  0.5285790000000  0.4744490000000 1.0
C      1  0.4635440000000  0.4690750000000  0.4577100000000 1.0
C      1  0.4864250000000  0.4571300000000  0.5570260000000 1.0
C      1  0.5579910000000  0.4528140000000  0.4827070000000 1.0
C      1  0.5570470000000  0.5819230000000  0.4582610000000 1.0
C      1  0.5144060000000  0.5822740000000  0.5685680000000 1.0
C      1  0.4319270000000  0.5783970000000  0.4838460000000 1.0
C      1  0.4610050000000  0.4294440000000  0.4536470000000 1.0
C      1  0.4763250000000  0.4254160000000  0.5639810000000 1.0
C      1  0.5638480000000  0.4190190000000  0.4723490000000 1.0
C      1  0.4667030000000  0.4501460000000  0.4296200000000 1.0
C      1  0.5767590000000  0.4578400000000  0.5106250000000 1.0
C      1  0.4453050000000  0.4320670000000  0.5649710000000 1.0
C      1  0.5230240000000  0.5581890000000  0.4218810000000 1.0
C      1  0.4313490000000  0.5483530000000  0.4977780000000 1.0
C      1  0.5335890000000  0.5411090000000  0.5486310000000 1.0
C      1  0.5342140000000  0.4285360000000  0.4209150000000 1.0
C      1  0.5498890000000  0.4305500000000  0.5660030000000 1.0
C      1  0.4094510000000  0.4269950000000  0.5105260000000 1.0
C      1  0.4708470000000  0.5684930000000  0.4250920000000 1.0
C      1  0.4420980000000  0.5648990000000  0.5605160000000 1.0
C      1  0.5869450000000  0.5761720000000  0.5062180000000 1.0
C      1  0.4828610000000  0.4835310000000  0.4816810000000 1.0
C      1  0.5240470000000  0.4826760000000  0.4696310000000 1.0
C      1  0.5069170000000  0.4799600000000  0.5256570000000 1.0
C      1  0.5238300000000  0.5264900000000  0.4929440000000 1.0
C      1  0.4800630000000  0.5352500000000  0.4856880000000 1.0
C      1  0.4921060000000  0.5165220000000  0.5295940000000 1.0
C      1  0.5302020000000  0.4476640000000  0.5017580000000 1.0
C      1  0.4833500000000  0.4585680000000  0.5231690000000 1.0
C      1  0.5008160000000  0.4571940000000  0.4935190000000 1.0
C      1  0.4766980000000  0.5536590000000  0.5086520000000 1.0
C      1  0.5021260000000  0.5456670000000  0.5245890000000 1.0
C      1  0.5154190000000  0.5489750000000  0.4740430000000 1.0
C      1  0.4368070000000  0.4781110000000  0.4387140000000 1.0
C      1  0.5801340000000  0.4757080000000  0.4707630000000 1.0
C      1  0.4934030000000  0.4699810000000  0.5877800000000 1.0
C      1  0.5709850000000  0.5242000000000  0.4352940000000 1.0
C      1  0.4103460000000  0.5250570000000  0.4700560000000 1.0
C      1  0.5054770000000  0.5244070000000  0.5907500000000 1.0
C      1  0.4538460000000  0.5031630000000  0.5145550000000 1.0
C      1  0.5057910000000  0.5301660000000  0.4304810000000 1.0
C      1  0.5308790000000  0.5130510000000  0.5381150000000 1.0
C      1  0.5726240000000  0.4892090000000  0.5139090000000 1.0
C      1  0.4916690000000  0.4814660000000  0.4430560000000 1.0
C      1  0.4568450000000  0.4735500000000  0.5536430000000 1.0
C      1  0.4042290000000  0.4706620000000  0.5479670000000 1.0
C      1  0.5113760000000  0.4692760000000  0.3850850000000 1.0
C      1  0.5830990000000  0.4706450000000  0.5808920000000 1.0
C      1  0.6143330000000  0.5304630000000  0.5303590000000 1.0
C      1  0.4921510000000  0.5172610000000  0.3880750000000 1.0
C      1  0.4094310000000  0.5253630000000  0.5767420000000 1.0
C      1  0.4523600000000  0.4517250000000  0.5162360000000 1.0
C      1  0.5064840000000  0.4559590000000  0.4599970000000 1.0
C      1  0.5351550000000  0.4630490000000  0.5297650000000 1.0
C      1  0.5313940000000  0.5492710000000  0.5170680000000 1.0
C      1  0.4904010000000  0.5396550000000  0.4559410000000 1.0
C      1  0.4646460000000  0.5361290000000  0.5341860000000 1.0
C      1  0.4576990000000  0.4121100000000  0.4734950000000 1.0
C      1  0.5440090000000  0.3966480000000  0.4862680000000 1.0
C      1  0.4945450000000  0.4073970000000  0.5472510000000 1.0
C      1  0.5412530000000  0.6062260000000  0.4695950000000 1.0
C      1  0.4564610000000  0.5902050000000  0.4778040000000 1.0
C      1  0.4977310000000  0.5968900000000  0.5465820000000 1.0
C      1  0.4584370000000  0.5436140000000  0.4531930000000 1.0
C      1  0.5571550000000  0.5490690000000  0.4778260000000 1.0
C      1  0.4798010000000  0.5531290000000  0.5580700000000 1.0
C      1  0.5393950000000  0.4493910000000  0.4544430000000 1.0
C      1  0.4449430000000  0.4560550000000  0.4833300000000 1.0
C      1  0.5170510000000  0.4490260000000  0.5538510000000 1.0
C      1  0.4378710000000  0.4565450000000  0.5849490000000 1.0
C      1  0.4614130000000  0.4578830000000  0.3984490000000 1.0
C      1  0.6093910000000  0.4546490000000  0.5094270000000 1.0
C      1  0.5591780000000  0.5389210000000  0.5676240000000 1.0
C      1  0.5358470000000  0.5377180000000  0.3988760000000 1.0
C      1  0.4046570000000  0.5317840000000  0.5099140000000 1.0
C      1  0.4091710000000  0.4474290000000  0.4673640000000 1.0
C      1  0.5840100000000  0.4464610000000  0.4367950000000 1.0
C      1  0.4959720000000  0.4421600000000  0.6037030000000 1.0
C      1  0.5953460000000  0.5536030000000  0.4670170000000 1.0
C      1  0.4101740000000  0.5488900000000  0.4493180000000 1.0
C      1  0.5143880000000  0.5517840000000  0.6088440000000 1.0
C      1  0.5193520000000  0.4869510000000  0.5801990000000 1.0
C      1  0.4153510000000  0.4708620000000  0.4912240000000 1.0
C      1  0.5679900000000  0.4763670000000  0.4390530000000 1.0
C      1  0.4722340000000  0.5149260000000  0.5886240000000 1.0
C      1  0.5822710000000  0.5291190000000  0.4821080000000 1.0
C      1  0.4201000000000  0.5415180000000  0.4248490000000 1.0
C      1  0.5751360000000  0.5573040000000  0.4431700000000 1.0
C      1  0.5301980000000  0.5692840000000  0.5943610000000 1.0
C      1  0.4064950000000  0.5668170000000  0.4724860000000 1.0
C      1  0.4311670000000  0.4452390000000  0.4453720000000 1.0
C      1  0.4752830000000  0.4257970000000  0.5956570000000 1.0
C      1  0.5882490000000  0.4347100000000  0.4615320000000 1.0
C      1  0.5847100000000  0.5378260000000  0.5457770000000 1.0
C      1  0.4112630000000  0.5253910000000  0.5427430000000 1.0
C      1  0.5195920000000  0.5164270000000  0.3918490000000 1.0
C      1  0.4196390000000  0.4781870000000  0.5704590000000 1.0
C      1  0.5861910000000  0.4654410000000  0.5542050000000 1.0
C      1  0.4934560000000  0.4553160000000  0.4005660000000 1.0
C      1  0.4941320000000  0.5730150000000  0.4117900000000 1.0
C      1  0.5805650000000  0.5687080000000  0.5328970000000 1.0
C      1  0.4332890000000  0.5490560000000  0.5317310000000 1.0
C      1  0.5061620000000  0.4465210000000  0.4273190000000 1.0
C      1  0.4323800000000  0.4315730000000  0.5349750000000 1.0
C      1  0.5631050000000  0.4458320000000  0.5386450000000 1.0
C      1  0.4564030000000  0.5075320000000  0.6176630000000 1.0
C      1  0.4132870000000  0.5154690000000  0.4143200000000 1.0
C      1  0.6076180000000  0.5095670000000  0.4873090000000 1.0
C      1  0.5348530000000  0.4862810000000  0.6104630000000 1.0
C      1  0.5823660000000  0.4918800000000  0.4139990000000 1.0
C      1  0.3869620000000  0.4833910000000  0.4773230000000 1.0
C      1  0.4819410000000  0.6018420000000  0.4962420000000 1.0
C      1  0.5132680000000  0.6010950000000  0.4830390000000 1.0
C      1  0.5085990000000  0.5965290000000  0.5166760000000 1.0
C      1  0.5162870000000  0.3973340000000  0.4988270000000 1.0
C      1  0.4873390000000  0.4069060000000  0.4837690000000 1.0
C      1  0.4884630000000  0.4024400000000  0.5176970000000 1.0
C      1  0.4777500000000  0.4197300000000  0.4191590000000 1.0
C      1  0.5776960000000  0.3936660000000  0.5293440000000 1.0
C      1  0.4256090000000  0.4063570000000  0.5650890000000 1.0
C      1  0.5410740000000  0.5849800000000  0.4101940000000 1.0
C      1  0.4217160000000  0.6015100000000  0.5344580000000 1.0
C      1  0.5446980000000  0.5911200000000  0.5617530000000 1.0
C      1  0.5625510000000  0.4141860000000  0.5262230000000 1.0
C      1  0.4144800000000  0.4029460000000  0.5397300000000 1.0
C      1  0.5050290000000  0.4129200000000  0.4305270000000 1.0
C      1  0.4363200000000  0.5822530000000  0.5249920000000 1.0
C      1  0.5562070000000  0.5821460000000  0.5390200000000 1.0
C      1  0.5144700000000  0.5901880000000  0.3994680000000 1.0
C      1  0.5401950000000  0.5059310000000  0.4773160000000 1.0
C      1  0.4641510000000  0.5085110000000  0.4884950000000 1.0
C      1  0.5070980000000  0.4990760000000  0.5523840000000 1.0
C      1  0.5015180000000  0.5036190000000  0.5018000000000 1.0
END
