TITL C-3289335-9438-103 -0.000351102080556854 125000 -377.766183552752 0 0 73 (C1) n - 1
REM
REM in /nfs/bkarasulu/CARBON/AIRSS/Generating-Clusters/AIREBO/with-SteepDescent/Higher-Symm/SD-CG/HFTN-CG
REM
REM
REM
REM
REM
REM ./C.cell (b20cbc046b6831c77cfcea5457e17084)
REM
REM compiler GCC version 9.2.1 20190827 (Red Hat 9.2.1-1)
REM options -cpp -mtune=generic -march=x86-64 -g -O0 -fpre-include=/usr/include/finclude/math-vector-fortran.h
REM seed 1309125479 70451040 1057397126 1762527181 2094896900 56544017 2121184708 -583341594 -1019430786 855794942 628873750 351264739 -506637870 1836469532 -404628834 1264054582 -1410503555 -634412752 -1399387571 -143815186 -870903544 -1446451814 1051467235 1265943311 -261316612 -1356254318 -1275883903 -377299106 430722839 -112539447 -819214564 -1462023365 499072364
REM
CELL 1.54180   50.00000   50.00000   50.00000   90.00000   90.00000   90.00000
LATT -1
SFAC C  
C      1  0.5279640000000  0.4728790000000  0.4507300000000 1.0
C      1  0.4969710000000  0.5282020000000  0.4685730000000 1.0
C      1  0.4881710000000  0.4717930000000  0.4703520000000 1.0
C      1  0.5365110000000  0.5157140000000  0.4549400000000 1.0
C      1  0.5193000000000  0.5612230000000  0.4670870000000 1.0
C      1  0.4833020000000  0.4286070000000  0.4731640000000 1.0
C      1  0.4869490000000  0.5665410000000  0.4706980000000 1.0
C      1  0.5136150000000  0.4318890000000  0.4689580000000 1.0
C      1  0.4533450000000  0.4786230000000  0.5696160000000 1.0
C      1  0.5342290000000  0.5119960000000  0.5716040000000 1.0
C      1  0.5346020000000  0.4873910000000  0.5676970000000 1.0
C      1  0.4569340000000  0.5013530000000  0.5796390000000 1.0
C      1  0.5466230000000  0.5480120000000  0.5217730000000 1.0
C      1  0.4531030000000  0.4442800000000  0.5205270000000 1.0
C      1  0.4517720000000  0.5445400000000  0.5143590000000 1.0
C      1  0.5451690000000  0.4445740000000  0.5184860000000 1.0
C      1  0.4697240000000  0.5237940000000  0.5621600000000 1.0
C      1  0.5319550000000  0.4653810000000  0.5419140000000 1.0
C      1  0.5249550000000  0.5346230000000  0.5479620000000 1.0
C      1  0.4687480000000  0.4648970000000  0.5425840000000 1.0
C      1  0.4835900000000  0.4413660000000  0.4449700000000 1.0
C      1  0.5232460000000  0.5426260000000  0.4393840000000 1.0
C      1  0.5153090000000  0.4447680000000  0.4378100000000 1.0
C      1  0.4906150000000  0.5480930000000  0.4429360000000 1.0
C      1  0.5312350000000  0.4476400000000  0.4913850000000 1.0
C      1  0.4698800000000  0.5469320000000  0.4908540000000 1.0
C      1  0.4659240000000  0.4421500000000  0.4936340000000 1.0
C      1  0.5353700000000  0.5472410000000  0.4935830000000 1.0
C      1  0.4574190000000  0.4927680000000  0.5251110000000 1.0
C      1  0.5519820000000  0.5175810000000  0.5362900000000 1.0
C      1  0.5475380000000  0.4908890000000  0.5249560000000 1.0
C      1  0.4528950000000  0.5200630000000  0.5370890000000 1.0
C      1  0.4527220000000  0.4890780000000  0.4380830000000 1.0
C      1  0.5526470000000  0.5075640000000  0.4273370000000 1.0
C      1  0.5542770000000  0.4809400000000  0.4201210000000 1.0
C      1  0.4548340000000  0.5159320000000  0.4462380000000 1.0
C      1  0.4716680000000  0.5520130000000  0.5750540000000 1.0
C      1  0.5273560000000  0.4428390000000  0.5669490000000 1.0
C      1  0.5194590000000  0.5571660000000  0.5728160000000 1.0
C      1  0.4770140000000  0.4442530000000  0.5683140000000 1.0
C      1  0.4683150000000  0.4669880000000  0.4439410000000 1.0
C      1  0.5264940000000  0.5190650000000  0.4166440000000 1.0
C      1  0.5232960000000  0.4695740000000  0.4172630000000 1.0
C      1  0.4648780000000  0.5364380000000  0.4312900000000 1.0
C      1  0.5762100000000  0.5401850000000  0.5330100000000 1.0
C      1  0.4340540000000  0.4683860000000  0.5233400000000 1.0
C      1  0.4268390000000  0.5418600000000  0.5334470000000 1.0
C      1  0.5680660000000  0.4642880000000  0.5250420000000 1.0
C      1  0.4571590000000  0.4701270000000  0.4821590000000 1.0
C      1  0.5490300000000  0.5213620000000  0.4832090000000 1.0
C      1  0.5463090000000  0.4710370000000  0.4752370000000 1.0
C      1  0.4588930000000  0.5205010000000  0.4780260000000 1.0
C      1  0.4716790000000  0.4958760000000  0.4976870000000 1.0
C      1  0.5357710000000  0.4942770000000  0.4976870000000 1.0
C      1  0.5662770000000  0.4956280000000  0.4725390000000 1.0
C      1  0.4387940000000  0.4936690000000  0.4752740000000 1.0
C      1  0.5002620000000  0.4607250000000  0.5304640000000 1.0
C      1  0.5063220000000  0.5531990000000  0.5264090000000 1.0
C      1  0.5016170000000  0.4312090000000  0.5621730000000 1.0
C      1  0.4933500000000  0.5686480000000  0.5672830000000 1.0
C      1  0.5018630000000  0.4023780000000  0.5214550000000 1.0
C      1  0.4859790000000  0.5983130000000  0.5283350000000 1.0
C      1  0.4998710000000  0.4267930000000  0.5329050000000 1.0
C      1  0.4942100000000  0.5751960000000  0.5390330000000 1.0
C      1  0.5028460000000  0.5419550000000  0.4976590000000 1.0
C      1  0.4999300000000  0.4567720000000  0.4966870000000 1.0
C      1  0.5045510000000  0.4963730000000  0.4971940000000 1.0
C      1  0.4985400000000  0.5134500000000  0.5511560000000 1.0
C      1  0.4973840000000  0.4945330000000  0.5282650000000 1.0
C      1  0.5088230000000  0.4979190000000  0.4634830000000 1.0
C      1  0.5119890000000  0.4972740000000  0.4058140000000 1.0
C      1  0.4968730000000  0.5014750000000  0.5810940000000 1.0
C      1  0.4918630000000  0.4979530000000  0.3874080000000 1.0
END
