TITL C-3289331-6719-629 -0.002983868297021 125000 -590.898623519939 0 0 112 (C1) n - 1
REM
REM in /nfs/bkarasulu/CARBON/AIRSS/Generating-Clusters/AIREBO/with-SteepDescent/Higher-Symm/SD-CG/HFTN-CG
REM
REM
REM
REM
REM
REM ./C.cell (b20cbc046b6831c77cfcea5457e17084)
REM
REM compiler GCC version 9.2.1 20190827 (Red Hat 9.2.1-1)
REM options -cpp -mtune=generic -march=x86-64 -g -O0 -fpre-include=/usr/include/finclude/math-vector-fortran.h
REM seed -1048366297 -493930168 -194814654 186406813 -1867345127 1234191165 -1168912236 -1558586419 -804197529 1489753041 219032723 -1502540445 -1414837564 25148089 -1572958310 115789014 1198704490 -960325959 -1846639813 -1859477441 1352081694 721846309 927633965 106832410 -2000919828 -775261037 -454360284 -307820892 111962415 -1966122579 1297205051 -1222770533 -1119977495
REM
CELL 1.54180   50.00000   50.00000   50.00000   90.00000   90.00000   90.00000
LATT -1
SFAC C  
C      1  0.4551300000000  0.4880130000000  0.4363250000000 1.0
C      1  0.4784930000000  0.5292700000000  0.4474410000000 1.0
C      1  0.5302000000000  0.5435960000000  0.4325480000000 1.0
C      1  0.5190910000000  0.4897020000000  0.4442980000000 1.0
C      1  0.4989900000000  0.4469010000000  0.4330560000000 1.0
C      1  0.4568730000000  0.4870540000000  0.5536840000000 1.0
C      1  0.4746050000000  0.5349760000000  0.5606050000000 1.0
C      1  0.5191730000000  0.5256870000000  0.5578070000000 1.0
C      1  0.5428030000000  0.4919100000000  0.5628590000000 1.0
C      1  0.4967970000000  0.4638060000000  0.5607360000000 1.0
C      1  0.4560210000000  0.5942460000000  0.4903120000000 1.0
C      1  0.5724720000000  0.5780650000000  0.4853890000000 1.0
C      1  0.5979590000000  0.4545210000000  0.4889270000000 1.0
C      1  0.4905090000000  0.3961480000000  0.4907980000000 1.0
C      1  0.3983730000000  0.4759830000000  0.4851740000000 1.0
C      1  0.4613680000000  0.5890650000000  0.5174290000000 1.0
C      1  0.5735050000000  0.5693580000000  0.5124420000000 1.0
C      1  0.5865730000000  0.4573230000000  0.5166000000000 1.0
C      1  0.4834100000000  0.4058590000000  0.5168480000000 1.0
C      1  0.4025910000000  0.4771870000000  0.5133940000000 1.0
C      1  0.4587470000000  0.4529810000000  0.5220400000000 1.0
C      1  0.4396530000000  0.5167440000000  0.5174500000000 1.0
C      1  0.5135080000000  0.5597830000000  0.5091150000000 1.0
C      1  0.5611460000000  0.5194910000000  0.5222820000000 1.0
C      1  0.5245280000000  0.4480680000000  0.5127260000000 1.0
C      1  0.4568710000000  0.4452140000000  0.4626530000000 1.0
C      1  0.4345530000000  0.5248570000000  0.4841480000000 1.0
C      1  0.5093040000000  0.5593960000000  0.4761690000000 1.0
C      1  0.5620300000000  0.5152460000000  0.4636500000000 1.0
C      1  0.5287160000000  0.4476260000000  0.4789300000000 1.0
C      1  0.5603400000000  0.4593920000000  0.4544620000000 1.0
C      1  0.5039130000000  0.4164900000000  0.4473550000000 1.0
C      1  0.4234300000000  0.4772280000000  0.4425040000000 1.0
C      1  0.4700640000000  0.5620110000000  0.4511390000000 1.0
C      1  0.5494660000000  0.5653590000000  0.4443480000000 1.0
C      1  0.5625840000000  0.4712490000000  0.5444740000000 1.0
C      1  0.4898730000000  0.4307290000000  0.5568120000000 1.0
C      1  0.4244970000000  0.4789540000000  0.5467410000000 1.0
C      1  0.4708130000000  0.5665410000000  0.5485370000000 1.0
C      1  0.5502630000000  0.5570610000000  0.5508130000000 1.0
C      1  0.5040230000000  0.5516370000000  0.4462000000000 1.0
C      1  0.5424980000000  0.5143330000000  0.4430150000000 1.0
C      1  0.5280840000000  0.4570770000000  0.4475970000000 1.0
C      1  0.4679470000000  0.4565600000000  0.4383610000000 1.0
C      1  0.4472930000000  0.5175420000000  0.4534630000000 1.0
C      1  0.5020310000000  0.5547260000000  0.5567900000000 1.0
C      1  0.5529880000000  0.5234210000000  0.5550610000000 1.0
C      1  0.5236460000000  0.4483300000000  0.5467180000000 1.0
C      1  0.4646460000000  0.4540000000000  0.5555110000000 1.0
C      1  0.4461410000000  0.5191930000000  0.5507610000000 1.0
C      1  0.5844710000000  0.5431800000000  0.5150920000000 1.0
C      1  0.5562070000000  0.4442400000000  0.5245220000000 1.0
C      1  0.4586380000000  0.4186780000000  0.5188850000000 1.0
C      1  0.4107420000000  0.5024380000000  0.5282160000000 1.0
C      1  0.4929670000000  0.5802140000000  0.5265360000000 1.0
C      1  0.5643390000000  0.5545510000000  0.4683220000000 1.0
C      1  0.5681420000000  0.4460650000000  0.4830140000000 1.0
C      1  0.4830190000000  0.4163540000000  0.4695880000000 1.0
C      1  0.4183690000000  0.4921360000000  0.4687350000000 1.0
C      1  0.4799040000000  0.5851140000000  0.4734420000000 1.0
C      1  0.5517820000000  0.5752840000000  0.5301780000000 1.0
C      1  0.5859810000000  0.4861730000000  0.5274700000000 1.0
C      1  0.5027340000000  0.4163870000000  0.5347870000000 1.0
C      1  0.4181460000000  0.4547310000000  0.5262880000000 1.0
C      1  0.4429320000000  0.5686520000000  0.5302880000000 1.0
C      1  0.5474860000000  0.5902700000000  0.4677890000000 1.0
C      1  0.5874980000000  0.4760220000000  0.4665360000000 1.0
C      1  0.5186750000000  0.4002010000000  0.4737670000000 1.0
C      1  0.4111550000000  0.4536810000000  0.4637980000000 1.0
C      1  0.4436260000000  0.5710710000000  0.4714790000000 1.0
C      1  0.4809470000000  0.4452750000000  0.4818720000000 1.0
C      1  0.4450370000000  0.4942690000000  0.4848610000000 1.0
C      1  0.4792710000000  0.5550000000000  0.4892710000000 1.0
C      1  0.5477850000000  0.5324360000000  0.4852240000000 1.0
C      1  0.5471290000000  0.4718860000000  0.4900020000000 1.0
C      1  0.4905570000000  0.4471180000000  0.5115240000000 1.0
C      1  0.4459380000000  0.4834890000000  0.5138620000000 1.0
C      1  0.4676150000000  0.5346120000000  0.5100270000000 1.0
C      1  0.5368470000000  0.5417990000000  0.5144890000000 1.0
C      1  0.5462920000000  0.4935550000000  0.5111320000000 1.0
C      1  0.5242720000000  0.4928120000000  0.5895920000000 1.0
C      1  0.4996570000000  0.4752220000000  0.5918300000000 1.0
C      1  0.4715480000000  0.4914840000000  0.5846060000000 1.0
C      1  0.4819590000000  0.5192300000000  0.5866570000000 1.0
C      1  0.5114430000000  0.5199780000000  0.5904250000000 1.0
C      1  0.5222740000000  0.4948500000000  0.4111910000000 1.0
C      1  0.5137460000000  0.4671570000000  0.4116950000000 1.0
C      1  0.4582180000000  0.5059790000000  0.4085970000000 1.0
C      1  0.4712720000000  0.5276970000000  0.4142460000000 1.0
C      1  0.5270640000000  0.5214440000000  0.4069010000000 1.0
C      1  0.4973510000000  0.4728990000000  0.5279770000000 1.0
C      1  0.4753080000000  0.4940370000000  0.5259550000000 1.0
C      1  0.4858950000000  0.5232780000000  0.5314010000000 1.0
C      1  0.5170540000000  0.5169810000000  0.5249920000000 1.0
C      1  0.5272900000000  0.4856260000000  0.5332490000000 1.0
C      1  0.4936880000000  0.4742640000000  0.4825340000000 1.0
C      1  0.4762020000000  0.4974260000000  0.4918040000000 1.0
C      1  0.4900840000000  0.5244260000000  0.4790460000000 1.0
C      1  0.5186180000000  0.5157410000000  0.4904220000000 1.0
C      1  0.5212200000000  0.4870350000000  0.4779160000000 1.0
C      1  0.4338620000000  0.4370160000000  0.5052290000000 1.0
C      1  0.4292080000000  0.5490530000000  0.5154950000000 1.0
C      1  0.5242670000000  0.5906610000000  0.5173960000000 1.0
C      1  0.5890760000000  0.5104360000000  0.5051140000000 1.0
C      1  0.5345030000000  0.4171100000000  0.5226580000000 1.0
C      1  0.4329880000000  0.4398270000000  0.4750440000000 1.0
C      1  0.4253750000000  0.5544450000000  0.4844990000000 1.0
C      1  0.5239570000000  0.5879550000000  0.4833970000000 1.0
C      1  0.5843480000000  0.5029620000000  0.4745080000000 1.0
C      1  0.5348270000000  0.4179580000000  0.4886700000000 1.0
C      1  0.4869590000000  0.4964370000000  0.4448560000000 1.0
C      1  0.5000140000000  0.4975960000000  0.5584230000000 1.0
END
