TITL C-3289332-8317-454 0.00103824890683473 125000 -657.908394432024 0 0 114 (C1) n - 1
REM
REM in /nfs/bkarasulu/CARBON/AIRSS/Generating-Clusters/AIREBO/with-SteepDescent/Higher-Symm/SD-CG/HFTN-CG
REM
REM
REM
REM
REM
REM ./C.cell (b20cbc046b6831c77cfcea5457e17084)
REM
REM compiler GCC version 9.2.1 20190827 (Red Hat 9.2.1-1)
REM options -cpp -mtune=generic -march=x86-64 -g -O0 -fpre-include=/usr/include/finclude/math-vector-fortran.h
REM seed -195992170 1229162248 1686932615 -1586723345 451958598 -1129041242 244058168 -1190731757 314810778 1983391762 1311984538 2130174874 -1435820099 -1394932259 786262620 -874366030 168532178 -1508324989 -1062473263 -885899249 475481111 -293058648 -2059245614 -857047673 2045937425 -208053876 -1677901387 -21325184 1362674178 -1133015831 -859686964 1303415810 -1432909535
REM
CELL 1.54180   50.00000   50.00000   50.00000   90.00000   90.00000   90.00000
LATT -1
SFAC C  
C      1  0.5057220000000  0.4889430000000  0.5600010000000 1.0
C      1  0.4989250000000  0.4587000000000  0.4551560000000 1.0
C      1  0.5032170000000  0.5594980000000  0.4886330000000 1.0
C      1  0.5481770000000  0.4652290000000  0.4809390000000 1.0
C      1  0.5545550000000  0.5329290000000  0.4817380000000 1.0
C      1  0.5484280000000  0.5001850000000  0.5285030000000 1.0
C      1  0.4169240000000  0.5297290000000  0.4181070000000 1.0
C      1  0.4126890000000  0.5532630000000  0.5637730000000 1.0
C      1  0.4136480000000  0.4097620000000  0.5158780000000 1.0
C      1  0.4342170000000  0.4435760000000  0.4598710000000 1.0
C      1  0.4352680000000  0.5630400000000  0.4717650000000 1.0
C      1  0.4348290000000  0.4920440000000  0.5757970000000 1.0
C      1  0.4367810000000  0.5567060000000  0.5768220000000 1.0
C      1  0.4385260000000  0.3977730000000  0.5159150000000 1.0
C      1  0.4415150000000  0.5354690000000  0.4068140000000 1.0
C      1  0.4926590000000  0.5203130000000  0.5615720000000 1.0
C      1  0.4985390000000  0.4333310000000  0.4739570000000 1.0
C      1  0.4980710000000  0.5493290000000  0.4581470000000 1.0
C      1  0.5354920000000  0.4708680000000  0.4130790000000 1.0
C      1  0.5325720000000  0.5912850000000  0.5288140000000 1.0
C      1  0.5331110000000  0.4316580000000  0.5619880000000 1.0
C      1  0.5244830000000  0.4407730000000  0.4168620000000 1.0
C      1  0.5266770000000  0.6034610000000  0.4978550000000 1.0
C      1  0.5273900000000  0.4513160000000  0.5872300000000 1.0
C      1  0.4781090000000  0.5780110000000  0.4980880000000 1.0
C      1  0.4802340000000  0.4675830000000  0.5669820000000 1.0
C      1  0.4746020000000  0.4570860000000  0.4342940000000 1.0
C      1  0.5388410000000  0.4297110000000  0.5123090000000 1.0
C      1  0.5405990000000  0.5250210000000  0.4364180000000 1.0
C      1  0.5380480000000  0.5434390000000  0.5516060000000 1.0
C      1  0.4981940000000  0.6003000000000  0.5113060000000 1.0
C      1  0.4982590000000  0.4427270000000  0.5771480000000 1.0
C      1  0.4982650000000  0.4575770000000  0.4116010000000 1.0
C      1  0.4295870000000  0.5737670000000  0.5241050000000 1.0
C      1  0.4274290000000  0.4449310000000  0.5455370000000 1.0
C      1  0.4339240000000  0.4871920000000  0.4294990000000 1.0
C      1  0.4468180000000  0.4681450000000  0.5605280000000 1.0
C      1  0.4485890000000  0.4685450000000  0.4490970000000 1.0
C      1  0.4469550000000  0.5642540000000  0.5000860000000 1.0
C      1  0.5181930000000  0.4702780000000  0.4950970000000 1.0
C      1  0.5253040000000  0.5200480000000  0.4856030000000 1.0
C      1  0.5217990000000  0.4976110000000  0.5095490000000 1.0
C      1  0.5609310000000  0.4606240000000  0.4429510000000 1.0
C      1  0.5685110000000  0.5663400000000  0.4986420000000 1.0
C      1  0.5593800000000  0.4750950000000  0.5575660000000 1.0
C      1  0.4971260000000  0.4955270000000  0.5284650000000 1.0
C      1  0.4991050000000  0.4897220000000  0.4658870000000 1.0
C      1  0.5054710000000  0.5339610000000  0.5094700000000 1.0
C      1  0.5704840000000  0.5663590000000  0.4515400000000 1.0
C      1  0.5843950000000  0.5144880000000  0.5670450000000 1.0
C      1  0.5701140000000  0.4235590000000  0.4696410000000 1.0
C      1  0.4690780000000  0.5217580000000  0.4175510000000 1.0
C      1  0.4637720000000  0.5640260000000  0.5595220000000 1.0
C      1  0.4638430000000  0.4159430000000  0.5223040000000 1.0
C      1  0.4566440000000  0.5368100000000  0.5093030000000 1.0
C      1  0.4575190000000  0.4707090000000  0.5303710000000 1.0
C      1  0.4605080000000  0.4852830000000  0.4713150000000 1.0
C      1  0.5399540000000  0.4945170000000  0.4337650000000 1.0
C      1  0.5412580000000  0.5642470000000  0.5277650000000 1.0
C      1  0.5406940000000  0.4454970000000  0.5383150000000 1.0
C      1  0.5070290000000  0.5410830000000  0.5392740000000 1.0
C      1  0.5081510000000  0.4391660000000  0.5046230000000 1.0
C      1  0.5122840000000  0.5188040000000  0.4541930000000 1.0
C      1  0.4504370000000  0.5850040000000  0.5398760000000 1.0
C      1  0.4519990000000  0.4294350000000  0.5478760000000 1.0
C      1  0.4538130000000  0.4947230000000  0.4107430000000 1.0
C      1  0.5277250000000  0.4824910000000  0.5851290000000 1.0
C      1  0.5347530000000  0.4237730000000  0.4367620000000 1.0
C      1  0.5354160000000  0.5907330000000  0.4740010000000 1.0
C      1  0.5304430000000  0.4689510000000  0.4526920000000 1.0
C      1  0.5359720000000  0.5565290000000  0.4976180000000 1.0
C      1  0.5307330000000  0.4752860000000  0.5414330000000 1.0
C      1  0.5577060000000  0.4374590000000  0.4892340000000 1.0
C      1  0.5605820000000  0.5411860000000  0.4533090000000 1.0
C      1  0.5552060000000  0.5188150000000  0.5512690000000 1.0
C      1  0.5292040000000  0.5570090000000  0.4344550000000 1.0
C      1  0.5180810000000  0.5322280000000  0.5764520000000 1.0
C      1  0.5287070000000  0.4101810000000  0.4863590000000 1.0
C      1  0.5781850000000  0.5166270000000  0.4931950000000 1.0
C      1  0.5751090000000  0.4927720000000  0.5145810000000 1.0
C      1  0.5729730000000  0.4853700000000  0.4833650000000 1.0
C      1  0.4711090000000  0.4288030000000  0.4918760000000 1.0
C      1  0.4706860000000  0.5349870000000  0.4463100000000 1.0
C      1  0.4622830000000  0.5309950000000  0.5598830000000 1.0
C      1  0.4121520000000  0.5047130000000  0.4293380000000 1.0
C      1  0.4078130000000  0.5640640000000  0.5386510000000 1.0
C      1  0.4077460000000  0.4327660000000  0.5302450000000 1.0
C      1  0.5199500000000  0.5752290000000  0.4559780000000 1.0
C      1  0.5243290000000  0.5141810000000  0.5969960000000 1.0
C      1  0.5196210000000  0.4148410000000  0.4590840000000 1.0
C      1  0.4783200000000  0.5288290000000  0.4939210000000 1.0
C      1  0.4687150000000  0.4961790000000  0.5274980000000 1.0
C      1  0.4845220000000  0.4710850000000  0.4903080000000 1.0
C      1  0.4462470000000  0.4264240000000  0.4735270000000 1.0
C      1  0.4458600000000  0.5525380000000  0.4518780000000 1.0
C      1  0.4431040000000  0.5155390000000  0.5786890000000 1.0
C      1  0.4754100000000  0.5141520000000  0.4687720000000 1.0
C      1  0.4562110000000  0.5211900000000  0.5316060000000 1.0
C      1  0.4684530000000  0.4542020000000  0.5111830000000 1.0
C      1  0.5614530000000  0.4319480000000  0.4439070000000 1.0
C      1  0.5628930000000  0.5820340000000  0.4742310000000 1.0
C      1  0.5564570000000  0.4993600000000  0.5791540000000 1.0
C      1  0.5809670000000  0.4750730000000  0.5398940000000 1.0
C      1  0.5799380000000  0.4766360000000  0.4540430000000 1.0
C      1  0.5862950000000  0.5462420000000  0.5029450000000 1.0
C      1  0.4677870000000  0.5991080000000  0.5232510000000 1.0
C      1  0.4677410000000  0.4354020000000  0.5695450000000 1.0
C      1  0.4699220000000  0.4726160000000  0.4043220000000 1.0
C      1  0.5085110000000  0.4898110000000  0.4097990000000 1.0
C      1  0.5048990000000  0.5919360000000  0.5427010000000 1.0
C      1  0.5051860000000  0.4203620000000  0.5528190000000 1.0
C      1  0.4934210000000  0.5675460000000  0.5509410000000 1.0
C      1  0.4943770000000  0.4222210000000  0.5266590000000 1.0
C      1  0.4981660000000  0.5114950000000  0.4241200000000 1.0
END
