TITL C-3289329-2751-659 -1.40170767093793e-07 125000 -69.6531550667638 0 0 12 (C2) n - 1
REM
REM in /nfs/bkarasulu/CARBON/AIRSS/Generating-Clusters/AIREBO/with-SteepDescent/Higher-Symm/SD-CG/HFTN-CG
REM
REM
REM
REM
REM
REM ./C.cell (b20cbc046b6831c77cfcea5457e17084)
REM
REM compiler GCC version 9.2.1 20190827 (Red Hat 9.2.1-1)
REM options -cpp -mtune=generic -march=x86-64 -g -O0 -fpre-include=/usr/include/finclude/math-vector-fortran.h
REM seed -760221938 565972068 552429637 -2038018097 1578590492 -1992998124 465411070 -1567656166 -1999539051 1103774416 -1878523746 1793453606 1700340261 1252813797 -1844038853 264896359 -2110762135 -1598204741 -980075355 -1464203348 -748232688 1986587299 800986728 953240993 146889657 637378575 -1228927537 816536871 281181968 -1132569437 1535954036 1260645416 -1445728106
REM
CELL 1.54180   50.00000   50.00000   50.00000   90.00000   90.00000   90.00000
LATT -1
SFAC C  
C      1  0.4986160000000  0.5360370000000  0.4634050000000 1.0
C      1  0.5009690000000  0.4510980000000  0.4865380000000 1.0
C      1  0.4971500000000  0.5130110000000  0.5500020000000 1.0
C      1  0.5013960000000  0.5360310000000  0.5366010000000 1.0
C      1  0.4990130000000  0.4510960000000  0.5134540000000 1.0
C      1  0.5028540000000  0.5130180000000  0.4500000000000 1.0
C      1  0.5043750000000  0.4642580000000  0.5363670000000 1.0
C      1  0.4979120000000  0.5492640000000  0.5133330000000 1.0
C      1  0.4989660000000  0.4863330000000  0.4484180000000 1.0
C      1  0.4956120000000  0.4642650000000  0.4636270000000 1.0
C      1  0.5021060000000  0.5492650000000  0.4866750000000 1.0
C      1  0.5010290000000  0.4863240000000  0.5515800000000 1.0
END
