TITL C-3289335-9438-243 0.00539477520760752 125000 -757.968870873655 0 0 152 (C1) n - 1
REM
REM in /nfs/bkarasulu/CARBON/AIRSS/Generating-Clusters/AIREBO/with-SteepDescent/Higher-Symm/SD-CG/HFTN-CG
REM
REM
REM
REM
REM
REM ./C.cell (b20cbc046b6831c77cfcea5457e17084)
REM
REM compiler GCC version 9.2.1 20190827 (Red Hat 9.2.1-1)
REM options -cpp -mtune=generic -march=x86-64 -g -O0 -fpre-include=/usr/include/finclude/math-vector-fortran.h
REM seed 2114318594 1377939752 1829777451 -703080532 -732795979 -507822370 68138608 -36196302 1826178529 713367155 448478557 -506492923 -662496091 -638064039 -181652108 -1785003138 -1023550182 -1017232641 -1938830836 -778699845 1086642909 86299387 -843347049 871080405 -866438731 2110993686 1815030735 1498936352 -1403370530 1943163491 -824707803 -1511942680 -1451093696
REM
CELL 1.54180   50.00000   50.00000   50.00000   90.00000   90.00000   90.00000
LATT -1
SFAC C  
C      1  0.4607210000000  0.5248100000000  0.5182720000000 1.0
C      1  0.5005180000000  0.5256860000000  0.5388140000000 1.0
C      1  0.5422560000000  0.5226400000000  0.5092920000000 1.0
C      1  0.5220040000000  0.5220030000000  0.4654490000000 1.0
C      1  0.4759950000000  0.5221680000000  0.4773130000000 1.0
C      1  0.4925640000000  0.4479770000000  0.4398730000000 1.0
C      1  0.4487820000000  0.4460810000000  0.4917320000000 1.0
C      1  0.4719990000000  0.4515470000000  0.5493260000000 1.0
C      1  0.5320610000000  0.4461610000000  0.5388890000000 1.0
C      1  0.5511180000000  0.4447230000000  0.4774520000000 1.0
C      1  0.5278380000000  0.4375190000000  0.5775610000000 1.0
C      1  0.5866680000000  0.4340890000000  0.4922560000000 1.0
C      1  0.5200670000000  0.4386410000000  0.4124010000000 1.0
C      1  0.4340600000000  0.4403300000000  0.4553250000000 1.0
C      1  0.4356740000000  0.4392270000000  0.5600140000000 1.0
C      1  0.4761070000000  0.5996780000000  0.5460890000000 1.0
C      1  0.5169370000000  0.6063320000000  0.5434630000000 1.0
C      1  0.5461390000000  0.5934090000000  0.4790620000000 1.0
C      1  0.4953000000000  0.5975170000000  0.4413230000000 1.0
C      1  0.4408570000000  0.5964460000000  0.4892640000000 1.0
C      1  0.5309260000000  0.5515030000000  0.4764930000000 1.0
C      1  0.4884970000000  0.5527420000000  0.4691370000000 1.0
C      1  0.4559690000000  0.5546300000000  0.5026050000000 1.0
C      1  0.4868930000000  0.5568430000000  0.5400170000000 1.0
C      1  0.5360620000000  0.5508600000000  0.5267830000000 1.0
C      1  0.4843510000000  0.6006230000000  0.4704900000000 1.0
C      1  0.4695890000000  0.6068460000000  0.4985890000000 1.0
C      1  0.4887840000000  0.6157650000000  0.5220950000000 1.0
C      1  0.5162950000000  0.6030550000000  0.5112750000000 1.0
C      1  0.5158940000000  0.6029270000000  0.4794540000000 1.0
C      1  0.5211360000000  0.4170170000000  0.5023040000000 1.0
C      1  0.5063680000000  0.4301250000000  0.4777460000000 1.0
C      1  0.4842340000000  0.4098230000000  0.4687450000000 1.0
C      1  0.4699720000000  0.4041430000000  0.5207510000000 1.0
C      1  0.5032280000000  0.4057780000000  0.5277590000000 1.0
C      1  0.3942120000000  0.4744750000000  0.4670310000000 1.0
C      1  0.4321250000000  0.4860860000000  0.5903830000000 1.0
C      1  0.5606460000000  0.4842550000000  0.5854330000000 1.0
C      1  0.6069340000000  0.4820090000000  0.4695810000000 1.0
C      1  0.5066600000000  0.4882580000000  0.3873960000000 1.0
C      1  0.5072520000000  0.3716590000000  0.5244220000000 1.0
C      1  0.5232160000000  0.3846370000000  0.5005530000000 1.0
C      1  0.5170610000000  0.3719890000000  0.4734880000000 1.0
C      1  0.4894380000000  0.3828310000000  0.4793300000000 1.0
C      1  0.4825520000000  0.3794660000000  0.5061860000000 1.0
C      1  0.4461930000000  0.5064570000000  0.4820650000000 1.0
C      1  0.4627200000000  0.5105650000000  0.5490880000000 1.0
C      1  0.5296240000000  0.5100490000000  0.5468820000000 1.0
C      1  0.5595450000000  0.5051200000000  0.4859750000000 1.0
C      1  0.5036460000000  0.5086420000000  0.4402500000000 1.0
C      1  0.5337780000000  0.5734620000000  0.4329160000000 1.0
C      1  0.4440830000000  0.5701480000000  0.4483950000000 1.0
C      1  0.4418890000000  0.5759280000000  0.5333610000000 1.0
C      1  0.5177420000000  0.5754140000000  0.5731540000000 1.0
C      1  0.5641180000000  0.5722990000000  0.5083790000000 1.0
C      1  0.5808950000000  0.4610710000000  0.4758940000000 1.0
C      1  0.5041700000000  0.4661720000000  0.4135930000000 1.0
C      1  0.4229750000000  0.4588620000000  0.4774310000000 1.0
C      1  0.4490270000000  0.4675350000000  0.5669070000000 1.0
C      1  0.5411520000000  0.4649100000000  0.5653830000000 1.0
C      1  0.5658270000000  0.4835990000000  0.5189800000000 1.0
C      1  0.5330890000000  0.4827180000000  0.4389600000000 1.0
C      1  0.4572430000000  0.4841650000000  0.4512140000000 1.0
C      1  0.4385760000000  0.4846050000000  0.5319740000000 1.0
C      1  0.5070830000000  0.4855620000000  0.5687680000000 1.0
C      1  0.4725380000000  0.5231140000000  0.4016050000000 1.0
C      1  0.3990020000000  0.5168990000000  0.4971510000000 1.0
C      1  0.4656590000000  0.5235380000000  0.5966980000000 1.0
C      1  0.5782090000000  0.5168110000000  0.5619890000000 1.0
C      1  0.5864080000000  0.5186060000000  0.4454990000000 1.0
C      1  0.4042330000000  0.5043060000000  0.5294810000000 1.0
C      1  0.4976120000000  0.5088570000000  0.5998020000000 1.0
C      1  0.5959980000000  0.5015730000000  0.5373150000000 1.0
C      1  0.5622410000000  0.5051960000000  0.4242780000000 1.0
C      1  0.4478290000000  0.5071110000000  0.4201680000000 1.0
C      1  0.4866620000000  0.4953210000000  0.4139750000000 1.0
C      1  0.4162970000000  0.4907660000000  0.4871120000000 1.0
C      1  0.4629210000000  0.4957980000000  0.5797240000000 1.0
C      1  0.5576630000000  0.4915520000000  0.5521910000000 1.0
C      1  0.5752920000000  0.4904160000000  0.4596600000000 1.0
C      1  0.4684510000000  0.4241960000000  0.4429710000000 1.0
C      1  0.4431180000000  0.4238640000000  0.5131040000000 1.0
C      1  0.4863440000000  0.4316660000000  0.5689010000000 1.0
C      1  0.5486420000000  0.4302950000000  0.5146100000000 1.0
C      1  0.5304390000000  0.4317530000000  0.4537810000000 1.0
C      1  0.4410920000000  0.5315760000000  0.5748850000000 1.0
C      1  0.5513730000000  0.5271010000000  0.5757560000000 1.0
C      1  0.5920540000000  0.5265440000000  0.4780790000000 1.0
C      1  0.5054340000000  0.5300040000000  0.4067600000000 1.0
C      1  0.4141980000000  0.5264720000000  0.4692180000000 1.0
C      1  0.4326840000000  0.5062550000000  0.4508500000000 1.0
C      1  0.4289780000000  0.5085270000000  0.5528270000000 1.0
C      1  0.5260510000000  0.5081970000000  0.5806720000000 1.0
C      1  0.5882160000000  0.5048900000000  0.5042560000000 1.0
C      1  0.5287230000000  0.5074530000000  0.4173040000000 1.0
C      1  0.5859890000000  0.5340090000000  0.5352340000000 1.0
C      1  0.5577740000000  0.5329010000000  0.4415600000000 1.0
C      1  0.4627040000000  0.5341680000000  0.4308520000000 1.0
C      1  0.4154280000000  0.5339170000000  0.5184380000000 1.0
C      1  0.4914820000000  0.5373270000000  0.5847040000000 1.0
C      1  0.4958200000000  0.4617400000000  0.4709070000000 1.0
C      1  0.4730940000000  0.4650340000000  0.4963560000000 1.0
C      1  0.4870950000000  0.4694970000000  0.5257730000000 1.0
C      1  0.5177010000000  0.4666180000000  0.5183820000000 1.0
C      1  0.5260940000000  0.4666670000000  0.4856030000000 1.0
C      1  0.5159540000000  0.5733600000000  0.5392570000000 1.0
C      1  0.5307110000000  0.5736530000000  0.5021180000000 1.0
C      1  0.5126700000000  0.5746640000000  0.4595530000000 1.0
C      1  0.4633460000000  0.5745600000000  0.4760630000000 1.0
C      1  0.4725310000000  0.5794090000000  0.5190150000000 1.0
C      1  0.5079220000000  0.4598140000000  0.5866950000000 1.0
C      1  0.5838010000000  0.4550030000000  0.5149650000000 1.0
C      1  0.5416540000000  0.4566500000000  0.4237630000000 1.0
C      1  0.4478660000000  0.4579810000000  0.4373030000000 1.0
C      1  0.4236690000000  0.4576000000000  0.5376630000000 1.0
C      1  0.4135370000000  0.4406020000000  0.5117030000000 1.0
C      1  0.4814800000000  0.4449620000000  0.5998320000000 1.0
C      1  0.5660420000000  0.4460460000000  0.5404260000000 1.0
C      1  0.5617840000000  0.4432450000000  0.4451900000000 1.0
C      1  0.4687350000000  0.4452230000000  0.4157520000000 1.0
C      1  0.4533830000000  0.5603390000000  0.5615590000000 1.0
C      1  0.5450880000000  0.5562500000000  0.5652820000000 1.0
C      1  0.5768950000000  0.5568790000000  0.4806680000000 1.0
C      1  0.5042730000000  0.5589170000000  0.4235740000000 1.0
C      1  0.4273590000000  0.5558960000000  0.4746810000000 1.0
C      1  0.4561950000000  0.4236540000000  0.5421000000000 1.0
C      1  0.5118610000000  0.4220320000000  0.5519490000000 1.0
C      1  0.5618390000000  0.4147450000000  0.4896990000000 1.0
C      1  0.5092530000000  0.4186130000000  0.4338010000000 1.0
C      1  0.4532890000000  0.4200020000000  0.4718190000000 1.0
C      1  0.5705630000000  0.4730830000000  0.4307870000000 1.0
C      1  0.4578710000000  0.4773340000000  0.4119660000000 1.0
C      1  0.4049850000000  0.4738220000000  0.5143440000000 1.0
C      1  0.4840580000000  0.4790000000000  0.6003890000000 1.0
C      1  0.5918700000000  0.4686310000000  0.5443790000000 1.0
C      1  0.4235360000000  0.5640240000000  0.5065830000000 1.0
C      1  0.4841130000000  0.5666250000000  0.5723140000000 1.0
C      1  0.5651190000000  0.5610590000000  0.5411970000000 1.0
C      1  0.5556010000000  0.5617070000000  0.4568910000000 1.0
C      1  0.4763570000000  0.5625440000000  0.4389270000000 1.0
C      1  0.5695390000000  0.5396130000000  0.5082530000000 1.0
C      1  0.5270730000000  0.5409550000000  0.4384110000000 1.0
C      1  0.4520080000000  0.5394860000000  0.4605390000000 1.0
C      1  0.4391070000000  0.5433580000000  0.5368530000000 1.0
C      1  0.5149130000000  0.5426430000000  0.5645440000000 1.0
C      1  0.4854400000000  0.4930700000000  0.4622850000000 1.0
C      1  0.4569890000000  0.4924510000000  0.5084640000000 1.0
C      1  0.4897190000000  0.4942150000000  0.5458660000000 1.0
C      1  0.5351430000000  0.4922350000000  0.5192710000000 1.0
C      1  0.5354190000000  0.4916000000000  0.4685550000000 1.0
C      1  0.4984790000000  0.5630260000000  0.5043380000000 1.0
C      1  0.4912080000000  0.5307310000000  0.5065010000000 1.0
END
