TITL C-3289330-4660-361 -0.000138951738852833 125000 -597.644803958945 0 0 119 (C1) n - 1
REM
REM in /nfs/bkarasulu/CARBON/AIRSS/Generating-Clusters/AIREBO/with-SteepDescent/Higher-Symm/SD-CG/HFTN-CG
REM
REM
REM
REM
REM
REM ./C.cell (b20cbc046b6831c77cfcea5457e17084)
REM
REM compiler GCC version 9.2.1 20190827 (Red Hat 9.2.1-1)
REM options -cpp -mtune=generic -march=x86-64 -g -O0 -fpre-include=/usr/include/finclude/math-vector-fortran.h
REM seed -1749857040 -578938166 1463428873 1582263485 -2118868744 811226600 1699981875 -1699215980 -2015107675 382429047 912172027 -1682242995 -448673621 1453731884 1425531372 -1105769583 -702274391 -491786440 2028340089 1996613521 1109529659 -1880252546 -387515487 -920140657 341290408 -1481252669 1755870833 -1138727912 -1472275942 543560547 2032069971 1600866126 -1845640536
REM
CELL 1.54180   50.00000   50.00000   50.00000   90.00000   90.00000   90.00000
LATT -1
SFAC C  
C      1  0.5124900000000  0.4635230000000  0.4839380000000 1.0
C      1  0.4626950000000  0.4890610000000  0.4845300000000 1.0
C      1  0.4879060000000  0.5383320000000  0.4834690000000 1.0
C      1  0.5381540000000  0.5117450000000  0.4832180000000 1.0
C      1  0.5093330000000  0.4696080000000  0.5153830000000 1.0
C      1  0.4700950000000  0.4910260000000  0.5152580000000 1.0
C      1  0.4894800000000  0.5309840000000  0.5150080000000 1.0
C      1  0.5326290000000  0.5078530000000  0.5146690000000 1.0
C      1  0.5242650000000  0.5609190000000  0.5662820000000 1.0
C      1  0.5602560000000  0.4748780000000  0.5691330000000 1.0
C      1  0.4763180000000  0.4392400000000  0.5690060000000 1.0
C      1  0.4373650000000  0.5218160000000  0.5692540000000 1.0
C      1  0.5253650000000  0.5614940000000  0.4320810000000 1.0
C      1  0.5628750000000  0.4763310000000  0.4339380000000 1.0
C      1  0.4763750000000  0.4381720000000  0.4350020000000 1.0
C      1  0.4391960000000  0.5254790000000  0.4327840000000 1.0
C      1  0.5110220000000  0.5573710000000  0.4784050000000 1.0
C      1  0.5578960000000  0.4892630000000  0.4791730000000 1.0
C      1  0.4899190000000  0.4443020000000  0.4789880000000 1.0
C      1  0.4373260000000  0.5082680000000  0.4779380000000 1.0
C      1  0.5107240000000  0.5545980000000  0.5182860000000 1.0
C      1  0.5602870000000  0.4911040000000  0.5189640000000 1.0
C      1  0.4926640000000  0.4410960000000  0.5187380000000 1.0
C      1  0.4408530000000  0.5073780000000  0.5195360000000 1.0
C      1  0.4591340000000  0.5467180000000  0.4503190000000 1.0
C      1  0.5479120000000  0.5419630000000  0.4475100000000 1.0
C      1  0.5440390000000  0.4529630000000  0.4483690000000 1.0
C      1  0.4530770000000  0.4580570000000  0.4483890000000 1.0
C      1  0.4584750000000  0.5415060000000  0.5525990000000 1.0
C      1  0.5443270000000  0.5412430000000  0.5504320000000 1.0
C      1  0.5401750000000  0.4562860000000  0.5513340000000 1.0
C      1  0.4574040000000  0.4597280000000  0.5521330000000 1.0
C      1  0.4596800000000  0.5354080000000  0.5219120000000 1.0
C      1  0.5376330000000  0.5387500000000  0.5202340000000 1.0
C      1  0.5402600000000  0.4651320000000  0.5214520000000 1.0
C      1  0.4664480000000  0.4606050000000  0.5223430000000 1.0
C      1  0.4573090000000  0.5355420000000  0.4815450000000 1.0
C      1  0.5378850000000  0.5406460000000  0.4775780000000 1.0
C      1  0.5412760000000  0.4627120000000  0.4780600000000 1.0
C      1  0.4631760000000  0.4603960000000  0.4780290000000 1.0
C      1  0.4231010000000  0.5283150000000  0.5396260000000 1.0
C      1  0.5303490000000  0.5757370000000  0.5362850000000 1.0
C      1  0.5759630000000  0.4691760000000  0.5396720000000 1.0
C      1  0.4712330000000  0.4246760000000  0.5394060000000 1.0
C      1  0.4227630000000  0.5336330000000  0.4605590000000 1.0
C      1  0.5327040000000  0.5764960000000  0.4606930000000 1.0
C      1  0.5786440000000  0.4689130000000  0.4631540000000 1.0
C      1  0.4682130000000  0.4231600000000  0.4644080000000 1.0
C      1  0.4743500000000  0.5824960000000  0.5167680000000 1.0
C      1  0.5851510000000  0.5217400000000  0.5125170000000 1.0
C      1  0.5227490000000  0.4155890000000  0.5123850000000 1.0
C      1  0.4217830000000  0.4793930000000  0.5164020000000 1.0
C      1  0.4770920000000  0.5846750000000  0.4876770000000 1.0
C      1  0.5858970000000  0.5255630000000  0.4835160000000 1.0
C      1  0.5270510000000  0.4146920000000  0.4834510000000 1.0
C      1  0.4170590000000  0.4813660000000  0.4826620000000 1.0
C      1  0.4075530000000  0.5113950000000  0.5139210000000 1.0
C      1  0.5074050000000  0.5867710000000  0.5135090000000 1.0
C      1  0.5940570000000  0.4901520000000  0.5198500000000 1.0
C      1  0.4914140000000  0.4070710000000  0.5190030000000 1.0
C      1  0.4040090000000  0.5140800000000  0.4815680000000 1.0
C      1  0.5090570000000  0.5913320000000  0.4801040000000 1.0
C      1  0.5896420000000  0.4920050000000  0.4861660000000 1.0
C      1  0.4932170000000  0.4125370000000  0.4854940000000 1.0
C      1  0.5619900000000  0.5715530000000  0.4702220000000 1.0
C      1  0.5730020000000  0.4392730000000  0.4721180000000 1.0
C      1  0.4372380000000  0.4306250000000  0.4725540000000 1.0
C      1  0.4293260000000  0.5620860000000  0.4719670000000 1.0
C      1  0.5610300000000  0.5699080000000  0.5285680000000 1.0
C      1  0.5696890000000  0.4397430000000  0.5303760000000 1.0
C      1  0.4417700000000  0.4302950000000  0.5303670000000 1.0
C      1  0.4286960000000  0.5582660000000  0.5322080000000 1.0
C      1  0.5049420000000  0.5208040000000  0.5435330000000 1.0
C      1  0.5234250000000  0.4938860000000  0.5438840000000 1.0
C      1  0.4946860000000  0.4780340000000  0.5446780000000 1.0
C      1  0.4766600000000  0.5050620000000  0.5449210000000 1.0
C      1  0.5055340000000  0.5213870000000  0.4622000000000 1.0
C      1  0.5230910000000  0.4942860000000  0.4607550000000 1.0
C      1  0.4945850000000  0.4800660000000  0.4621990000000 1.0
C      1  0.4764560000000  0.5065450000000  0.4620740000000 1.0
C      1  0.4565420000000  0.4807870000000  0.5859810000000 1.0
C      1  0.4806150000000  0.5440750000000  0.5782760000000 1.0
C      1  0.5427770000000  0.5180660000000  0.5828280000000 1.0
C      1  0.5176810000000  0.4563660000000  0.5842950000000 1.0
C      1  0.4570640000000  0.4815520000000  0.4241230000000 1.0
C      1  0.4825150000000  0.5438570000000  0.4257820000000 1.0
C      1  0.5446260000000  0.5180980000000  0.4235020000000 1.0
C      1  0.5194230000000  0.4559540000000  0.4250910000000 1.0
C      1  0.4714450000000  0.5736960000000  0.5711420000000 1.0
C      1  0.5690200000000  0.5277230000000  0.5670630000000 1.0
C      1  0.5273730000000  0.4308770000000  0.5678040000000 1.0
C      1  0.4314500000000  0.4700350000000  0.5701620000000 1.0
C      1  0.4674790000000  0.5739530000000  0.4317250000000 1.0
C      1  0.5747160000000  0.5337730000000  0.4282380000000 1.0
C      1  0.5361760000000  0.4262950000000  0.4287750000000 1.0
C      1  0.4266680000000  0.4664780000000  0.4286750000000 1.0
C      1  0.4879190000000  0.4704700000000  0.5758470000000 1.0
C      1  0.4688460000000  0.5107500000000  0.5758220000000 1.0
C      1  0.5114870000000  0.5304130000000  0.5741990000000 1.0
C      1  0.5294180000000  0.4876140000000  0.5757330000000 1.0
C      1  0.4890100000000  0.4695360000000  0.4313560000000 1.0
C      1  0.4702400000000  0.5117970000000  0.4303890000000 1.0
C      1  0.5127200000000  0.5299510000000  0.4307510000000 1.0
C      1  0.5312380000000  0.4882140000000  0.4301110000000 1.0
C      1  0.5459490000000  0.4216080000000  0.4614150000000 1.0
C      1  0.4218660000000  0.4590950000000  0.4618790000000 1.0
C      1  0.4587100000000  0.5775630000000  0.4646620000000 1.0
C      1  0.5791420000000  0.5436750000000  0.4608860000000 1.0
C      1  0.5390470000000  0.4259860000000  0.5359390000000 1.0
C      1  0.4264800000000  0.4597160000000  0.5379940000000 1.0
C      1  0.4582300000000  0.5733170000000  0.5398130000000 1.0
C      1  0.5746950000000  0.5394080000000  0.5352440000000 1.0
C      1  0.4463160000000  0.4431780000000  0.5010650000000 1.0
C      1  0.4412560000000  0.5560810000000  0.5021350000000 1.0
C      1  0.5572940000000  0.4441100000000  0.5006140000000 1.0
C      1  0.5579740000000  0.5561950000000  0.4991450000000 1.0
C      1  0.5005960000000  0.4997470000000  0.4208170000000 1.0
C      1  0.4997380000000  0.5007250000000  0.5859250000000 1.0
C      1  0.5009210000000  0.5007690000000  0.5047290000000 1.0
END
