TITL C-3289332-8317-412 -2.05460273134803e-07 125000 -62.9381984912663 0 0 14 (C3v) n - 1
REM
REM in /nfs/bkarasulu/CARBON/AIRSS/Generating-Clusters/AIREBO/with-SteepDescent/Higher-Symm/SD-CG/HFTN-CG
REM
REM
REM
REM
REM
REM ./C.cell (b20cbc046b6831c77cfcea5457e17084)
REM
REM compiler GCC version 9.2.1 20190827 (Red Hat 9.2.1-1)
REM options -cpp -mtune=generic -march=x86-64 -g -O0 -fpre-include=/usr/include/finclude/math-vector-fortran.h
REM seed 778700469 -1427759219 1939267966 -1861857099 -306885565 1713185129 -944249991 -990355199 -1262138731 -111979516 99632306 737761786 -1840214209 714043611 1148001618 2133429231 -72307068 -771230134 644076801 1416776206 -594216851 -923183730 -292067205 -868242054 258293262 -1640305082 -2109031592 -1681028418 -823244934 1674522308 -337374965 145186281 57778897
REM
CELL 1.54180   50.00000   50.00000   50.00000   90.00000   90.00000   90.00000
LATT -1
SFAC C  
C      1  0.5281160000000  0.4989680000000  0.4945590000000 1.0
C      1  0.4856090000000  0.5049320000000  0.5291880000000 1.0
C      1  0.4772850000000  0.5069470000000  0.4747070000000 1.0
C      1  0.4579200000000  0.5027430000000  0.5335860000000 1.0
C      1  0.4859330000000  0.4996680000000  0.4489570000000 1.0
C      1  0.5443470000000  0.4898920000000  0.5156550000000 1.0
C      1  0.5372160000000  0.4916180000000  0.4689860000000 1.0
C      1  0.5014620000000  0.4959090000000  0.5505920000000 1.0
C      1  0.4495220000000  0.5047760000000  0.4786210000000 1.0
C      1  0.4946710000000  0.5319090000000  0.5168280000000 1.0
C      1  0.4899170000000  0.5330600000000  0.4857160000000 1.0
C      1  0.5189450000000  0.5285030000000  0.4970530000000 1.0
C      1  0.4908430000000  0.4629690000000  0.4989230000000 1.0
C      1  0.4955030000000  0.4937180000000  0.4993480000000 1.0
END
