TITL C-3289330-4660-663 0.00829055819142619 125000 -1021.0647486629 0 0 188 (C1) n - 1
REM
REM in /nfs/bkarasulu/CARBON/AIRSS/Generating-Clusters/AIREBO/with-SteepDescent/Higher-Symm/SD-CG/HFTN-CG
REM
REM
REM
REM
REM
REM ./C.cell (b20cbc046b6831c77cfcea5457e17084)
REM
REM compiler GCC version 9.2.1 20190827 (Red Hat 9.2.1-1)
REM options -cpp -mtune=generic -march=x86-64 -g -O0 -fpre-include=/usr/include/finclude/math-vector-fortran.h
REM seed -1888000604 -2027955842 -1801653488 -1538305607 1322768816 1417374587 1903679789 -2042420926 -1705092790 355957205 994870678 -415137105 -513426354 146949570 -1223910905 -482772878 1749543710 2004833868 -1055407910 2077770529 -452838505 783622865 -686233217 1612567908 -1593352838 749665869 -1512285681 -1409302723 1550389334 1282536612 663888325 460130833 561473041
REM
CELL 1.54180   50.00000   50.00000   50.00000   90.00000   90.00000   90.00000
LATT -1
SFAC C  
C      1  0.5546070000000  0.4262920000000  0.4834960000000 1.0
C      1  0.5490580000000  0.4295920000000  0.5171840000000 1.0
C      1  0.5277520000000  0.4270810000000  0.5437390000000 1.0
C      1  0.4969550000000  0.4324320000000  0.5544920000000 1.0
C      1  0.4642490000000  0.4237050000000  0.5504330000000 1.0
C      1  0.4406700000000  0.4294270000000  0.5311900000000 1.0
C      1  0.4423070000000  0.4124600000000  0.5014710000000 1.0
C      1  0.4488810000000  0.4217750000000  0.4712160000000 1.0
C      1  0.4762770000000  0.4155670000000  0.4527720000000 1.0
C      1  0.5096120000000  0.4219620000000  0.4494150000000 1.0
C      1  0.5357300000000  0.4331640000000  0.4603340000000 1.0
C      1  0.5330500000000  0.5309680000000  0.5325520000000 1.0
C      1  0.5103870000000  0.5444740000000  0.5338740000000 1.0
C      1  0.4902550000000  0.5335420000000  0.5468870000000 1.0
C      1  0.4612990000000  0.5254970000000  0.5344910000000 1.0
C      1  0.4621630000000  0.5338960000000  0.5038950000000 1.0
C      1  0.4718460000000  0.5539840000000  0.4897130000000 1.0
C      1  0.4726390000000  0.5522340000000  0.4640120000000 1.0
C      1  0.4945250000000  0.5362910000000  0.4451370000000 1.0
C      1  0.5257170000000  0.5284510000000  0.4523830000000 1.0
C      1  0.5365360000000  0.5307300000000  0.4794240000000 1.0
C      1  0.5527570000000  0.5224900000000  0.5078520000000 1.0
C      1  0.4063620000000  0.4192190000000  0.4472910000000 1.0
C      1  0.4523400000000  0.4323320000000  0.4073190000000 1.0
C      1  0.5075160000000  0.4168330000000  0.4002200000000 1.0
C      1  0.5672810000000  0.4402630000000  0.4169160000000 1.0
C      1  0.5972410000000  0.4120240000000  0.4581770000000 1.0
C      1  0.5867280000000  0.4352750000000  0.5055460000000 1.0
C      1  0.5741760000000  0.4330060000000  0.5700980000000 1.0
C      1  0.5024410000000  0.4185680000000  0.6115250000000 1.0
C      1  0.4926060000000  0.4338930000000  0.5937180000000 1.0
C      1  0.4016160000000  0.4408380000000  0.5624360000000 1.0
C      1  0.4031630000000  0.4428200000000  0.4937950000000 1.0
C      1  0.5477720000000  0.4456450000000  0.5608540000000 1.0
C      1  0.5002700000000  0.4586050000000  0.5716530000000 1.0
C      1  0.4644660000000  0.4417960000000  0.5770260000000 1.0
C      1  0.4114810000000  0.4456550000000  0.5376380000000 1.0
C      1  0.4301230000000  0.4425060000000  0.5025030000000 1.0
C      1  0.4244650000000  0.4399090000000  0.4585360000000 1.0
C      1  0.4653930000000  0.4395650000000  0.4362430000000 1.0
C      1  0.5031140000000  0.4383390000000  0.4215320000000 1.0
C      1  0.5470180000000  0.4537600000000  0.4401880000000 1.0
C      1  0.5859180000000  0.4323520000000  0.4735170000000 1.0
C      1  0.5708910000000  0.4544230000000  0.5228350000000 1.0
C      1  0.5795200000000  0.5644850000000  0.4467100000000 1.0
C      1  0.5950840000000  0.5643000000000  0.5039700000000 1.0
C      1  0.5770730000000  0.5698630000000  0.5598880000000 1.0
C      1  0.5254590000000  0.5708330000000  0.5917650000000 1.0
C      1  0.4774210000000  0.5652740000000  0.5949830000000 1.0
C      1  0.4334660000000  0.5588940000000  0.5693740000000 1.0
C      1  0.4068870000000  0.5701130000000  0.5152440000000 1.0
C      1  0.4081970000000  0.5752150000000  0.4762260000000 1.0
C      1  0.4317500000000  0.5659840000000  0.4335930000000 1.0
C      1  0.4860240000000  0.5692240000000  0.4023090000000 1.0
C      1  0.5422020000000  0.5672590000000  0.4116770000000 1.0
C      1  0.4593560000000  0.5163460000000  0.5646520000000 1.0
C      1  0.4323470000000  0.5162210000000  0.5222820000000 1.0
C      1  0.4337350000000  0.5274490000000  0.4900690000000 1.0
C      1  0.4466860000000  0.5207000000000  0.4592790000000 1.0
C      1  0.4641390000000  0.5392880000000  0.4367840000000 1.0
C      1  0.5115020000000  0.5250760000000  0.4216020000000 1.0
C      1  0.5526710000000  0.5217140000000  0.4395970000000 1.0
C      1  0.5746840000000  0.5171320000000  0.4854730000000 1.0
C      1  0.5677360000000  0.5133340000000  0.5369830000000 1.0
C      1  0.5440780000000  0.5204740000000  0.5587150000000 1.0
C      1  0.4986970000000  0.5238760000000  0.5733630000000 1.0
C      1  0.4243310000000  0.5370820000000  0.4394480000000 1.0
C      1  0.4609340000000  0.5484160000000  0.4069630000000 1.0
C      1  0.5143080000000  0.5505840000000  0.4053900000000 1.0
C      1  0.5643840000000  0.5464180000000  0.4234910000000 1.0
C      1  0.5874280000000  0.5419640000000  0.4691780000000 1.0
C      1  0.5869220000000  0.5375550000000  0.5227970000000 1.0
C      1  0.5629680000000  0.5421000000000  0.5715920000000 1.0
C      1  0.5045200000000  0.5480410000000  0.5909200000000 1.0
C      1  0.4563150000000  0.5407680000000  0.5864800000000 1.0
C      1  0.4251300000000  0.5357970000000  0.5475590000000 1.0
C      1  0.4067290000000  0.5453860000000  0.4927380000000 1.0
C      1  0.5296010000000  0.3836190000000  0.4741650000000 1.0
C      1  0.5467720000000  0.3973050000000  0.4938260000000 1.0
C      1  0.5453510000000  0.3967280000000  0.5251160000000 1.0
C      1  0.5244010000000  0.3952480000000  0.5489760000000 1.0
C      1  0.4984700000000  0.3869660000000  0.5576420000000 1.0
C      1  0.4707770000000  0.3926210000000  0.5508080000000 1.0
C      1  0.4536760000000  0.3778750000000  0.5325940000000 1.0
C      1  0.4475840000000  0.3835510000000  0.5047390000000 1.0
C      1  0.4624190000000  0.3739420000000  0.4816290000000 1.0
C      1  0.4772650000000  0.3830320000000  0.4587810000000 1.0
C      1  0.5075780000000  0.3909920000000  0.4559320000000 1.0
C      1  0.6039100000000  0.4758050000000  0.4936700000000 1.0
C      1  0.5916950000000  0.4698860000000  0.5448350000000 1.0
C      1  0.5431400000000  0.4736400000000  0.5773010000000 1.0
C      1  0.4956350000000  0.4743490000000  0.6014310000000 1.0
C      1  0.4414370000000  0.4664000000000  0.5816430000000 1.0
C      1  0.4006220000000  0.4703700000000  0.5225810000000 1.0
C      1  0.4089200000000  0.4695370000000  0.4647440000000 1.0
C      1  0.4370680000000  0.4808240000000  0.4200970000000 1.0
C      1  0.4913250000000  0.4666480000000  0.4084850000000 1.0
C      1  0.5483950000000  0.4753230000000  0.4139250000000 1.0
C      1  0.5910350000000  0.4805910000000  0.4453250000000 1.0
C      1  0.4269670000000  0.5674500000000  0.5374810000000 1.0
C      1  0.4146640000000  0.5949660000000  0.4992060000000 1.0
C      1  0.4282150000000  0.5826430000000  0.4568430000000 1.0
C      1  0.4621740000000  0.5774700000000  0.4250970000000 1.0
C      1  0.5125880000000  0.5822820000000  0.4180660000000 1.0
C      1  0.5535690000000  0.5815220000000  0.4387110000000 1.0
C      1  0.5786220000000  0.5725950000000  0.4791640000000 1.0
C      1  0.5768640000000  0.5693770000000  0.5300250000000 1.0
C      1  0.5466190000000  0.5719230000000  0.5710790000000 1.0
C      1  0.5010790000000  0.5867250000000  0.5829140000000 1.0
C      1  0.4591880000000  0.5778220000000  0.5721810000000 1.0
C      1  0.5977350000000  0.4609430000000  0.4677420000000 1.0
C      1  0.6155900000000  0.4661720000000  0.5211350000000 1.0
C      1  0.5954100000000  0.4462780000000  0.5658800000000 1.0
C      1  0.5289640000000  0.4678950000000  0.6033200000000 1.0
C      1  0.4657540000000  0.4602720000000  0.6055560000000 1.0
C      1  0.4136510000000  0.4514430000000  0.5844800000000 1.0
C      1  0.3876920000000  0.4696920000000  0.4913120000000 1.0
C      1  0.4153500000000  0.4660720000000  0.4323850000000 1.0
C      1  0.4604470000000  0.4630630000000  0.4093950000000 1.0
C      1  0.5221440000000  0.4639540000000  0.3976690000000 1.0
C      1  0.5815160000000  0.4680540000000  0.4181090000000 1.0
C      1  0.6152550000000  0.5054790000000  0.4863850000000 1.0
C      1  0.6023330000000  0.5021150000000  0.5512950000000 1.0
C      1  0.5539680000000  0.5086800000000  0.5954890000000 1.0
C      1  0.4931730000000  0.5042010000000  0.6175370000000 1.0
C      1  0.4343950000000  0.4986390000000  0.5898600000000 1.0
C      1  0.3974240000000  0.5020560000000  0.5345180000000 1.0
C      1  0.3932390000000  0.4986840000000  0.4725790000000 1.0
C      1  0.4291950000000  0.5131290000000  0.4158110000000 1.0
C      1  0.4907460000000  0.5194100000000  0.3880070000000 1.0
C      1  0.5520100000000  0.5044610000000  0.3972120000000 1.0
C      1  0.5977960000000  0.5076180000000  0.4258160000000 1.0
C      1  0.5663930000000  0.4873890000000  0.5593160000000 1.0
C      1  0.5233690000000  0.5005880000000  0.5710310000000 1.0
C      1  0.4818090000000  0.4970780000000  0.5802560000000 1.0
C      1  0.4480520000000  0.4859010000000  0.5545790000000 1.0
C      1  0.4215120000000  0.4905160000000  0.5057180000000 1.0
C      1  0.4348670000000  0.4904770000000  0.4658730000000 1.0
C      1  0.4603150000000  0.4995390000000  0.4363880000000 1.0
C      1  0.5006730000000  0.4957620000000  0.4081940000000 1.0
C      1  0.5385930000000  0.4926710000000  0.4405270000000 1.0
C      1  0.5724300000000  0.5058790000000  0.4562570000000 1.0
C      1  0.5763530000000  0.4903720000000  0.5037910000000 1.0
C      1  0.4445250000000  0.4711010000000  0.5032660000000 1.0
C      1  0.4473600000000  0.4613030000000  0.4717530000000 1.0
C      1  0.4684400000000  0.4709790000000  0.4488900000000 1.0
C      1  0.4979630000000  0.4600260000000  0.4472090000000 1.0
C      1  0.5242220000000  0.4712150000000  0.4584930000000 1.0
C      1  0.5248980000000  0.4763070000000  0.4882960000000 1.0
C      1  0.5480940000000  0.4744320000000  0.5081910000000 1.0
C      1  0.5363060000000  0.4673790000000  0.5384320000000 1.0
C      1  0.5081970000000  0.4791330000000  0.5494380000000 1.0
C      1  0.4871400000000  0.4759940000000  0.5278660000000 1.0
C      1  0.4611850000000  0.4776630000000  0.5287680000000 1.0
C      1  0.6018790000000  0.5079850000000  0.5177450000000 1.0
C      1  0.5805720000000  0.5137530000000  0.5747210000000 1.0
C      1  0.5237580000000  0.5073910000000  0.6043470000000 1.0
C      1  0.4624700000000  0.5120270000000  0.6039030000000 1.0
C      1  0.4207880000000  0.5057280000000  0.5590620000000 1.0
C      1  0.3978850000000  0.5147280000000  0.5023040000000 1.0
C      1  0.4125700000000  0.5057030000000  0.4452060000000 1.0
C      1  0.4620450000000  0.5144530000000  0.4057640000000 1.0
C      1  0.5236010000000  0.5094600000000  0.3871520000000 1.0
C      1  0.5760920000000  0.5193650000000  0.4076480000000 1.0
C      1  0.6043530000000  0.5157750000000  0.4587150000000 1.0
C      1  0.5071910000000  0.5945980000000  0.4457380000000 1.0
C      1  0.5364260000000  0.5925060000000  0.4596990000000 1.0
C      1  0.5518220000000  0.5865300000000  0.4878140000000 1.0
C      1  0.5506820000000  0.5858200000000  0.5197220000000 1.0
C      1  0.5303980000000  0.5835320000000  0.5433570000000 1.0
C      1  0.5018360000000  0.5904780000000  0.5532430000000 1.0
C      1  0.4714270000000  0.5880240000000  0.5484590000000 1.0
C      1  0.4522710000000  0.5866090000000  0.5270450000000 1.0
C      1  0.4449200000000  0.5968440000000  0.4997270000000 1.0
C      1  0.4548980000000  0.5898830000000  0.4702870000000 1.0
C      1  0.4767280000000  0.5985450000000  0.4476000000000 1.0
C      1  0.5005010000000  0.6081110000000  0.5011460000000 1.0
C      1  0.4982950000000  0.4648830000000  0.5018750000000 1.0
C      1  0.4998160000000  0.6347480000000  0.5005020000000 1.0
C      1  0.5108300000000  0.5560340000000  0.4958310000000 1.0
C      1  0.4987610000000  0.3807800000000  0.5050470000000 1.0
C      1  0.5004940000000  0.5258670000000  0.4960340000000 1.0
C      1  0.4945690000000  0.4349380000000  0.5008150000000 1.0
C      1  0.4958650000000  0.4084140000000  0.5046040000000 1.0
C      1  0.5023900000000  0.3564140000000  0.5145350000000 1.0
C      1  0.5014760000000  0.4988210000000  0.4983340000000 1.0
C      1  0.4979420000000  0.6608350000000  0.5021240000000 1.0
C      1  0.4999290000000  0.5811920000000  0.4981080000000 1.0
END
