TITL C-3289324-3781-700 0.00107767786382315 125000 -1062.98405687554 0 0 199 (C1) n - 1
REM
REM in /nfs/bkarasulu/CARBON/AIRSS/Generating-Clusters/AIREBO/with-SteepDescent/Higher-Symm/SD-CG/HFTN-CG
REM
REM
REM
REM
REM
REM ./C.cell (b20cbc046b6831c77cfcea5457e17084)
REM
REM compiler GCC version 9.2.1 20190827 (Red Hat 9.2.1-1)
REM options -cpp -mtune=generic -march=x86-64 -g -O0 -fpre-include=/usr/include/finclude/math-vector-fortran.h
REM seed -1540509187 173521735 -449803978 -1901328742 -1126402611 283733114 -625415748 -1087281900 9172944 2055004690 1824977813 -632956617 1967982155 -571168587 1349855087 1688904381 294912633 34491061 701479484 321873277 1312819495 -407124159 1892350815 -2040657521 1106224275 2021060690 -51137885 -884548124 -529585954 1314825183 1185836555 -148051841 1483749604
REM
CELL 1.54180   50.00000   50.00000   50.00000   90.00000   90.00000   90.00000
LATT -1
SFAC C  
C      1  0.4199040000000  0.5238460000000  0.5218870000000 1.0
C      1  0.4229660000000  0.5178990000000  0.4632420000000 1.0
C      1  0.4138240000000  0.4633450000000  0.5033870000000 1.0
C      1  0.5219930000000  0.3786840000000  0.4960210000000 1.0
C      1  0.5202370000000  0.5634440000000  0.6053010000000 1.0
C      1  0.5301690000000  0.5550740000000  0.3931790000000 1.0
C      1  0.4939980000000  0.4926140000000  0.6039480000000 1.0
C      1  0.4885680000000  0.5842200000000  0.4500370000000 1.0
C      1  0.4906130000000  0.4126720000000  0.4372720000000 1.0
C      1  0.5126640000000  0.4464930000000  0.6049920000000 1.0
C      1  0.5132410000000  0.6295650000000  0.4945280000000 1.0
C      1  0.4965940000000  0.4449200000000  0.3760960000000 1.0
C      1  0.5073680000000  0.5816960000000  0.4243500000000 1.0
C      1  0.5114760000000  0.4008510000000  0.4570660000000 1.0
C      1  0.5084070000000  0.5201040000000  0.6069420000000 1.0
C      1  0.4357100000000  0.4351650000000  0.4740950000000 1.0
C      1  0.4385850000000  0.5131890000000  0.5627220000000 1.0
C      1  0.4241280000000  0.5571210000000  0.4556800000000 1.0
C      1  0.4871680000000  0.6133760000000  0.5390490000000 1.0
C      1  0.4803490000000  0.4913190000000  0.3719720000000 1.0
C      1  0.4843180000000  0.4076180000000  0.5820220000000 1.0
C      1  0.4841110000000  0.5505100000000  0.4953010000000 1.0
C      1  0.4737090000000  0.4601520000000  0.4651390000000 1.0
C      1  0.4732780000000  0.4867010000000  0.5532690000000 1.0
C      1  0.5990830000000  0.4569460000000  0.4248990000000 1.0
C      1  0.6061330000000  0.4688460000000  0.5786650000000 1.0
C      1  0.5960800000000  0.5794360000000  0.5114220000000 1.0
C      1  0.5014660000000  0.4835310000000  0.5720410000000 1.0
C      1  0.5049420000000  0.5634100000000  0.4716970000000 1.0
C      1  0.4989110000000  0.4387340000000  0.4576240000000 1.0
C      1  0.5860050000000  0.4761900000000  0.5341880000000 1.0
C      1  0.5769690000000  0.5311090000000  0.5074150000000 1.0
C      1  0.5764280000000  0.4880540000000  0.4589790000000 1.0
C      1  0.4869720000000  0.4232970000000  0.4082260000000 1.0
C      1  0.5176530000000  0.4757010000000  0.6179980000000 1.0
C      1  0.5084590000000  0.6099080000000  0.4600880000000 1.0
C      1  0.5438910000000  0.4531340000000  0.5247020000000 1.0
C      1  0.5459010000000  0.5356580000000  0.5318390000000 1.0
C      1  0.5376230000000  0.5031720000000  0.4538670000000 1.0
C      1  0.4669000000000  0.4361930000000  0.4876070000000 1.0
C      1  0.4713040000000  0.5181420000000  0.5660900000000 1.0
C      1  0.4768930000000  0.5358310000000  0.4654670000000 1.0
C      1  0.5310390000000  0.4789800000000  0.3865810000000 1.0
C      1  0.5307690000000  0.4145700000000  0.5863750000000 1.0
C      1  0.5400540000000  0.6068180000000  0.5292250000000 1.0
C      1  0.4663540000000  0.4986780000000  0.4480950000000 1.0
C      1  0.4530850000000  0.4483680000000  0.5318120000000 1.0
C      1  0.4597800000000  0.5487260000000  0.5267570000000 1.0
C      1  0.4977610000000  0.5182780000000  0.4163460000000 1.0
C      1  0.4981600000000  0.4316140000000  0.5166720000000 1.0
C      1  0.4982750000000  0.5436850000000  0.5515120000000 1.0
C      1  0.4726130000000  0.5889860000000  0.5416560000000 1.0
C      1  0.4554480000000  0.4928320000000  0.4032340000000 1.0
C      1  0.4659420000000  0.4118270000000  0.5575170000000 1.0
C      1  0.5768610000000  0.5247920000000  0.5408310000000 1.0
C      1  0.5663140000000  0.5207130000000  0.4590230000000 1.0
C      1  0.5661850000000  0.4749540000000  0.4856900000000 1.0
C      1  0.4441970000000  0.5385570000000  0.4744000000000 1.0
C      1  0.4372710000000  0.4684470000000  0.4792930000000 1.0
C      1  0.4375040000000  0.5004730000000  0.5324000000000 1.0
C      1  0.3887200000000  0.4806950000000  0.5173820000000 1.0
C      1  0.3933610000000  0.5125090000000  0.5093390000000 1.0
C      1  0.3818090000000  0.4858900000000  0.4718770000000 1.0
C      1  0.4380630000000  0.5591220000000  0.4293530000000 1.0
C      1  0.4404740000000  0.4062170000000  0.4874220000000 1.0
C      1  0.4419920000000  0.5419510000000  0.5785360000000 1.0
C      1  0.5388590000000  0.4798000000000  0.5053370000000 1.0
C      1  0.5399690000000  0.5045900000000  0.5285840000000 1.0
C      1  0.5370030000000  0.5071890000000  0.4860570000000 1.0
C      1  0.4398040000000  0.6074730000000  0.5773440000000 1.0
C      1  0.4610670000000  0.5119800000000  0.3687020000000 1.0
C      1  0.4397210000000  0.3673980000000  0.5450190000000 1.0
C      1  0.4858450000000  0.4356790000000  0.5943950000000 1.0
C      1  0.4835280000000  0.6255200000000  0.5109770000000 1.0
C      1  0.4746840000000  0.4633310000000  0.3725290000000 1.0
C      1  0.4724530000000  0.5812110000000  0.4864810000000 1.0
C      1  0.4720200000000  0.4597720000000  0.4328660000000 1.0
C      1  0.4534690000000  0.4800280000000  0.5793590000000 1.0
C      1  0.5201110000000  0.5792080000000  0.5324350000000 1.0
C      1  0.5137280000000  0.4817810000000  0.4157110000000 1.0
C      1  0.5284400000000  0.4355780000000  0.5671470000000 1.0
C      1  0.6111090000000  0.4883530000000  0.5231020000000 1.0
C      1  0.6087920000000  0.5319640000000  0.4991790000000 1.0
C      1  0.6060590000000  0.4901900000000  0.4736280000000 1.0
C      1  0.4525610000000  0.4540850000000  0.3880770000000 1.0
C      1  0.4627630000000  0.4468690000000  0.6044030000000 1.0
C      1  0.4517450000000  0.6210390000000  0.5164170000000 1.0
C      1  0.5536720000000  0.4424960000000  0.5519170000000 1.0
C      1  0.5508730000000  0.5687120000000  0.5347680000000 1.0
C      1  0.5435810000000  0.4908900000000  0.4244570000000 1.0
C      1  0.5059030000000  0.5562060000000  0.4091160000000 1.0
C      1  0.4999230000000  0.3896410000000  0.4814080000000 1.0
C      1  0.4984590000000  0.5462910000000  0.6048760000000 1.0
C      1  0.3948820000000  0.5456250000000  0.4686690000000 1.0
C      1  0.4106990000000  0.4462720000000  0.4588400000000 1.0
C      1  0.4115370000000  0.4963620000000  0.5625060000000 1.0
C      1  0.5463040000000  0.3924300000000  0.4894600000000 1.0
C      1  0.5477180000000  0.5502520000000  0.5926810000000 1.0
C      1  0.5522740000000  0.5694050000000  0.4054730000000 1.0
C      1  0.4914270000000  0.6047100000000  0.4877160000000 1.0
C      1  0.4653060000000  0.4417930000000  0.4122200000000 1.0
C      1  0.5001560000000  0.4498640000000  0.5671670000000 1.0
C      1  0.5717200000000  0.4141890000000  0.5465180000000 1.0
C      1  0.5600390000000  0.5639700000000  0.5671800000000 1.0
C      1  0.5570690000000  0.5135840000000  0.4030270000000 1.0
C      1  0.4669440000000  0.4894430000000  0.5194240000000 1.0
C      1  0.4701980000000  0.5216750000000  0.5089820000000 1.0
C      1  0.4637870000000  0.4856970000000  0.4857660000000 1.0
C      1  0.4806900000000  0.4895910000000  0.4219420000000 1.0
C      1  0.4817670000000  0.4359420000000  0.5437640000000 1.0
C      1  0.4899670000000  0.5643600000000  0.5258290000000 1.0
C      1  0.5525720000000  0.4470980000000  0.4774740000000 1.0
C      1  0.5586210000000  0.5083710000000  0.5644170000000 1.0
C      1  0.5561910000000  0.5497260000000  0.4589920000000 1.0
C      1  0.5139010000000  0.6092780000000  0.5459680000000 1.0
C      1  0.5038240000000  0.4995510000000  0.3886170000000 1.0
C      1  0.5090260000000  0.3960370000000  0.5850650000000 1.0
C      1  0.5334390000000  0.5356460000000  0.5020720000000 1.0
C      1  0.5134120000000  0.4823170000000  0.4655520000000 1.0
C      1  0.5229210000000  0.4712390000000  0.5409460000000 1.0
C      1  0.4779450000000  0.4583620000000  0.5109350000000 1.0
C      1  0.4871610000000  0.5193910000000  0.5360280000000 1.0
C      1  0.4885440000000  0.5045810000000  0.4721060000000 1.0
C      1  0.5601760000000  0.4749960000000  0.5859520000000 1.0
C      1  0.5555450000000  0.5821190000000  0.4819910000000 1.0
C      1  0.5495000000000  0.4515240000000  0.4281550000000 1.0
C      1  0.5372190000000  0.5181020000000  0.5889930000000 1.0
C      1  0.5380630000000  0.5816840000000  0.4316030000000 1.0
C      1  0.5372380000000  0.4179630000000  0.4689100000000 1.0
C      1  0.5304750000000  0.4299260000000  0.5133800000000 1.0
C      1  0.5293020000000  0.5406160000000  0.5570330000000 1.0
C      1  0.5197850000000  0.5254180000000  0.4384530000000 1.0
C      1  0.5446170000000  0.4579270000000  0.6071200000000 1.0
C      1  0.5370380000000  0.6108700000000  0.4790030000000 1.0
C      1  0.5121230000000  0.4381060000000  0.4034200000000 1.0
C      1  0.5845870000000  0.5510020000000  0.5584110000000 1.0
C      1  0.5802010000000  0.4993230000000  0.4075680000000 1.0
C      1  0.5914120000000  0.4288160000000  0.5587410000000 1.0
C      1  0.5136100000000  0.4349410000000  0.4865090000000 1.0
C      1  0.5111300000000  0.5157880000000  0.5673020000000 1.0
C      1  0.5255030000000  0.5537580000000  0.4463930000000 1.0
C      1  0.4266740000000  0.4736350000000  0.5730040000000 1.0
C      1  0.4110530000000  0.5683690000000  0.4849950000000 1.0
C      1  0.4147430000000  0.4544680000000  0.4323810000000 1.0
C      1  0.5732180000000  0.4750430000000  0.4301190000000 1.0
C      1  0.5807260000000  0.4607950000000  0.5628620000000 1.0
C      1  0.5687710000000  0.5641580000000  0.5076670000000 1.0
C      1  0.5963930000000  0.5185030000000  0.4748840000000 1.0
C      1  0.6189300000000  0.4804730000000  0.4966350000000 1.0
C      1  0.6079250000000  0.5163750000000  0.5272030000000 1.0
C      1  0.4382330000000  0.5447210000000  0.5022790000000 1.0
C      1  0.4377980000000  0.4904340000000  0.4557630000000 1.0
C      1  0.4282100000000  0.4711810000000  0.5331860000000 1.0
C      1  0.4301640000000  0.4063830000000  0.5150480000000 1.0
C      1  0.4328410000000  0.5620670000000  0.5597280000000 1.0
C      1  0.4338360000000  0.5349000000000  0.4147870000000 1.0
C      1  0.4374320000000  0.5991790000000  0.5256410000000 1.0
C      1  0.4352700000000  0.4695640000000  0.4097890000000 1.0
C      1  0.4339790000000  0.4234090000000  0.5579700000000 1.0
C      1  0.5521520000000  0.6181700000000  0.5084600000000 1.0
C      1  0.5358970000000  0.4522120000000  0.4005590000000 1.0
C      1  0.5460170000000  0.4250720000000  0.6081830000000 1.0
C      1  0.4154680000000  0.4866610000000  0.4300430000000 1.0
C      1  0.4229980000000  0.4483710000000  0.5578810000000 1.0
C      1  0.4240510000000  0.5745110000000  0.5123810000000 1.0
C      1  0.5074550000000  0.5161080000000  0.4962010000000 1.0
C      1  0.5050240000000  0.4741970000000  0.4977580000000 1.0
C      1  0.5074080000000  0.4960920000000  0.5236730000000 1.0
C      1  0.5763880000000  0.5745500000000  0.4207810000000 1.0
C      1  0.5743600000000  0.4004210000000  0.4856160000000 1.0
C      1  0.5709370000000  0.5297380000000  0.6069290000000 1.0
C      1  0.5351100000000  0.4839000000000  0.5670340000000 1.0
C      1  0.5346280000000  0.5581510000000  0.4845810000000 1.0
C      1  0.5289520000000  0.4544890000000  0.4552140000000 1.0
C      1  0.4413870000000  0.3946070000000  0.5414910000000 1.0
C      1  0.4439970000000  0.5899140000000  0.5562130000000 1.0
C      1  0.4471600000000  0.5207600000000  0.3940380000000 1.0
C      1  0.4250230000000  0.4347710000000  0.5180340000000 1.0
C      1  0.4212280000000  0.5533380000000  0.5368800000000 1.0
C      1  0.4207970000000  0.5170680000000  0.4313980000000 1.0
C      1  0.5765680000000  0.4241280000000  0.4702110000000 1.0
C      1  0.5745850000000  0.5049460000000  0.5937140000000 1.0
C      1  0.5717720000000  0.5770600000000  0.4525350000000 1.0
C      1  0.4853600000000  0.5446530000000  0.4336950000000 1.0
C      1  0.4731960000000  0.4026080000000  0.4854910000000 1.0
C      1  0.4731050000000  0.5426300000000  0.5900360000000 1.0
C      1  0.3941000000000  0.4614780000000  0.4765100000000 1.0
C      1  0.3948420000000  0.4999890000000  0.5418000000000 1.0
C      1  0.3946460000000  0.5152150000000  0.4787030000000 1.0
C      1  0.5420220000000  0.4969490000000  0.6151780000000 1.0
C      1  0.5519280000000  0.6044570000000  0.4491160000000 1.0
C      1  0.5584790000000  0.4255740000000  0.4431860000000 1.0
C      1  0.4644250000000  0.5680950000000  0.4323120000000 1.0
C      1  0.4536340000000  0.3899060000000  0.4621450000000 1.0
C      1  0.4515970000000  0.5202950000000  0.6029980000000 1.0
C      1  0.4605760000000  0.5982730000000  0.4632960000000 1.0
C      1  0.4647580000000  0.3940190000000  0.4376630000000 1.0
C      1  0.4628000000000  0.4943320000000  0.6015180000000 1.0
C      1  0.5744770000000  0.4971880000000  0.5100480000000 1.0
END
