TITL C-3289324-3781-707 -0.00149319069194232 125000 -806.000450490525 0 0 147 (C1) n - 1
REM
REM in /nfs/bkarasulu/CARBON/AIRSS/Generating-Clusters/AIREBO/with-SteepDescent/Higher-Symm/SD-CG/HFTN-CG
REM
REM
REM
REM
REM
REM ./C.cell (b20cbc046b6831c77cfcea5457e17084)
REM
REM compiler GCC version 9.2.1 20190827 (Red Hat 9.2.1-1)
REM options -cpp -mtune=generic -march=x86-64 -g -O0 -fpre-include=/usr/include/finclude/math-vector-fortran.h
REM seed -2111309945 474173063 -622568124 -1856971071 176128852 520419074 935090111 -584637470 -1097165237 835857367 -548383425 -80918955 -1732170326 554779187 2028843268 982842247 -1497191774 -1028628296 695441181 -1843076249 -515351970 2036257177 1023608591 -406481716 -1666793742 -778237151 -70283731 -330358800 1080078731 2044797567 144336462 -1908090694 -2050715747
REM
CELL 1.54180   50.00000   50.00000   50.00000   90.00000   90.00000   90.00000
LATT -1
SFAC C  
C      1  0.5382710000000  0.5242530000000  0.4488960000000 1.0
C      1  0.5174370000000  0.5167630000000  0.5599770000000 1.0
C      1  0.4473560000000  0.5212450000000  0.4835490000000 1.0
C      1  0.5514250000000  0.4702610000000  0.4497310000000 1.0
C      1  0.5143710000000  0.4828780000000  0.5618850000000 1.0
C      1  0.4388480000000  0.4885400000000  0.4874050000000 1.0
C      1  0.5456870000000  0.5098760000000  0.5474890000000 1.0
C      1  0.5110850000000  0.5099760000000  0.4469210000000 1.0
C      1  0.4306870000000  0.5109520000000  0.5246810000000 1.0
C      1  0.5491850000000  0.4809950000000  0.5377800000000 1.0
C      1  0.5132530000000  0.4788070000000  0.4422750000000 1.0
C      1  0.4439780000000  0.4811060000000  0.5187550000000 1.0
C      1  0.5252930000000  0.5905110000000  0.5298670000000 1.0
C      1  0.4701890000000  0.5899060000000  0.5153450000000 1.0
C      1  0.5185500000000  0.5993830000000  0.4526710000000 1.0
C      1  0.5362970000000  0.4099900000000  0.5196360000000 1.0
C      1  0.4595310000000  0.4107990000000  0.5125070000000 1.0
C      1  0.5021200000000  0.4059430000000  0.4664020000000 1.0
C      1  0.5355600000000  0.5973820000000  0.4737650000000 1.0
C      1  0.4706540000000  0.5933070000000  0.4885930000000 1.0
C      1  0.5127850000000  0.5921040000000  0.5515700000000 1.0
C      1  0.5258000000000  0.4065320000000  0.4800510000000 1.0
C      1  0.4646170000000  0.4055890000000  0.4858330000000 1.0
C      1  0.5121720000000  0.4057030000000  0.5318580000000 1.0
C      1  0.4129330000000  0.4451650000000  0.5338390000000 1.0
C      1  0.5187520000000  0.4474980000000  0.4054170000000 1.0
C      1  0.5678700000000  0.4431390000000  0.5613030000000 1.0
C      1  0.4001540000000  0.5476910000000  0.5273710000000 1.0
C      1  0.5146460000000  0.5432470000000  0.4054150000000 1.0
C      1  0.5771090000000  0.5530100000000  0.5603690000000 1.0
C      1  0.4172430000000  0.4497410000000  0.4688460000000 1.0
C      1  0.5099370000000  0.4445290000000  0.5952260000000 1.0
C      1  0.5800440000000  0.4453910000000  0.4374500000000 1.0
C      1  0.4160620000000  0.5573250000000  0.4721650000000 1.0
C      1  0.5129630000000  0.5549440000000  0.5903530000000 1.0
C      1  0.5750530000000  0.5561800000000  0.4298680000000 1.0
C      1  0.4821260000000  0.4395440000000  0.4307030000000 1.0
C      1  0.5756180000000  0.4439770000000  0.5145490000000 1.0
C      1  0.4511700000000  0.4471070000000  0.5451210000000 1.0
C      1  0.4822440000000  0.5495220000000  0.4274850000000 1.0
C      1  0.5711930000000  0.5495870000000  0.5215100000000 1.0
C      1  0.4459070000000  0.5507520000000  0.5413920000000 1.0
C      1  0.4777280000000  0.4464350000000  0.5662960000000 1.0
C      1  0.5658430000000  0.4433430000000  0.4745950000000 1.0
C      1  0.4565980000000  0.4487420000000  0.4540880000000 1.0
C      1  0.4765470000000  0.5479680000000  0.5764020000000 1.0
C      1  0.5580220000000  0.5490390000000  0.4753670000000 1.0
C      1  0.4636110000000  0.5702720000000  0.4433950000000 1.0
C      1  0.4782430000000  0.5166050000000  0.6011080000000 1.0
C      1  0.4243330000000  0.5304170000000  0.4350340000000 1.0
C      1  0.5945370000000  0.5215730000000  0.4572840000000 1.0
C      1  0.4773800000000  0.4833670000000  0.6082230000000 1.0
C      1  0.4270370000000  0.4776440000000  0.4300240000000 1.0
C      1  0.5951750000000  0.4920000000000  0.4687230000000 1.0
C      1  0.4648840000000  0.5068540000000  0.4029650000000 1.0
C      1  0.4148290000000  0.5169810000000  0.5633930000000 1.0
C      1  0.5909580000000  0.5119430000000  0.5287960000000 1.0
C      1  0.4799710000000  0.4776070000000  0.3961210000000 1.0
C      1  0.4240700000000  0.4886850000000  0.5724690000000 1.0
C      1  0.5972940000000  0.4803030000000  0.5352190000000 1.0
C      1  0.5469240000000  0.5568540000000  0.4446100000000 1.0
C      1  0.5217560000000  0.5506510000000  0.5587890000000 1.0
C      1  0.4341410000000  0.5491150000000  0.4920660000000 1.0
C      1  0.5479330000000  0.4381120000000  0.4460720000000 1.0
C      1  0.5115830000000  0.4489800000000  0.5615570000000 1.0
C      1  0.4461910000000  0.4553460000000  0.4857890000000 1.0
C      1  0.5498430000000  0.5626730000000  0.5445400000000 1.0
C      1  0.5147250000000  0.5536130000000  0.4354960000000 1.0
C      1  0.4264240000000  0.5534440000000  0.5186840000000 1.0
C      1  0.5423790000000  0.4416670000000  0.5517120000000 1.0
C      1  0.5151890000000  0.4449980000000  0.4391390000000 1.0
C      1  0.4354890000000  0.4423070000000  0.5153340000000 1.0
C      1  0.4627400000000  0.5392830000000  0.4042760000000 1.0
C      1  0.5940630000000  0.5373820000000  0.5063650000000 1.0
C      1  0.4343200000000  0.5361840000000  0.5680860000000 1.0
C      1  0.4657950000000  0.4548240000000  0.4050770000000 1.0
C      1  0.6024130000000  0.4618120000000  0.5126850000000 1.0
C      1  0.4415140000000  0.4616660000000  0.5720280000000 1.0
C      1  0.4530700000000  0.5362660000000  0.5894130000000 1.0
C      1  0.5894470000000  0.5402190000000  0.4781020000000 1.0
C      1  0.4426160000000  0.5515070000000  0.4261730000000 1.0
C      1  0.4637730000000  0.4581610000000  0.5931850000000 1.0
C      1  0.5918560000000  0.4628280000000  0.4835140000000 1.0
C      1  0.4451560000000  0.4565050000000  0.4260020000000 1.0
C      1  0.5566350000000  0.5139980000000  0.4242720000000 1.0
C      1  0.5322390000000  0.5154510000000  0.6021370000000 1.0
C      1  0.3956900000000  0.5161040000000  0.4767790000000 1.0
C      1  0.5639010000000  0.4838090000000  0.4243240000000 1.0
C      1  0.5285260000000  0.4869190000000  0.5916360000000 1.0
C      1  0.4072000000000  0.4868040000000  0.4799090000000 1.0
C      1  0.5568980000000  0.5119030000000  0.5789160000000 1.0
C      1  0.5297410000000  0.5143390000000  0.4032640000000 1.0
C      1  0.3999100000000  0.5115810000000  0.5102430000000 1.0
C      1  0.5544380000000  0.4792340000000  0.5713130000000 1.0
C      1  0.5320470000000  0.4839440000000  0.4149680000000 1.0
C      1  0.4103750000000  0.4794000000000  0.5135490000000 1.0
C      1  0.4774830000000  0.5797070000000  0.4654560000000 1.0
C      1  0.5364820000000  0.5683140000000  0.4856920000000 1.0
C      1  0.4929980000000  0.5687940000000  0.5581190000000 1.0
C      1  0.4752970000000  0.4378220000000  0.4875980000000 1.0
C      1  0.5361690000000  0.4361680000000  0.4863070000000 1.0
C      1  0.4988190000000  0.4283260000000  0.5377480000000 1.0
C      1  0.4736530000000  0.5654820000000  0.5335930000000 1.0
C      1  0.5327960000000  0.5627730000000  0.5151170000000 1.0
C      1  0.5090980000000  0.5685460000000  0.4655240000000 1.0
C      1  0.4748010000000  0.4397000000000  0.5218690000000 1.0
C      1  0.5418630000000  0.4435200000000  0.5186270000000 1.0
C      1  0.5055470000000  0.4400420000000  0.4720280000000 1.0
C      1  0.4847720000000  0.5262690000000  0.4489020000000 1.0
C      1  0.5487660000000  0.5277030000000  0.5255690000000 1.0
C      1  0.4580670000000  0.5189510000000  0.5409120000000 1.0
C      1  0.4837560000000  0.4714470000000  0.4363860000000 1.0
C      1  0.5650230000000  0.4752670000000  0.5111900000000 1.0
C      1  0.4610230000000  0.4936670000000  0.5581240000000 1.0
C      1  0.4879470000000  0.5294970000000  0.5538790000000 1.0
C      1  0.5588710000000  0.5218040000000  0.4955610000000 1.0
C      1  0.4593160000000  0.5108590000000  0.4551270000000 1.0
C      1  0.4834750000000  0.4755470000000  0.5518220000000 1.0
C      1  0.5540140000000  0.4746790000000  0.4804490000000 1.0
C      1  0.4663860000000  0.4808260000000  0.4596440000000 1.0
C      1  0.4103000000000  0.4713990000000  0.5466140000000 1.0
C      1  0.5074810000000  0.4729200000000  0.3951970000000 1.0
C      1  0.5832340000000  0.4691510000000  0.5565270000000 1.0
C      1  0.3967180000000  0.5218730000000  0.5424950000000 1.0
C      1  0.4963420000000  0.5174630000000  0.3955500000000 1.0
C      1  0.5809040000000  0.5249080000000  0.5586530000000 1.0
C      1  0.4094300000000  0.4720470000000  0.4512840000000 1.0
C      1  0.5069190000000  0.4704340000000  0.6067990000000 1.0
C      1  0.5902070000000  0.4731620000000  0.4420260000000 1.0
C      1  0.4075370000000  0.5342680000000  0.4578890000000 1.0
C      1  0.5084930000000  0.5309020000000  0.6033210000000 1.0
C      1  0.5830760000000  0.5290210000000  0.4322590000000 1.0
C      1  0.4810320000000  0.4871640000000  0.4868080000000 1.0
C      1  0.5281370000000  0.4867000000000  0.4895740000000 1.0
C      1  0.4989480000000  0.4863900000000  0.5252620000000 1.0
C      1  0.4792270000000  0.5202920000000  0.4900290000000 1.0
C      1  0.5294200000000  0.5189060000000  0.4812870000000 1.0
C      1  0.4989200000000  0.5167870000000  0.5246190000000 1.0
C      1  0.4725270000000  0.4725710000000  0.5134800000000 1.0
C      1  0.5256590000000  0.4735330000000  0.5175360000000 1.0
C      1  0.5061430000000  0.4739360000000  0.4746590000000 1.0
C      1  0.4741890000000  0.5365950000000  0.5170120000000 1.0
C      1  0.5209340000000  0.5322650000000  0.5113800000000 1.0
C      1  0.5012360000000  0.5367780000000  0.4747820000000 1.0
C      1  0.4419730000000  0.5045240000000  0.4282870000000 1.0
C      1  0.4535640000000  0.4963240000000  0.5877000000000 1.0
C      1  0.5808540000000  0.5004860000000  0.4983980000000 1.0
END
