TITL C-3289333-7213-706 -0.000899129261203439 125000 -131.559700315883 0 0 23 (C1) n - 1
REM
REM in /nfs/bkarasulu/CARBON/AIRSS/Generating-Clusters/AIREBO/with-SteepDescent/Higher-Symm/SD-CG/HFTN-CG
REM
REM
REM
REM
REM
REM ./C.cell (b20cbc046b6831c77cfcea5457e17084)
REM
REM compiler GCC version 9.2.1 20190827 (Red Hat 9.2.1-1)
REM options -cpp -mtune=generic -march=x86-64 -g -O0 -fpre-include=/usr/include/finclude/math-vector-fortran.h
REM seed 1858415976 -1693807037 2097202725 755676591 650744650 772709554 -1255636278 883813151 -1636967391 1043570347 -2138202847 1014515735 -549264803 1766793784 1070885210 83221976 2100104484 -1702790732 -825589953 -1487451093 -1281499766 -1102340513 -665312433 -2104775731 498694886 864187328 367828169 404543880 1297911755 -1987584571 1543027473 1998436391 -1570007312
REM
CELL 1.54180   50.00000   50.00000   50.00000   90.00000   90.00000   90.00000
LATT -1
SFAC C  
C      1  0.4809190000000  0.4957790000000  0.4495630000000 1.0
C      1  0.5095870000000  0.4836260000000  0.4648200000000 1.0
C      1  0.5264680000000  0.4850910000000  0.4862740000000 1.0
C      1  0.4852450000000  0.4929600000000  0.5557910000000 1.0
C      1  0.5124920000000  0.4798670000000  0.5384350000000 1.0
C      1  0.5304890000000  0.4789930000000  0.5169580000000 1.0
C      1  0.4831270000000  0.4651660000000  0.4614150000000 1.0
C      1  0.5339580000000  0.5253270000000  0.4563530000000 1.0
C      1  0.4802290000000  0.5281560000000  0.4552260000000 1.0
C      1  0.4836190000000  0.4650850000000  0.5378270000000 1.0
C      1  0.5353050000000  0.5288080000000  0.5466370000000 1.0
C      1  0.4794350000000  0.5228270000000  0.5409740000000 1.0
C      1  0.4732840000000  0.4453190000000  0.5242240000000 1.0
C      1  0.5506390000000  0.5262450000000  0.5265860000000 1.0
C      1  0.4656460000000  0.5373260000000  0.5243890000000 1.0
C      1  0.4730630000000  0.4444030000000  0.4738340000000 1.0
C      1  0.5487240000000  0.5160440000000  0.4742860000000 1.0
C      1  0.4665170000000  0.5420700000000  0.4727040000000 1.0
C      1  0.4586810000000  0.5412110000000  0.4985960000000 1.0
C      1  0.4649560000000  0.4388020000000  0.4992090000000 1.0
C      1  0.5472780000000  0.5051940000000  0.5045550000000 1.0
C      1  0.5088870000000  0.5144990000000  0.4447120000000 1.0
C      1  0.5100410000000  0.5150510000000  0.5489750000000 1.0
END
