TITL C-3289321-8710-641 0.000238446530527336 125000 -615.10722741195 0 0 106 (C1) n - 1
REM
REM in /nfs/bkarasulu/CARBON/AIRSS/Generating-Clusters/AIREBO/with-SteepDescent/Higher-Symm/SD-CG/HFTN-CG
REM
REM
REM
REM
REM
REM ./C.cell (b20cbc046b6831c77cfcea5457e17084)
REM
REM compiler GCC version 9.2.1 20190827 (Red Hat 9.2.1-1)
REM options -cpp -mtune=generic -march=x86-64 -g -O0 -fpre-include=/usr/include/finclude/math-vector-fortran.h
REM seed 956311153 -2066427433 2085221840 2096313710 -1020409370 -939557625 2145586795 -1560811200 470275186 -1936539106 771103365 254843424 1155352200 -903905928 -2091696482 579776729 957462378 -744352519 890669344 1661604191 1955603764 -1996478523 -1658308050 1824763162 -417772844 -649245961 1564342664 -1001703981 667681491 1205926300 -552529730 1419562016 852594431
REM
CELL 1.54180   50.00000   50.00000   50.00000   90.00000   90.00000   90.00000
LATT -1
SFAC C  
C      1  0.4656540000000  0.4597950000000  0.4701240000000 1.0
C      1  0.4606300000000  0.4655820000000  0.5225490000000 1.0
C      1  0.5163610000000  0.4577790000000  0.5509680000000 1.0
C      1  0.5500970000000  0.4523880000000  0.5043660000000 1.0
C      1  0.5211640000000  0.4570960000000  0.4508820000000 1.0
C      1  0.5414830000000  0.4626040000000  0.4768510000000 1.0
C      1  0.5362330000000  0.4652280000000  0.5304680000000 1.0
C      1  0.4838520000000  0.4542880000000  0.5460400000000 1.0
C      1  0.4558160000000  0.4506890000000  0.4960510000000 1.0
C      1  0.4811060000000  0.4682440000000  0.4420450000000 1.0
C      1  0.4877670000000  0.4696610000000  0.5761270000000 1.0
C      1  0.5676380000000  0.4609710000000  0.5390250000000 1.0
C      1  0.5589180000000  0.4658230000000  0.4410470000000 1.0
C      1  0.4590980000000  0.4731930000000  0.4183770000000 1.0
C      1  0.4119980000000  0.4632870000000  0.5120600000000 1.0
C      1  0.5213380000000  0.4662120000000  0.5822490000000 1.0
C      1  0.4315000000000  0.4647890000000  0.5364140000000 1.0
C      1  0.4417610000000  0.4641110000000  0.4463100000000 1.0
C      1  0.5315660000000  0.4630430000000  0.4210230000000 1.0
C      1  0.5810110000000  0.4649910000000  0.5089610000000 1.0
C      1  0.5303410000000  0.4923790000000  0.4815620000000 1.0
C      1  0.4885050000000  0.4998990000000  0.4520460000000 1.0
C      1  0.4821510000000  0.4953510000000  0.4910550000000 1.0
C      1  0.4883930000000  0.4875300000000  0.5404780000000 1.0
C      1  0.5307540000000  0.4934980000000  0.5266960000000 1.0
C      1  0.4614390000000  0.4913970000000  0.4678930000000 1.0
C      1  0.5118540000000  0.4843100000000  0.4617550000000 1.0
C      1  0.5354430000000  0.5056210000000  0.5035660000000 1.0
C      1  0.5107000000000  0.5031980000000  0.5417070000000 1.0
C      1  0.4695300000000  0.4969520000000  0.5184380000000 1.0
C      1  0.5714670000000  0.4908750000000  0.4461450000000 1.0
C      1  0.4847510000000  0.4931610000000  0.4111150000000 1.0
C      1  0.3995360000000  0.4871750000000  0.5048520000000 1.0
C      1  0.4629020000000  0.4921950000000  0.5762660000000 1.0
C      1  0.5710740000000  0.4835650000000  0.5582620000000 1.0
C      1  0.4231080000000  0.4867650000000  0.4535000000000 1.0
C      1  0.5189040000000  0.4875840000000  0.4086050000000 1.0
C      1  0.5836040000000  0.4937140000000  0.4979190000000 1.0
C      1  0.5444830000000  0.4873400000000  0.5796770000000 1.0
C      1  0.4360120000000  0.4903350000000  0.5535970000000 1.0
C      1  0.5440260000000  0.5342340000000  0.5059730000000 1.0
C      1  0.5097540000000  0.5534270000000  0.4692200000000 1.0
C      1  0.4638580000000  0.5247940000000  0.4712660000000 1.0
C      1  0.4601330000000  0.5254900000000  0.5229550000000 1.0
C      1  0.5071590000000  0.5336110000000  0.5402280000000 1.0
C      1  0.4569830000000  0.5395710000000  0.4964010000000 1.0
C      1  0.4901830000000  0.5319140000000  0.4537610000000 1.0
C      1  0.5376340000000  0.5480780000000  0.4802020000000 1.0
C      1  0.5314710000000  0.5468280000000  0.5302710000000 1.0
C      1  0.4778050000000  0.5420480000000  0.5408720000000 1.0
C      1  0.5150350000000  0.4286070000000  0.4636720000000 1.0
C      1  0.4591050000000  0.4196280000000  0.4712740000000 1.0
C      1  0.4616380000000  0.4199630000000  0.5304110000000 1.0
C      1  0.5138080000000  0.4086010000000  0.5401700000000 1.0
C      1  0.5437200000000  0.4224180000000  0.5060160000000 1.0
C      1  0.4851880000000  0.4207570000000  0.4584380000000 1.0
C      1  0.5400200000000  0.4226530000000  0.4765690000000 1.0
C      1  0.5402720000000  0.4157880000000  0.5329000000000 1.0
C      1  0.4895240000000  0.4214550000000  0.5392360000000 1.0
C      1  0.4600630000000  0.4197760000000  0.5021640000000 1.0
C      1  0.5639770000000  0.4414530000000  0.4633200000000 1.0
C      1  0.4895760000000  0.4389030000000  0.4346650000000 1.0
C      1  0.4241960000000  0.4500230000000  0.4909510000000 1.0
C      1  0.4629090000000  0.4462620000000  0.5716130000000 1.0
C      1  0.5526180000000  0.4344260000000  0.5512640000000 1.0
C      1  0.4346800000000  0.4358370000000  0.4641370000000 1.0
C      1  0.5108550000000  0.4379280000000  0.4174350000000 1.0
C      1  0.5877080000000  0.4439750000000  0.4844940000000 1.0
C      1  0.5408280000000  0.4390270000000  0.5760630000000 1.0
C      1  0.4461680000000  0.4377990000000  0.5473030000000 1.0
C      1  0.5788690000000  0.5150520000000  0.5480140000000 1.0
C      1  0.5643810000000  0.5132530000000  0.4310430000000 1.0
C      1  0.4807320000000  0.5249510000000  0.4221480000000 1.0
C      1  0.4107310000000  0.5168150000000  0.5112060000000 1.0
C      1  0.4729960000000  0.5243860000000  0.5805400000000 1.0
C      1  0.4320510000000  0.5201720000000  0.5377390000000 1.0
C      1  0.4345240000000  0.5182050000000  0.4561600000000 1.0
C      1  0.5349650000000  0.5161540000000  0.4174320000000 1.0
C      1  0.5720890000000  0.5169070000000  0.5144830000000 1.0
C      1  0.5039860000000  0.5291990000000  0.5712790000000 1.0
C      1  0.4409290000000  0.5681860000000  0.5567980000000 1.0
C      1  0.5385800000000  0.5647070000000  0.5737060000000 1.0
C      1  0.5827700000000  0.5574520000000  0.4825660000000 1.0
C      1  0.5110350000000  0.5623970000000  0.4387350000000 1.0
C      1  0.4320390000000  0.5656580000000  0.4673000000000 1.0
C      1  0.5500840000000  0.5568500000000  0.5485920000000 1.0
C      1  0.4673080000000  0.5586720000000  0.5607980000000 1.0
C      1  0.4344600000000  0.5561170000000  0.4942070000000 1.0
C      1  0.4852550000000  0.5704560000000  0.4294450000000 1.0
C      1  0.5607850000000  0.5520240000000  0.4648730000000 1.0
C      1  0.5573560000000  0.5417220000000  0.4383510000000 1.0
C      1  0.4639520000000  0.5507200000000  0.4301580000000 1.0
C      1  0.4156290000000  0.5478530000000  0.5140470000000 1.0
C      1  0.4814890000000  0.5565860000000  0.5877480000000 1.0
C      1  0.5758150000000  0.5470710000000  0.5399120000000 1.0
C      1  0.4419340000000  0.5477840000000  0.4470060000000 1.0
C      1  0.5309550000000  0.5491330000000  0.4249660000000 1.0
C      1  0.5816800000000  0.5486150000000  0.5093060000000 1.0
C      1  0.5140860000000  0.5551270000000  0.5845080000000 1.0
C      1  0.4226100000000  0.5524440000000  0.5428190000000 1.0
C      1  0.5859620000000  0.4947400000000  0.4706030000000 1.0
C      1  0.5056880000000  0.5178680000000  0.4004710000000 1.0
C      1  0.4415350000000  0.5184930000000  0.5718420000000 1.0
C      1  0.4133160000000  0.5051310000000  0.4794430000000 1.0
C      1  0.5670740000000  0.5097690000000  0.5795540000000 1.0
C      1  0.4945710000000  0.5697450000000  0.4863920000000 1.0
END
