TITL C-3289335-9438-108 -0.00146978327380687 125000 -1035.77852298976 0 0 191 (C1) n - 1
REM
REM in /nfs/bkarasulu/CARBON/AIRSS/Generating-Clusters/AIREBO/with-SteepDescent/Higher-Symm/SD-CG/HFTN-CG
REM
REM
REM
REM
REM
REM ./C.cell (b20cbc046b6831c77cfcea5457e17084)
REM
REM compiler GCC version 9.2.1 20190827 (Red Hat 9.2.1-1)
REM options -cpp -mtune=generic -march=x86-64 -g -O0 -fpre-include=/usr/include/finclude/math-vector-fortran.h
REM seed -1155079853 1489974576 -528786040 863156313 385117051 341987461 -358467755 -470387477 1428678106 -1889317373 1412587366 2110843197 -1864666114 644004163 -171458857 655861680 -208041900 -1763567791 2008203461 -1131523184 -1880097225 -580889344 -1301274969 -1476216903 -1862087552 -730005818 -110096657 1591280947 714079538 -737623101 1080262980 1610028822 -1701309980
REM
CELL 1.54180   50.00000   50.00000   50.00000   90.00000   90.00000   90.00000
LATT -1
SFAC C  
C      1  0.4902110000000  0.5650900000000  0.5474720000000 1.0
C      1  0.4548330000000  0.5460700000000  0.4742680000000 1.0
C      1  0.5549660000000  0.5540210000000  0.4861450000000 1.0
C      1  0.5713910000000  0.5102380000000  0.5951840000000 1.0
C      1  0.3843680000000  0.5123020000000  0.5290450000000 1.0
C      1  0.5267220000000  0.5126430000000  0.3794240000000 1.0
C      1  0.4659290000000  0.5005330000000  0.6093630000000 1.0
C      1  0.4218710000000  0.4982620000000  0.4139620000000 1.0
C      1  0.6144360000000  0.4999720000000  0.4802770000000 1.0
C      1  0.5206910000000  0.4455750000000  0.4686980000000 1.0
C      1  0.5401950000000  0.4448900000000  0.5365020000000 1.0
C      1  0.4547610000000  0.4500970000000  0.4932990000000 1.0
C      1  0.4276470000000  0.5396440000000  0.4920600000000 1.0
C      1  0.5413150000000  0.5453860000000  0.4561980000000 1.0
C      1  0.5191710000000  0.5499280000000  0.5568700000000 1.0
C      1  0.4705880000000  0.3938090000000  0.5307970000000 1.0
C      1  0.4650800000000  0.3772300000000  0.4433880000000 1.0
C      1  0.5510040000000  0.3871510000000  0.5100920000000 1.0
C      1  0.4097460000000  0.4673230000000  0.4359140000000 1.0
C      1  0.6048700000000  0.4711800000000  0.4542650000000 1.0
C      1  0.4843730000000  0.4541880000000  0.6021180000000 1.0
C      1  0.4813720000000  0.4288390000000  0.4367410000000 1.0
C      1  0.5714100000000  0.4214910000000  0.5106850000000 1.0
C      1  0.4673020000000  0.4392270000000  0.5416830000000 1.0
C      1  0.4399120000000  0.4665190000000  0.5768770000000 1.0
C      1  0.4690320000000  0.4775840000000  0.4112240000000 1.0
C      1  0.6057540000000  0.4817830000000  0.5053470000000 1.0
C      1  0.5196600000000  0.5806330000000  0.5713730000000 1.0
C      1  0.4283390000000  0.5731040000000  0.4860270000000 1.0
C      1  0.5571640000000  0.5715090000000  0.4442600000000 1.0
C      1  0.4468960000000  0.6198820000000  0.4948240000000 1.0
C      1  0.5280390000000  0.6153760000000  0.4506350000000 1.0
C      1  0.5121300000000  0.6219480000000  0.5367880000000 1.0
C      1  0.5758750000000  0.5298150000000  0.4745930000000 1.0
C      1  0.4910030000000  0.5325910000000  0.5806270000000 1.0
C      1  0.4146730000000  0.5299700000000  0.4520160000000 1.0
C      1  0.4782790000000  0.5928790000000  0.4647280000000 1.0
C      1  0.5312140000000  0.5851020000000  0.4936010000000 1.0
C      1  0.4918800000000  0.5975570000000  0.5243180000000 1.0
C      1  0.5738640000000  0.4563820000000  0.5968000000000 1.0
C      1  0.4041630000000  0.4560110000000  0.5181120000000 1.0
C      1  0.5238580000000  0.4389570000000  0.4094830000000 1.0
C      1  0.5397000000000  0.5275890000000  0.5580860000000 1.0
C      1  0.4359960000000  0.5279310000000  0.5191850000000 1.0
C      1  0.5209240000000  0.5281010000000  0.4401980000000 1.0
C      1  0.5722410000000  0.3937530000000  0.4910310000000 1.0
C      1  0.4838340000000  0.4129930000000  0.5555460000000 1.0
C      1  0.4592420000000  0.4037280000000  0.4427680000000 1.0
C      1  0.4498050000000  0.4311410000000  0.4242780000000 1.0
C      1  0.5924660000000  0.4377270000000  0.4890100000000 1.0
C      1  0.4498240000000  0.4167120000000  0.5595270000000 1.0
C      1  0.4888470000000  0.4597570000000  0.4305090000000 1.0
C      1  0.5612700000000  0.4650980000000  0.5441560000000 1.0
C      1  0.4489420000000  0.4623930000000  0.5447820000000 1.0
C      1  0.3978760000000  0.4571770000000  0.4867610000000 1.0
C      1  0.5493380000000  0.4472390000000  0.4203640000000 1.0
C      1  0.5518570000000  0.4625070000000  0.6073460000000 1.0
C      1  0.4447840000000  0.5030200000000  0.5573760000000 1.0
C      1  0.4673620000000  0.5068770000000  0.4275510000000 1.0
C      1  0.5825780000000  0.5015060000000  0.5143310000000 1.0
C      1  0.5020960000000  0.5715670000000  0.4690770000000 1.0
C      1  0.5342550000000  0.5694380000000  0.5236300000000 1.0
C      1  0.4692290000000  0.5752660000000  0.5122710000000 1.0
C      1  0.4799760000000  0.5542300000000  0.4554470000000 1.0
C      1  0.5620690000000  0.5503320000000  0.5191910000000 1.0
C      1  0.4594270000000  0.5545440000000  0.5375940000000 1.0
C      1  0.5912910000000  0.5257680000000  0.5318210000000 1.0
C      1  0.4238260000000  0.5287080000000  0.5665170000000 1.0
C      1  0.4759520000000  0.5324420000000  0.4103640000000 1.0
C      1  0.5937140000000  0.5479360000000  0.5065950000000 1.0
C      1  0.4530430000000  0.5434280000000  0.5691280000000 1.0
C      1  0.4567130000000  0.5444760000000  0.4340100000000 1.0
C      1  0.4415320000000  0.4766240000000  0.4282170000000 1.0
C      1  0.5767430000000  0.4875180000000  0.4479270000000 1.0
C      1  0.4677630000000  0.4790140000000  0.5874690000000 1.0
C      1  0.5388970000000  0.4951350000000  0.4779830000000 1.0
C      1  0.4982540000000  0.5011180000000  0.5498390000000 1.0
C      1  0.4560350000000  0.4973320000000  0.4741030000000 1.0
C      1  0.4266740000000  0.4423810000000  0.4767950000000 1.0
C      1  0.5496390000000  0.4401210000000  0.4529760000000 1.0
C      1  0.5211130000000  0.4504440000000  0.5711010000000 1.0
C      1  0.5710740000000  0.4218100000000  0.5443960000000 1.0
C      1  0.4297910000000  0.4280380000000  0.5342510000000 1.0
C      1  0.5114620000000  0.4193290000000  0.4254150000000 1.0
C      1  0.5251650000000  0.3967810000000  0.5159130000000 1.0
C      1  0.4783340000000  0.3972600000000  0.5046440000000 1.0
C      1  0.5195270000000  0.4064350000000  0.4765890000000 1.0
C      1  0.3957850000000  0.4869590000000  0.4491790000000 1.0
C      1  0.6070290000000  0.4820300000000  0.4236800000000 1.0
C      1  0.5017770000000  0.4829490000000  0.6072680000000 1.0
C      1  0.5281740000000  0.4783390000000  0.5125460000000 1.0
C      1  0.4919430000000  0.4620370000000  0.5169660000000 1.0
C      1  0.4921080000000  0.4810530000000  0.4752820000000 1.0
C      1  0.5310850000000  0.5423780000000  0.5942360000000 1.0
C      1  0.3883200000000  0.5426180000000  0.4873560000000 1.0
C      1  0.5652760000000  0.5261820000000  0.4116290000000 1.0
C      1  0.5755830000000  0.5020400000000  0.6215750000000 1.0
C      1  0.3608600000000  0.4984940000000  0.5216240000000 1.0
C      1  0.5414720000000  0.4983390000000  0.3600390000000 1.0
C      1  0.4273030000000  0.5582550000000  0.4570440000000 1.0
C      1  0.5837250000000  0.5591220000000  0.4592340000000 1.0
C      1  0.4925000000000  0.5657750000000  0.5819020000000 1.0
C      1  0.6038590000000  0.4614430000000  0.4806430000000 1.0
C      1  0.4614120000000  0.4405090000000  0.5810540000000 1.0
C      1  0.4245940000000  0.4411610000000  0.4231100000000 1.0
C      1  0.5047850000000  0.5520730000000  0.5196280000000 1.0
C      1  0.4799170000000  0.5493600000000  0.4965900000000 1.0
C      1  0.5211790000000  0.5528270000000  0.4898440000000 1.0
C      1  0.4826470000000  0.6016190000000  0.4384760000000 1.0
C      1  0.5625070000000  0.5854700000000  0.5007670000000 1.0
C      1  0.4694230000000  0.5920160000000  0.5482520000000 1.0
C      1  0.4144090000000  0.5206660000000  0.4217060000000 1.0
C      1  0.5933760000000  0.5080700000000  0.4645900000000 1.0
C      1  0.4763640000000  0.5231140000000  0.6075750000000 1.0
C      1  0.5181690000000  0.4714920000000  0.4807760000000 1.0
C      1  0.5091540000000  0.4736010000000  0.5385850000000 1.0
C      1  0.4690010000000  0.4787100000000  0.4994440000000 1.0
C      1  0.4964740000000  0.5066300000000  0.3760120000000 1.0
C      1  0.5901910000000  0.4978590000000  0.5750730000000 1.0
C      1  0.3943960000000  0.5037710000000  0.5562020000000 1.0
C      1  0.4547660000000  0.5907620000000  0.4878900000000 1.0
C      1  0.5316120000000  0.5866320000000  0.4608580000000 1.0
C      1  0.5200730000000  0.5909790000000  0.5418900000000 1.0
C      1  0.4902530000000  0.4317440000000  0.5208010000000 1.0
C      1  0.4945290000000  0.4277780000000  0.4678900000000 1.0
C      1  0.5365090000000  0.4461810000000  0.5053080000000 1.0
C      1  0.4240450000000  0.5774610000000  0.5307820000000 1.0
C      1  0.5146720000000  0.5676830000000  0.4191440000000 1.0
C      1  0.5666020000000  0.5744080000000  0.5506680000000 1.0
C      1  0.5410210000000  0.4248400000000  0.5608020000000 1.0
C      1  0.4264300000000  0.4251520000000  0.5061380000000 1.0
C      1  0.5295370000000  0.4133810000000  0.4468160000000 1.0
C      1  0.5459110000000  0.5541790000000  0.4177370000000 1.0
C      1  0.5487120000000  0.5665330000000  0.5778520000000 1.0
C      1  0.4025370000000  0.5670010000000  0.5065460000000 1.0
C      1  0.4637960000000  0.5605350000000  0.5891340000000 1.0
C      1  0.4364040000000  0.5674430000000  0.4293710000000 1.0
C      1  0.6022500000000  0.5584800000000  0.4830140000000 1.0
C      1  0.4957850000000  0.4731010000000  0.5691220000000 1.0
C      1  0.4401180000000  0.4696860000000  0.4615230000000 1.0
C      1  0.5538770000000  0.4734170000000  0.4599440000000 1.0
C      1  0.5714030000000  0.4212700000000  0.4710690000000 1.0
C      1  0.5091740000000  0.4185330000000  0.5693570000000 1.0
C      1  0.4332290000000  0.4171950000000  0.4577400000000 1.0
C      1  0.4176150000000  0.4856500000000  0.5597230000000 1.0
C      1  0.4871230000000  0.4810700000000  0.3838570000000 1.0
C      1  0.6133620000000  0.4629840000000  0.5293930000000 1.0
C      1  0.4964550000000  0.5453550000000  0.4303280000000 1.0
C      1  0.5669120000000  0.5404570000000  0.5488540000000 1.0
C      1  0.4262620000000  0.5475940000000  0.5404370000000 1.0
C      1  0.5121550000000  0.5213540000000  0.5298340000000 1.0
C      1  0.4796130000000  0.5160000000000  0.4900240000000 1.0
C      1  0.5188000000000  0.5224380000000  0.4796180000000 1.0
C      1  0.4157380000000  0.4554500000000  0.5470900000000 1.0
C      1  0.5060880000000  0.4647850000000  0.4033140000000 1.0
C      1  0.5908420000000  0.4494320000000  0.5459400000000 1.0
C      1  0.3939480000000  0.5240930000000  0.5776280000000 1.0
C      1  0.4799360000000  0.5272310000000  0.3813810000000 1.0
C      1  0.6045070000000  0.5136540000000  0.5578180000000 1.0
C      1  0.4301910000000  0.4709680000000  0.5042060000000 1.0
C      1  0.5296880000000  0.4847860000000  0.4079000000000 1.0
C      1  0.5825200000000  0.4693100000000  0.5704340000000 1.0
C      1  0.4947760000000  0.5172580000000  0.4590460000000 1.0
C      1  0.5438560000000  0.5158780000000  0.5273880000000 1.0
C      1  0.4644780000000  0.5179780000000  0.5204310000000 1.0
C      1  0.5767210000000  0.4966540000000  0.4167070000000 1.0
C      1  0.5136590000000  0.5132910000000  0.5970830000000 1.0
C      1  0.3940710000000  0.5143800000000  0.4693090000000 1.0
C      1  0.5448270000000  0.5372550000000  0.3892340000000 1.0
C      1  0.5617940000000  0.5394850000000  0.5920070000000 1.0
C      1  0.3837010000000  0.5419800000000  0.5183640000000 1.0
C      1  0.4442470000000  0.5161610000000  0.4483050000000 1.0
C      1  0.5568580000000  0.5139260000000  0.4958770000000 1.0
C      1  0.4734900000000  0.5209100000000  0.5539060000000 1.0
C      1  0.5437990000000  0.4213370000000  0.4904520000000 1.0
C      1  0.5173400000000  0.4208970000000  0.5288180000000 1.0
C      1  0.4755350000000  0.4274530000000  0.4924440000000 1.0
C      1  0.4563300000000  0.4876290000000  0.5293430000000 1.0
C      1  0.4868130000000  0.4875430000000  0.4454150000000 1.0
C      1  0.5567270000000  0.4867790000000  0.5250990000000 1.0
C      1  0.5703940000000  0.5885530000000  0.5274360000000 1.0
C      1  0.4425100000000  0.5931940000000  0.5432830000000 1.0
C      1  0.5003640000000  0.5913770000000  0.4188600000000 1.0
C      1  0.4063590000000  0.4890240000000  0.4876280000000 1.0
C      1  0.5543110000000  0.4739120000000  0.4135300000000 1.0
C      1  0.5290640000000  0.4769570000000  0.5908440000000 1.0
C      1  0.5257340000000  0.5133360000000  0.4134290000000 1.0
C      1  0.5422410000000  0.5063930000000  0.5813130000000 1.0
C      1  0.4094020000000  0.5142750000000  0.5061170000000 1.0
C      1  0.5086720000000  0.5045510000000  0.5034700000000 1.0
C      1  0.5038780000000  0.3878870000000  0.4973220000000 1.0
END
