TITL C-3289328-6581-575 -0.000563949811507572 125000 -446.349080766269 0 0 84 (C1) n - 1
REM
REM in /nfs/bkarasulu/CARBON/AIRSS/Generating-Clusters/AIREBO/with-SteepDescent/Higher-Symm/SD-CG/HFTN-CG
REM
REM
REM
REM
REM
REM ./C.cell (b20cbc046b6831c77cfcea5457e17084)
REM
REM compiler GCC version 9.2.1 20190827 (Red Hat 9.2.1-1)
REM options -cpp -mtune=generic -march=x86-64 -g -O0 -fpre-include=/usr/include/finclude/math-vector-fortran.h
REM seed 1447704402 481178776 -407809179 839850664 -1400851926 297604451 2025727269 -1913979883 1830646474 1510588281 950772899 -1130958079 -1043479442 1159645249 1014420635 564055927 1425020036 863732760 -1891695936 -343726375 1973645213 -171652243 389657320 -34346632 269936666 940873723 959998067 461910475 1426626457 251412721 -422475962 -709847926 -180830553
REM
CELL 1.54180   50.00000   50.00000   50.00000   90.00000   90.00000   90.00000
LATT -1
SFAC C  
C      1  0.4922330000000  0.5549410000000  0.4864900000000 1.0
C      1  0.4439890000000  0.5124060000000  0.4852930000000 1.0
C      1  0.4743690000000  0.4414820000000  0.4916900000000 1.0
C      1  0.5389770000000  0.4521370000000  0.4882810000000 1.0
C      1  0.5491950000000  0.5251820000000  0.4869410000000 1.0
C      1  0.5014940000000  0.5653630000000  0.5399090000000 1.0
C      1  0.4431940000000  0.5206370000000  0.5386080000000 1.0
C      1  0.4619190000000  0.4434500000000  0.5437900000000 1.0
C      1  0.5368650000000  0.4472590000000  0.5413690000000 1.0
C      1  0.5594700000000  0.5169500000000  0.5408890000000 1.0
C      1  0.5526870000000  0.5586880000000  0.5162380000000 1.0
C      1  0.4591360000000  0.5693390000000  0.5121470000000 1.0
C      1  0.4274270000000  0.4810790000000  0.5198900000000 1.0
C      1  0.4976270000000  0.4220440000000  0.5177890000000 1.0
C      1  0.5721120000000  0.4706810000000  0.5193360000000 1.0
C      1  0.5758900000000  0.5185630000000  0.4677610000000 1.0
C      1  0.4955440000000  0.5869120000000  0.4745020000000 1.0
C      1  0.4207750000000  0.5286820000000  0.4665120000000 1.0
C      1  0.4513010000000  0.4355600000000  0.4674090000000 1.0
C      1  0.5444140000000  0.4318540000000  0.4615350000000 1.0
C      1  0.5076170000000  0.4455370000000  0.5361000000000 1.0
C      1  0.5524290000000  0.4872140000000  0.5378600000000 1.0
C      1  0.5278280000000  0.5509960000000  0.5355760000000 1.0
C      1  0.4635900000000  0.5442040000000  0.5341080000000 1.0
C      1  0.4507570000000  0.4723140000000  0.5406000000000 1.0
C      1  0.5399000000000  0.5305810000000  0.5566210000000 1.0
C      1  0.4820460000000  0.5533500000000  0.5584210000000 1.0
C      1  0.4504100000000  0.5003150000000  0.5579320000000 1.0
C      1  0.4863570000000  0.4456420000000  0.5586090000000 1.0
C      1  0.5426970000000  0.4685660000000  0.5607910000000 1.0
C      1  0.4604800000000  0.4673330000000  0.5022360000000 1.0
C      1  0.5051270000000  0.4556510000000  0.4884290000000 1.0
C      1  0.5419890000000  0.4927780000000  0.4896500000000 1.0
C      1  0.5218770000000  0.5430870000000  0.4964210000000 1.0
C      1  0.4670250000000  0.5340160000000  0.4956360000000 1.0
C      1  0.4940610000000  0.5382370000000  0.4569240000000 1.0
C      1  0.4670430000000  0.5088610000000  0.4590470000000 1.0
C      1  0.4877330000000  0.4740030000000  0.4655040000000 1.0
C      1  0.5263060000000  0.4830840000000  0.4657960000000 1.0
C      1  0.5302870000000  0.5220060000000  0.4588600000000 1.0
C      1  0.5250040000000  0.4907780000000  0.4327020000000 1.0
C      1  0.5168360000000  0.5211350000000  0.4272390000000 1.0
C      1  0.4849490000000  0.5248000000000  0.4270460000000 1.0
C      1  0.4733090000000  0.4944040000000  0.4295580000000 1.0
C      1  0.4975650000000  0.4743730000000  0.4332930000000 1.0
C      1  0.4894260000000  0.5717480000000  0.5159250000000 1.0
C      1  0.4314350000000  0.5089410000000  0.5157850000000 1.0
C      1  0.4674550000000  0.4262130000000  0.5209320000000 1.0
C      1  0.5516150000000  0.4495530000000  0.5175070000000 1.0
C      1  0.5644110000000  0.5306120000000  0.5169020000000 1.0
C      1  0.5043670000000  0.4721910000000  0.5179870000000 1.0
C      1  0.5276160000000  0.4933350000000  0.5174310000000 1.0
C      1  0.5168200000000  0.5223720000000  0.5212710000000 1.0
C      1  0.4829700000000  0.5191320000000  0.5217330000000 1.0
C      1  0.4760330000000  0.4858370000000  0.5222920000000 1.0
C      1  0.5540350000000  0.4789310000000  0.4374040000000 1.0
C      1  0.5333780000000  0.5477480000000  0.4384850000000 1.0
C      1  0.4665040000000  0.5532830000000  0.4248510000000 1.0
C      1  0.4434940000000  0.4879620000000  0.4346060000000 1.0
C      1  0.4997420000000  0.4423170000000  0.4444470000000 1.0
C      1  0.5288550000000  0.4774640000000  0.5821540000000 1.0
C      1  0.5216940000000  0.5140730000000  0.5681100000000 1.0
C      1  0.4861310000000  0.5305400000000  0.5744700000000 1.0
C      1  0.4664140000000  0.5064080000000  0.5804940000000 1.0
C      1  0.4881570000000  0.4598980000000  0.5812480000000 1.0
C      1  0.4322870000000  0.4690640000000  0.4936330000000 1.0
C      1  0.5090740000000  0.4219710000000  0.4910670000000 1.0
C      1  0.5731890000000  0.4833430000000  0.4937350000000 1.0
C      1  0.5464310000000  0.5650280000000  0.4879180000000 1.0
C      1  0.4531290000000  0.5624210000000  0.4831280000000 1.0
C      1  0.5623610000000  0.4661950000000  0.4679350000000 1.0
C      1  0.5421970000000  0.5713570000000  0.4612560000000 1.0
C      1  0.4587320000000  0.5580640000000  0.4547820000000 1.0
C      1  0.4350000000000  0.4854960000000  0.4665300000000 1.0
C      1  0.4902390000000  0.4266490000000  0.4653170000000 1.0
C      1  0.5752770000000  0.4949250000000  0.4552000000000 1.0
C      1  0.5107630000000  0.5676460000000  0.4534160000000 1.0
C      1  0.4455730000000  0.5314420000000  0.4504220000000 1.0
C      1  0.4585580000000  0.4639060000000  0.4625980000000 1.0
C      1  0.5266090000000  0.4531270000000  0.4504680000000 1.0
C      1  0.5008060000000  0.5051290000000  0.4611290000000 1.0
C      1  0.4979530000000  0.4916690000000  0.5817390000000 1.0
C      1  0.4936330000000  0.5066210000000  0.5514990000000 1.0
C      1  0.4945650000000  0.5053250000000  0.4929070000000 1.0
END
