TITL C-3289334-2237-194 -6.54880284448501e-07 125000 -170.087006624192 0 0 29 (D3) n - 1
REM
REM in /nfs/bkarasulu/CARBON/AIRSS/Generating-Clusters/AIREBO/with-SteepDescent/Higher-Symm/SD-CG/HFTN-CG
REM
REM
REM
REM
REM
REM ./C.cell (b20cbc046b6831c77cfcea5457e17084)
REM
REM compiler GCC version 9.2.1 20190827 (Red Hat 9.2.1-1)
REM options -cpp -mtune=generic -march=x86-64 -g -O0 -fpre-include=/usr/include/finclude/math-vector-fortran.h
REM seed 1509248784 1560604243 319927339 -480463953 1697845006 -212471164 36944529 -1554216407 797244343 -1942039535 1621705708 1441351408 -1005653644 353984758 1021417411 410874403 1452769485 2043970252 -270492371 227107082 -1870724076 1572758092 757944395 1019332041 568196395 581671324 -1910150720 -792577079 931130299 894263656 -501143818 961295712 2076077819
REM
CELL 1.54180   50.00000   50.00000   50.00000   90.00000   90.00000   90.00000
LATT -1
SFAC C  
C      1  0.4864720000000  0.5688360000000  0.4277780000000 1.0
C      1  0.4863370000000  0.4032210000000  0.4747810000000 1.0
C      1  0.4863660000000  0.5267350000000  0.5947060000000 1.0
C      1  0.5132710000000  0.5689900000000  0.5702440000000 1.0
C      1  0.5131790000000  0.4032620000000  0.5236410000000 1.0
C      1  0.5133190000000  0.5264850000000  0.4034170000000 1.0
C      1  0.4732680000000  0.4947240000000  0.5260370000000 1.0
C      1  0.4733050000000  0.5253910000000  0.4898330000000 1.0
C      1  0.4732770000000  0.4787040000000  0.4813770000000 1.0
C      1  0.5263740000000  0.4946220000000  0.4721640000000 1.0
C      1  0.5263780000000  0.5253770000000  0.5082930000000 1.0
C      1  0.5263420000000  0.4787100000000  0.5168630000000 1.0
C      1  0.5065090000000  0.4264520000000  0.5115880000000 1.0
C      1  0.5065710000000  0.5469670000000  0.5561870000000 1.0
C      1  0.5066140000000  0.5253320000000  0.4295180000000 1.0
C      1  0.4930380000000  0.4264310000000  0.4867780000000 1.0
C      1  0.4931420000000  0.5468380000000  0.4418880000000 1.0
C      1  0.4930690000000  0.5255100000000  0.5686090000000 1.0
C      1  0.4877190000000  0.4508460000000  0.4756690000000 1.0
C      1  0.4877200000000  0.5036890000000  0.5530180000000 1.0
C      1  0.4877870000000  0.5442540000000  0.4685800000000 1.0
C      1  0.5118620000000  0.4508860000000  0.5226380000000 1.0
C      1  0.5119330000000  0.5035420000000  0.4451610000000 1.0
C      1  0.5119230000000  0.5443110000000  0.5295010000000 1.0
C      1  0.4998260000000  0.4779940000000  0.4617960000000 1.0
C      1  0.4997920000000  0.4780840000000  0.5364450000000 1.0
C      1  0.4998540000000  0.5426860000000  0.4990430000000 1.0
C      1  0.5295590000000  0.4995680000000  0.4991080000000 1.0
C      1  0.4700890000000  0.4996090000000  0.4990810000000 1.0
END
