TITL C-3289324-3781-168 -5.5316492345394e-08 125000 -19.1918722013464 0 0 5 (Td) n - 1
REM
REM in /nfs/bkarasulu/CARBON/AIRSS/Generating-Clusters/AIREBO/with-SteepDescent/Higher-Symm/SD-CG/HFTN-CG
REM
REM
REM
REM
REM
REM ./C.cell (b20cbc046b6831c77cfcea5457e17084)
REM
REM compiler GCC version 9.2.1 20190827 (Red Hat 9.2.1-1)
REM options -cpp -mtune=generic -march=x86-64 -g -O0 -fpre-include=/usr/include/finclude/math-vector-fortran.h
REM seed 1190243963 1359282529 -1990589467 453966692 -271290294 -1466421302 453081214 -2089811167 -239266569 -729781145 -939863740 -1480105876 -1251470339 1833767086 1928187886 -578526803 -1023817166 -1374774379 1301357463 1022886102 -843190446 225766370 1672064182 -1837486707 1478391716 90035534 1757085288 -788914953 -33800490 633157924 -1632412699 -447806170 -1000434359
REM
CELL 1.54180   50.00000   50.00000   50.00000   90.00000   90.00000   90.00000
LATT -1
SFAC C  
C      1  0.5148980000000  0.4829570000000  0.4789290000000 1.0
C      1  0.4818310000000  0.4829600000000  0.5119960000000 1.0
C      1  0.5148980000000  0.5160260000000  0.5119930000000 1.0
C      1  0.4818310000000  0.5160240000000  0.4789270000000 1.0
C      1  0.4983650000000  0.4994920000000  0.4954610000000 1.0
END
