TITL C-3289328-6581-468 0.00151371046474064 125000 -739.178425599131 0 0 140 (C1) n - 1
REM
REM in /nfs/bkarasulu/CARBON/AIRSS/Generating-Clusters/AIREBO/with-SteepDescent/Higher-Symm/SD-CG/HFTN-CG
REM
REM
REM
REM
REM
REM ./C.cell (b20cbc046b6831c77cfcea5457e17084)
REM
REM compiler GCC version 9.2.1 20190827 (Red Hat 9.2.1-1)
REM options -cpp -mtune=generic -march=x86-64 -g -O0 -fpre-include=/usr/include/finclude/math-vector-fortran.h
REM seed -715145047 -1271594144 -2129428487 -870803387 -1687750185 -1391926710 -690260366 -1172884713 -81699341 -1477021984 430186887 -1106206394 -474280467 -325551278 -546874858 -423894762 663531980 2060735899 1340973802 833880186 1676371276 849982729 -1152315294 1647239064 1592807351 49113146 -1763006415 -1706644284 363145193 948586700 -1270664731 1432685369 -2138506339
REM
CELL 1.54180   50.00000   50.00000   50.00000   90.00000   90.00000   90.00000
LATT -1
SFAC C  
C      1  0.4821690000000  0.5635860000000  0.4320390000000 1.0
C      1  0.4836040000000  0.4357910000000  0.5633120000000 1.0
C      1  0.5096330000000  0.4308740000000  0.4314590000000 1.0
C      1  0.5145390000000  0.5667390000000  0.5693260000000 1.0
C      1  0.5050070000000  0.5544330000000  0.4167590000000 1.0
C      1  0.5073740000000  0.4469170000000  0.5800260000000 1.0
C      1  0.4904850000000  0.4424960000000  0.4150690000000 1.0
C      1  0.4954320000000  0.5593040000000  0.5887700000000 1.0
C      1  0.5487940000000  0.5820670000000  0.4909950000000 1.0
C      1  0.5505370000000  0.4118250000000  0.5108910000000 1.0
C      1  0.4544750000000  0.4083410000000  0.4837560000000 1.0
C      1  0.4531550000000  0.5944100000000  0.5170030000000 1.0
C      1  0.5325430000000  0.4736300000000  0.4751480000000 1.0
C      1  0.5226580000000  0.5311580000000  0.5194050000000 1.0
C      1  0.4809160000000  0.5315780000000  0.4788530000000 1.0
C      1  0.4795410000000  0.4652960000000  0.5213370000000 1.0
C      1  0.4853190000000  0.5776170000000  0.5338150000000 1.0
C      1  0.4871040000000  0.4269500000000  0.4642460000000 1.0
C      1  0.5163260000000  0.4269200000000  0.5246540000000 1.0
C      1  0.5080690000000  0.5762920000000  0.4718550000000 1.0
C      1  0.4278720000000  0.4740210000000  0.4461780000000 1.0
C      1  0.4295530000000  0.5273760000000  0.5527970000000 1.0
C      1  0.5649230000000  0.5219550000000  0.4449080000000 1.0
C      1  0.5715780000000  0.4779180000000  0.5599730000000 1.0
C      1  0.4616420000000  0.4868340000000  0.4121990000000 1.0
C      1  0.4620690000000  0.5182550000000  0.5907140000000 1.0
C      1  0.5322790000000  0.5095110000000  0.4210080000000 1.0
C      1  0.5350560000000  0.4905490000000  0.5912140000000 1.0
C      1  0.5091420000000  0.4063440000000  0.4485610000000 1.0
C      1  0.5096770000000  0.5895440000000  0.5521300000000 1.0
C      1  0.4848020000000  0.5857220000000  0.4495540000000 1.0
C      1  0.4923400000000  0.4149030000000  0.5454670000000 1.0
C      1  0.4504320000000  0.5002660000000  0.5333250000000 1.0
C      1  0.4499800000000  0.5007680000000  0.4651650000000 1.0
C      1  0.5445290000000  0.5077730000000  0.5308710000000 1.0
C      1  0.5588600000000  0.4891540000000  0.4667370000000 1.0
C      1  0.4693040000000  0.4701730000000  0.4892770000000 1.0
C      1  0.4661030000000  0.5292110000000  0.5093810000000 1.0
C      1  0.5333800000000  0.5293820000000  0.4868660000000 1.0
C      1  0.5358440000000  0.4694480000000  0.5080730000000 1.0
C      1  0.4029340000000  0.5098530000000  0.4826200000000 1.0
C      1  0.4043910000000  0.4906150000000  0.5176510000000 1.0
C      1  0.6033020000000  0.4863030000000  0.4891830000000 1.0
C      1  0.5970460000000  0.5092280000000  0.5211050000000 1.0
C      1  0.4859580000000  0.4591850000000  0.4511060000000 1.0
C      1  0.4834880000000  0.5486520000000  0.5519470000000 1.0
C      1  0.5096290000000  0.5465190000000  0.4553960000000 1.0
C      1  0.5154340000000  0.4529010000000  0.5466000000000 1.0
C      1  0.4591080000000  0.4126790000000  0.4512620000000 1.0
C      1  0.4578980000000  0.5909540000000  0.5488610000000 1.0
C      1  0.5309620000000  0.5928400000000  0.4529290000000 1.0
C      1  0.5293110000000  0.4141620000000  0.5533750000000 1.0
C      1  0.5068560000000  0.5150150000000  0.4792920000000 1.0
C      1  0.5055540000000  0.4839730000000  0.5137460000000 1.0
C      1  0.5000680000000  0.4820480000000  0.4806790000000 1.0
C      1  0.4955170000000  0.5141780000000  0.5174610000000 1.0
C      1  0.5549200000000  0.4607550000000  0.4370470000000 1.0
C      1  0.5550300000000  0.5268550000000  0.5569830000000 1.0
C      1  0.4411110000000  0.5307560000000  0.4403310000000 1.0
C      1  0.4460030000000  0.4706720000000  0.5597910000000 1.0
C      1  0.5156610000000  0.4379220000000  0.4790970000000 1.0
C      1  0.5072870000000  0.5595860000000  0.5151410000000 1.0
C      1  0.4856750000000  0.5596140000000  0.4912590000000 1.0
C      1  0.4943410000000  0.4428070000000  0.5041500000000 1.0
C      1  0.4329970000000  0.5551520000000  0.4832400000000 1.0
C      1  0.4375620000000  0.4483260000000  0.5166230000000 1.0
C      1  0.5676740000000  0.4423030000000  0.4760610000000 1.0
C      1  0.5702040000000  0.5505070000000  0.5144170000000 1.0
C      1  0.5558110000000  0.5887950000000  0.4523090000000 1.0
C      1  0.5507720000000  0.4373010000000  0.5562310000000 1.0
C      1  0.4423880000000  0.4372970000000  0.4413890000000 1.0
C      1  0.4466590000000  0.5628490000000  0.5580590000000 1.0
C      1  0.5847290000000  0.5400470000000  0.4789780000000 1.0
C      1  0.5974730000000  0.4375500000000  0.5173030000000 1.0
C      1  0.4130740000000  0.4554400000000  0.4824630000000 1.0
C      1  0.4134720000000  0.5459100000000  0.5172320000000 1.0
C      1  0.4711510000000  0.5955940000000  0.4740510000000 1.0
C      1  0.4747290000000  0.4066950000000  0.5232580000000 1.0
C      1  0.5273480000000  0.3991280000000  0.4693090000000 1.0
C      1  0.5285080000000  0.5980310000000  0.5313110000000 1.0
C      1  0.4407000000000  0.5002130000000  0.4324530000000 1.0
C      1  0.4447970000000  0.5018300000000  0.5668310000000 1.0
C      1  0.5589320000000  0.4921820000000  0.4330810000000 1.0
C      1  0.5576970000000  0.4989410000000  0.5715550000000 1.0
C      1  0.5252490000000  0.5417180000000  0.5519820000000 1.0
C      1  0.5252980000000  0.4521950000000  0.4497620000000 1.0
C      1  0.4735790000000  0.4620850000000  0.5509220000000 1.0
C      1  0.4677940000000  0.5401010000000  0.4484430000000 1.0
C      1  0.5057010000000  0.4748500000000  0.5947060000000 1.0
C      1  0.5070470000000  0.5264290000000  0.4057180000000 1.0
C      1  0.4912740000000  0.5314250000000  0.6024490000000 1.0
C      1  0.4899010000000  0.4703330000000  0.4028430000000 1.0
C      1  0.4487760000000  0.4603860000000  0.4655300000000 1.0
C      1  0.4499190000000  0.5408850000000  0.5323100000000 1.0
C      1  0.5485740000000  0.5407070000000  0.4618840000000 1.0
C      1  0.5577020000000  0.4616590000000  0.5335160000000 1.0
C      1  0.5968470000000  0.5335390000000  0.5084310000000 1.0
C      1  0.5987520000000  0.4603020000000  0.5023960000000 1.0
C      1  0.4079740000000  0.4643580000000  0.5116800000000 1.0
C      1  0.4053260000000  0.5361430000000  0.4886660000000 1.0
C      1  0.4838440000000  0.5088470000000  0.4115540000000 1.0
C      1  0.4810000000000  0.4923640000000  0.5892840000000 1.0
C      1  0.5162190000000  0.4843620000000  0.4044140000000 1.0
C      1  0.5142250000000  0.5137950000000  0.5934420000000 1.0
C      1  0.5360300000000  0.4627460000000  0.5718040000000 1.0
C      1  0.5327200000000  0.5416860000000  0.4320260000000 1.0
C      1  0.4642380000000  0.5495000000000  0.5798200000000 1.0
C      1  0.4625710000000  0.4568280000000  0.4281620000000 1.0
C      1  0.5212290000000  0.4862270000000  0.5431630000000 1.0
C      1  0.5192630000000  0.5030310000000  0.4517430000000 1.0
C      1  0.4782890000000  0.5140730000000  0.5443320000000 1.0
C      1  0.4788180000000  0.4921410000000  0.4561300000000 1.0
C      1  0.5791510000000  0.5069240000000  0.4843880000000 1.0
C      1  0.5722210000000  0.4901550000000  0.5219500000000 1.0
C      1  0.4252850000000  0.4871490000000  0.4837410000000 1.0
C      1  0.4257930000000  0.5142640000000  0.5151080000000 1.0
C      1  0.4445780000000  0.4797240000000  0.5089120000000 1.0
C      1  0.4428180000000  0.5228110000000  0.4869440000000 1.0
C      1  0.5586230000000  0.5230740000000  0.5039710000000 1.0
C      1  0.5671460000000  0.4702890000000  0.4948180000000 1.0
C      1  0.4849230000000  0.5969630000000  0.5051570000000 1.0
C      1  0.4874360000000  0.4057810000000  0.4916940000000 1.0
C      1  0.5192290000000  0.4014920000000  0.5022580000000 1.0
C      1  0.5180740000000  0.5944070000000  0.4988560000000 1.0
C      1  0.5451830000000  0.4242040000000  0.4824340000000 1.0
C      1  0.5397380000000  0.5685670000000  0.5202440000000 1.0
C      1  0.4559890000000  0.5723710000000  0.4926200000000 1.0
C      1  0.4618610000000  0.4327430000000  0.5062520000000 1.0
C      1  0.4272830000000  0.4548950000000  0.5469240000000 1.0
C      1  0.4218570000000  0.5455420000000  0.4535100000000 1.0
C      1  0.5602710000000  0.5575550000000  0.5450300000000 1.0
C      1  0.5739720000000  0.4463680000000  0.4499750000000 1.0
C      1  0.5103470000000  0.4777510000000  0.4363580000000 1.0
C      1  0.5031430000000  0.5242610000000  0.5651890000000 1.0
C      1  0.4925390000000  0.5200940000000  0.4424420000000 1.0
C      1  0.4912650000000  0.4864010000000  0.5592360000000 1.0
C      1  0.5662720000000  0.5649130000000  0.4707030000000 1.0
C      1  0.5682630000000  0.4298590000000  0.5276820000000 1.0
C      1  0.4333640000000  0.4324300000000  0.4743610000000 1.0
C      1  0.4340110000000  0.5688030000000  0.5258520000000 1.0
END
