TITL C-3289324-3781-283 -0.000640913486663139 125000 -739.319183531865 0 0 130 (C1) n - 1
REM
REM in /nfs/bkarasulu/CARBON/AIRSS/Generating-Clusters/AIREBO/with-SteepDescent/Higher-Symm/SD-CG/HFTN-CG
REM
REM
REM
REM
REM
REM ./C.cell (b20cbc046b6831c77cfcea5457e17084)
REM
REM compiler GCC version 9.2.1 20190827 (Red Hat 9.2.1-1)
REM options -cpp -mtune=generic -march=x86-64 -g -O0 -fpre-include=/usr/include/finclude/math-vector-fortran.h
REM seed -1967852714 1252275503 -131531533 -200318064 257170085 1935701227 -1658184152 -1122856488 1627626813 1345689793 1945936059 1896971378 1146436829 1918095923 -454033942 555202845 -1610079415 1433664510 -1000328040 -1212583966 -2067402106 -1732947210 -1785363023 -13289187 -879468899 572956999 -1353251705 -429763791 819448219 -624732163 -162060011 -564174948 719339582
REM
CELL 1.54180   50.00000   50.00000   50.00000   90.00000   90.00000   90.00000
LATT -1
SFAC C  
C      1  0.5270910000000  0.4098760000000  0.5137290000000 1.0
C      1  0.5051070000000  0.4103670000000  0.5365120000000 1.0
C      1  0.4771790000000  0.4078090000000  0.5323440000000 1.0
C      1  0.4672000000000  0.4077460000000  0.5050830000000 1.0
C      1  0.4623090000000  0.4001270000000  0.4756320000000 1.0
C      1  0.4922670000000  0.4092760000000  0.4722390000000 1.0
C      1  0.5253990000000  0.4077700000000  0.4797340000000 1.0
C      1  0.5466510000000  0.5989310000000  0.4997070000000 1.0
C      1  0.5443830000000  0.5946710000000  0.5489230000000 1.0
C      1  0.4959030000000  0.5970450000000  0.5595510000000 1.0
C      1  0.4640870000000  0.6121630000000  0.5242920000000 1.0
C      1  0.4415730000000  0.6071940000000  0.4766610000000 1.0
C      1  0.4747530000000  0.5997980000000  0.4421980000000 1.0
C      1  0.5233690000000  0.5969810000000  0.4576320000000 1.0
C      1  0.6065160000000  0.5056140000000  0.5050600000000 1.0
C      1  0.5583870000000  0.4850460000000  0.5938690000000 1.0
C      1  0.4721460000000  0.4948510000000  0.5971340000000 1.0
C      1  0.4050070000000  0.5060990000000  0.5378370000000 1.0
C      1  0.4145540000000  0.4904410000000  0.4482130000000 1.0
C      1  0.4923410000000  0.4998140000000  0.3980670000000 1.0
C      1  0.5531880000000  0.5107400000000  0.4030370000000 1.0
C      1  0.5727530000000  0.5099330000000  0.5535560000000 1.0
C      1  0.5070390000000  0.5129020000000  0.5702100000000 1.0
C      1  0.4518780000000  0.5152860000000  0.5447790000000 1.0
C      1  0.4351910000000  0.5046440000000  0.4872860000000 1.0
C      1  0.4634790000000  0.5093040000000  0.4342640000000 1.0
C      1  0.5231640000000  0.5134320000000  0.4410690000000 1.0
C      1  0.5688590000000  0.5092290000000  0.4741730000000 1.0
C      1  0.5120160000000  0.4348160000000  0.5540310000000 1.0
C      1  0.4619490000000  0.4297640000000  0.5494280000000 1.0
C      1  0.4273310000000  0.4322620000000  0.5132980000000 1.0
C      1  0.4604000000000  0.4274870000000  0.4563390000000 1.0
C      1  0.5095520000000  0.4356210000000  0.4306790000000 1.0
C      1  0.5624050000000  0.4316610000000  0.4750890000000 1.0
C      1  0.5638370000000  0.4344660000000  0.5288470000000 1.0
C      1  0.4640940000000  0.5609450000000  0.4709260000000 1.0
C      1  0.4944280000000  0.5550950000000  0.4565780000000 1.0
C      1  0.5360490000000  0.5565900000000  0.4857480000000 1.0
C      1  0.5378020000000  0.5516860000000  0.5192330000000 1.0
C      1  0.5220250000000  0.5549370000000  0.5490870000000 1.0
C      1  0.4719020000000  0.5664780000000  0.5281920000000 1.0
C      1  0.4546590000000  0.5695940000000  0.5024470000000 1.0
C      1  0.5377400000000  0.4417250000000  0.5082940000000 1.0
C      1  0.5208860000000  0.4592430000000  0.5320670000000 1.0
C      1  0.4816050000000  0.4512390000000  0.5336260000000 1.0
C      1  0.4600550000000  0.4406920000000  0.5095070000000 1.0
C      1  0.4708320000000  0.4481050000000  0.4803710000000 1.0
C      1  0.4985860000000  0.4410870000000  0.4620220000000 1.0
C      1  0.5299320000000  0.4417750000000  0.4751800000000 1.0
C      1  0.5653510000000  0.4871340000000  0.5310100000000 1.0
C      1  0.5170840000000  0.4844890000000  0.5626240000000 1.0
C      1  0.4566120000000  0.4840540000000  0.5459650000000 1.0
C      1  0.4268550000000  0.4795530000000  0.5021790000000 1.0
C      1  0.4616950000000  0.4796500000000  0.4392150000000 1.0
C      1  0.5183920000000  0.4834560000000  0.4404700000000 1.0
C      1  0.5667480000000  0.4765750000000  0.4730560000000 1.0
C      1  0.4893450000000  0.4799440000000  0.5444940000000 1.0
C      1  0.4560340000000  0.4742340000000  0.5134100000000 1.0
C      1  0.4776550000000  0.4806690000000  0.4873810000000 1.0
C      1  0.4899370000000  0.4734530000000  0.4561720000000 1.0
C      1  0.5340720000000  0.4727960000000  0.4678860000000 1.0
C      1  0.5521980000000  0.4721210000000  0.5034730000000 1.0
C      1  0.5316680000000  0.4915320000000  0.5327160000000 1.0
C      1  0.5435970000000  0.4375450000000  0.5567830000000 1.0
C      1  0.4838330000000  0.4412660000000  0.5720450000000 1.0
C      1  0.4338310000000  0.4384580000000  0.5418840000000 1.0
C      1  0.4348360000000  0.4475630000000  0.4631620000000 1.0
C      1  0.4768470000000  0.4318650000000  0.4299550000000 1.0
C      1  0.5370500000000  0.4392610000000  0.4300540000000 1.0
C      1  0.5767390000000  0.4386230000000  0.4986910000000 1.0
C      1  0.5464250000000  0.5301360000000  0.4687700000000 1.0
C      1  0.5207120000000  0.5209340000000  0.5191780000000 1.0
C      1  0.5030760000000  0.5305290000000  0.5461310000000 1.0
C      1  0.4742100000000  0.5388160000000  0.5436640000000 1.0
C      1  0.4674150000000  0.5120450000000  0.4845390000000 1.0
C      1  0.4600230000000  0.5293490000000  0.4589810000000 1.0
C      1  0.5124710000000  0.5305090000000  0.4667690000000 1.0
C      1  0.5703190000000  0.5478940000000  0.5213570000000 1.0
C      1  0.5338760000000  0.5516060000000  0.5781020000000 1.0
C      1  0.4638290000000  0.5534880000000  0.5706420000000 1.0
C      1  0.4267320000000  0.5598580000000  0.5099560000000 1.0
C      1  0.4381540000000  0.5491460000000  0.4429990000000 1.0
C      1  0.4974980000000  0.5581030000000  0.4240680000000 1.0
C      1  0.5606620000000  0.5551680000000  0.4537880000000 1.0
C      1  0.5900370000000  0.4635570000000  0.4941460000000 1.0
C      1  0.5665030000000  0.4607130000000  0.5489620000000 1.0
C      1  0.4988620000000  0.4679470000000  0.5844700000000 1.0
C      1  0.4283810000000  0.4654110000000  0.5479730000000 1.0
C      1  0.4267760000000  0.4507390000000  0.4896020000000 1.0
C      1  0.4780120000000  0.4600580000000  0.4205050000000 1.0
C      1  0.5455910000000  0.4691440000000  0.4259280000000 1.0
C      1  0.4783040000000  0.5922440000000  0.5386060000000 1.0
C      1  0.4506790000000  0.6011860000000  0.5023200000000 1.0
C      1  0.4536490000000  0.5900810000000  0.4580110000000 1.0
C      1  0.4987620000000  0.5881010000000  0.4500190000000 1.0
C      1  0.5348420000000  0.5842290000000  0.4791950000000 1.0
C      1  0.5465910000000  0.5843120000000  0.5231850000000 1.0
C      1  0.5205730000000  0.5848940000000  0.5607980000000 1.0
C      1  0.4123070000000  0.4805680000000  0.5292420000000 1.0
C      1  0.4345970000000  0.4704180000000  0.4473710000000 1.0
C      1  0.5000110000000  0.4766540000000  0.4127080000000 1.0
C      1  0.5629640000000  0.4524030000000  0.4494060000000 1.0
C      1  0.5943700000000  0.4824490000000  0.5144990000000 1.0
C      1  0.5445670000000  0.4673990000000  0.5730600000000 1.0
C      1  0.4661860000000  0.4708430000000  0.5758080000000 1.0
C      1  0.4753470000000  0.5185120000000  0.4108430000000 1.0
C      1  0.5416080000000  0.5239990000000  0.4233620000000 1.0
C      1  0.5902430000000  0.5209390000000  0.4882920000000 1.0
C      1  0.5660850000000  0.5094220000000  0.5829870000000 1.0
C      1  0.4881940000000  0.5171140000000  0.5905830000000 1.0
C      1  0.4256980000000  0.5245160000000  0.5416520000000 1.0
C      1  0.4180750000000  0.5120230000000  0.4663080000000 1.0
C      1  0.4490490000000  0.5569590000000  0.4178020000000 1.0
C      1  0.5240600000000  0.5668800000000  0.4180920000000 1.0
C      1  0.5810500000000  0.5638740000000  0.4725110000000 1.0
C      1  0.5762900000000  0.5388620000000  0.5469250000000 1.0
C      1  0.5103210000000  0.5578570000000  0.5947530000000 1.0
C      1  0.4379950000000  0.5645810000000  0.5614170000000 1.0
C      1  0.4116680000000  0.5549980000000  0.4864580000000 1.0
C      1  0.5842330000000  0.5475710000000  0.4962670000000 1.0
C      1  0.5595410000000  0.5396820000000  0.5765730000000 1.0
C      1  0.4835020000000  0.5457730000000  0.5914650000000 1.0
C      1  0.4251050000000  0.5526700000000  0.5377760000000 1.0
C      1  0.4172660000000  0.5402140000000  0.4625680000000 1.0
C      1  0.4751670000000  0.5468610000000  0.4105430000000 1.0
C      1  0.5464670000000  0.5519790000000  0.4280740000000 1.0
C      1  0.5075660000000  0.4844460000000  0.5012590000000 1.0
C      1  0.5021930000000  0.4258370000000  0.4987790000000 1.0
C      1  0.5003800000000  0.5164380000000  0.4922600000000 1.0
C      1  0.4993070000000  0.4526330000000  0.5080040000000 1.0
END
