TITL C-3289326-3776-279 -0.00276128289744362 125000 -522.321644790611 0 0 89 (C1) n - 1
REM
REM in /nfs/bkarasulu/CARBON/AIRSS/Generating-Clusters/AIREBO/with-SteepDescent/Higher-Symm/SD-CG/HFTN-CG
REM
REM
REM
REM
REM
REM ./C.cell (b20cbc046b6831c77cfcea5457e17084)
REM
REM compiler GCC version 9.2.1 20190827 (Red Hat 9.2.1-1)
REM options -cpp -mtune=generic -march=x86-64 -g -O0 -fpre-include=/usr/include/finclude/math-vector-fortran.h
REM seed 2220471 1512629423 -1497376872 1765796022 1981929130 1735377091 -2083681439 470876038 336071410 913042712 1838432158 322509318 664132123 1287546916 1819325214 642429808 2079565719 -925549796 787679376 -1249213620 -1946266443 1827795959 1901160593 1042459024 1843182069 668341589 731295193 -378121537 2130086078 1405666431 -1941560357 221546864 1334059749
REM
CELL 1.54180   50.00000   50.00000   50.00000   90.00000   90.00000   90.00000
LATT -1
SFAC C  
C      1  0.5716120000000  0.4692730000000  0.5560250000000 1.0
C      1  0.5491070000000  0.5748450000000  0.4754450000000 1.0
C      1  0.4708890000000  0.5472470000000  0.5627520000000 1.0
C      1  0.4245460000000  0.4725890000000  0.4502870000000 1.0
C      1  0.5667480000000  0.5331070000000  0.4544250000000 1.0
C      1  0.4281760000000  0.5287750000000  0.5458800000000 1.0
C      1  0.4481930000000  0.5713720000000  0.5271700000000 1.0
C      1  0.5567240000000  0.4292790000000  0.5308210000000 1.0
C      1  0.4434660000000  0.4342030000000  0.4734520000000 1.0
C      1  0.5304290000000  0.5578870000000  0.4324260000000 1.0
C      1  0.4669880000000  0.4529280000000  0.4341440000000 1.0
C      1  0.5312420000000  0.4443130000000  0.5706600000000 1.0
C      1  0.5476520000000  0.4691370000000  0.5708850000000 1.0
C      1  0.4732650000000  0.5668550000000  0.5429640000000 1.0
C      1  0.5702560000000  0.5570530000000  0.4722720000000 1.0
C      1  0.4429330000000  0.4697110000000  0.4291690000000 1.0
C      1  0.4459360000000  0.5312080000000  0.5671420000000 1.0
C      1  0.5470140000000  0.5333300000000  0.4347130000000 1.0
C      1  0.5281210000000  0.5743300000000  0.4550680000000 1.0
C      1  0.5316400000000  0.4291360000000  0.5469310000000 1.0
C      1  0.4660790000000  0.4332460000000  0.4537880000000 1.0
C      1  0.4277000000000  0.5521290000000  0.5269260000000 1.0
C      1  0.4267320000000  0.4565140000000  0.4756640000000 1.0
C      1  0.5718610000000  0.4530550000000  0.5310780000000 1.0
C      1  0.4358580000000  0.5438330000000  0.4741860000000 1.0
C      1  0.4778530000000  0.4381280000000  0.5421960000000 1.0
C      1  0.5430240000000  0.4776010000000  0.4368000000000 1.0
C      1  0.5641790000000  0.5435140000000  0.5237900000000 1.0
C      1  0.4350430000000  0.4544180000000  0.5249800000000 1.0
C      1  0.5632410000000  0.4576760000000  0.4770490000000 1.0
C      1  0.5240890000000  0.4361730000000  0.4571130000000 1.0
C      1  0.4752300000000  0.5632110000000  0.4546860000000 1.0
C      1  0.5239310000000  0.5647200000000  0.5448250000000 1.0
C      1  0.4576410000000  0.4775360000000  0.5631550000000 1.0
C      1  0.5431870000000  0.5227750000000  0.5619750000000 1.0
C      1  0.4571390000000  0.5231800000000  0.4348700000000 1.0
C      1  0.4766350000000  0.5431720000000  0.4348030000000 1.0
C      1  0.5444930000000  0.4361080000000  0.4764320000000 1.0
C      1  0.4358570000000  0.4763730000000  0.5450710000000 1.0
C      1  0.5232940000000  0.5425990000000  0.5627410000000 1.0
C      1  0.5231140000000  0.4573430000000  0.4375550000000 1.0
C      1  0.4771470000000  0.4574150000000  0.5634280000000 1.0
C      1  0.4574610000000  0.4369390000000  0.5232690000000 1.0
C      1  0.4555720000000  0.5635230000000  0.4744150000000 1.0
C      1  0.5457660000000  0.5651540000000  0.5247970000000 1.0
C      1  0.5636300000000  0.4777190000000  0.4571880000000 1.0
C      1  0.5646960000000  0.5236850000000  0.5433970000000 1.0
C      1  0.4378250000000  0.5235490000000  0.4555530000000 1.0
C      1  0.5023350000000  0.5676170000000  0.4710890000000 1.0
C      1  0.4688340000000  0.5076400000000  0.5670260000000 1.0
C      1  0.5639890000000  0.4716230000000  0.5063530000000 1.0
C      1  0.4993090000000  0.5630330000000  0.5214310000000 1.0
C      1  0.5071040000000  0.4372270000000  0.5281170000000 1.0
C      1  0.4940890000000  0.4310480000000  0.4707040000000 1.0
C      1  0.5281150000000  0.5068960000000  0.4367950000000 1.0
C      1  0.4678890000000  0.4926180000000  0.4305700000000 1.0
C      1  0.5293830000000  0.4937600000000  0.5624830000000 1.0
C      1  0.4349140000000  0.4781350000000  0.5006060000000 1.0
C      1  0.5691410000000  0.5326940000000  0.4941270000000 1.0
C      1  0.4318770000000  0.5305040000000  0.5027250000000 1.0
C      1  0.4704460000000  0.5665130000000  0.5030980000000 1.0
C      1  0.5636670000000  0.5067260000000  0.4728210000000 1.0
C      1  0.5077900000000  0.4683010000000  0.5689770000000 1.0
C      1  0.5234900000000  0.5647600000000  0.4975610000000 1.0
C      1  0.5330020000000  0.4304640000000  0.5070910000000 1.0
C      1  0.4693070000000  0.4367940000000  0.4933180000000 1.0
C      1  0.4354600000000  0.5035760000000  0.5231780000000 1.0
C      1  0.4353960000000  0.4952030000000  0.4708440000000 1.0
C      1  0.5708000000000  0.4929410000000  0.5319940000000 1.0
C      1  0.4934770000000  0.4711000000000  0.4367460000000 1.0
C      1  0.4954480000000  0.5276850000000  0.5619600000000 1.0
C      1  0.5073190000000  0.5330080000000  0.4314800000000 1.0
C      1  0.4674190000000  0.5029780000000  0.5340350000000 1.0
C      1  0.5330030000000  0.4640350000000  0.5022500000000 1.0
C      1  0.4670500000000  0.4681490000000  0.5004050000000 1.0
C      1  0.5360220000000  0.5334360000000  0.4973720000000 1.0
C      1  0.4655010000000  0.5335440000000  0.4986900000000 1.0
C      1  0.5029820000000  0.4682860000000  0.5353090000000 1.0
C      1  0.4977140000000  0.4640050000000  0.4675270000000 1.0
C      1  0.4673910000000  0.4982870000000  0.4641100000000 1.0
C      1  0.5012050000000  0.5347870000000  0.4648940000000 1.0
C      1  0.5325700000000  0.5001630000000  0.4678360000000 1.0
C      1  0.5372170000000  0.4975050000000  0.5316440000000 1.0
C      1  0.5016350000000  0.5314640000000  0.5311120000000 1.0
C      1  0.5204220000000  0.5152590000000  0.5148270000000 1.0
C      1  0.4839070000000  0.5166380000000  0.4816240000000 1.0
C      1  0.4847050000000  0.4845340000000  0.5182030000000 1.0
C      1  0.5164460000000  0.4802860000000  0.4835290000000 1.0
C      1  0.5010200000000  0.4997690000000  0.4992290000000 1.0
END
