TITL C-3289331-6719-133 0.00177568823317597 125000 -420.654805527934 0 0 70 (C1) n - 1
REM
REM in /nfs/bkarasulu/CARBON/AIRSS/Generating-Clusters/AIREBO/with-SteepDescent/Higher-Symm/SD-CG/HFTN-CG
REM
REM
REM
REM
REM
REM ./C.cell (b20cbc046b6831c77cfcea5457e17084)
REM
REM compiler GCC version 9.2.1 20190827 (Red Hat 9.2.1-1)
REM options -cpp -mtune=generic -march=x86-64 -g -O0 -fpre-include=/usr/include/finclude/math-vector-fortran.h
REM seed 237702377 -1501455327 716615999 -786432238 -1677778807 1050584676 -1754563098 -1134062148 -1765102870 67708870 1826756233 -1104350200 -2085947809 -1697920166 1895288307 1307052611 915965775 -2106506014 501342653 107801710 386604593 2145073305 -1442930095 -134749168 897592939 881699523 -973829107 -663671842 -31726132 -532233368 1047309022 -1299956738 -1921390369
REM
CELL 1.54180   50.00000   50.00000   50.00000   90.00000   90.00000   90.00000
LATT -1
SFAC C  
C      1  0.5091420000000  0.5711650000000  0.5310870000000 1.0
C      1  0.5191080000000  0.4331600000000  0.4737070000000 1.0
C      1  0.4802370000000  0.5683910000000  0.5270040000000 1.0
C      1  0.4905100000000  0.4332860000000  0.4679200000000 1.0
C      1  0.5229180000000  0.4274700000000  0.5016720000000 1.0
C      1  0.5192230000000  0.5495240000000  0.5123430000000 1.0
C      1  0.4795770000000  0.4546280000000  0.4864790000000 1.0
C      1  0.4738590000000  0.5729660000000  0.4992070000000 1.0
C      1  0.5107390000000  0.4464150000000  0.5190780000000 1.0
C      1  0.5135860000000  0.5513600000000  0.4850200000000 1.0
C      1  0.4842520000000  0.4523480000000  0.5138290000000 1.0
C      1  0.4867690000000  0.5559760000000  0.4803530000000 1.0
C      1  0.4438310000000  0.5328080000000  0.5371240000000 1.0
C      1  0.4494180000000  0.4586330000000  0.4588750000000 1.0
C      1  0.5522800000000  0.5469120000000  0.5346610000000 1.0
C      1  0.5597310000000  0.4666440000000  0.4656490000000 1.0
C      1  0.5205120000000  0.4997930000000  0.5705010000000 1.0
C      1  0.5275090000000  0.4999170000000  0.4210470000000 1.0
C      1  0.4739620000000  0.4977900000000  0.5787660000000 1.0
C      1  0.4816390000000  0.4965810000000  0.4300920000000 1.0
C      1  0.4089290000000  0.5112780000000  0.5123860000000 1.0
C      1  0.4090500000000  0.4862340000000  0.5169600000000 1.0
C      1  0.5723260000000  0.5164490000000  0.4980120000000 1.0
C      1  0.5879290000000  0.4933410000000  0.4940010000000 1.0
C      1  0.4375540000000  0.4903310000000  0.4548340000000 1.0
C      1  0.4354600000000  0.5128240000000  0.5561060000000 1.0
C      1  0.5666000000000  0.4864890000000  0.4450890000000 1.0
C      1  0.5634520000000  0.4995640000000  0.5490190000000 1.0
C      1  0.4494660000000  0.5114100000000  0.5811080000000 1.0
C      1  0.4572700000000  0.4849800000000  0.4297280000000 1.0
C      1  0.5477300000000  0.5064170000000  0.5717250000000 1.0
C      1  0.5521620000000  0.4865080000000  0.4198640000000 1.0
C      1  0.5444270000000  0.4573730000000  0.5602080000000 1.0
C      1  0.5508120000000  0.5307120000000  0.4308040000000 1.0
C      1  0.4500080000000  0.4692990000000  0.5641610000000 1.0
C      1  0.4511540000000  0.5332300000000  0.4352750000000 1.0
C      1  0.5173960000000  0.5284170000000  0.4367240000000 1.0
C      1  0.5151940000000  0.4719210000000  0.5582660000000 1.0
C      1  0.4834290000000  0.5268590000000  0.4375180000000 1.0
C      1  0.4831680000000  0.4711640000000  0.5596490000000 1.0
C      1  0.5257700000000  0.5021350000000  0.4817760000000 1.0
C      1  0.5304810000000  0.5004420000000  0.5120270000000 1.0
C      1  0.4696970000000  0.5046070000000  0.4862180000000 1.0
C      1  0.4671390000000  0.5059870000000  0.5188010000000 1.0
C      1  0.5666950000000  0.5156500000000  0.4498570000000 1.0
C      1  0.5635780000000  0.4714920000000  0.5438470000000 1.0
C      1  0.4366140000000  0.5206810000000  0.4549930000000 1.0
C      1  0.4354040000000  0.4855190000000  0.5469410000000 1.0
C      1  0.5275180000000  0.5307590000000  0.4688440000000 1.0
C      1  0.5276350000000  0.4707760000000  0.5265180000000 1.0
C      1  0.4721780000000  0.5324260000000  0.4691670000000 1.0
C      1  0.4692850000000  0.4737700000000  0.5294960000000 1.0
C      1  0.4384430000000  0.4740620000000  0.5150690000000 1.0
C      1  0.4410610000000  0.5321090000000  0.4818780000000 1.0
C      1  0.5589890000000  0.4642440000000  0.5150720000000 1.0
C      1  0.5588880000000  0.5249520000000  0.4758510000000 1.0
C      1  0.4470570000000  0.4792480000000  0.4855410000000 1.0
C      1  0.4366190000000  0.5239450000000  0.5092030000000 1.0
C      1  0.5722930000000  0.4697670000000  0.4914020000000 1.0
C      1  0.5569520000000  0.5174900000000  0.5248640000000 1.0
C      1  0.5325860000000  0.4570170000000  0.4654750000000 1.0
C      1  0.5356510000000  0.5664320000000  0.5445970000000 1.0
C      1  0.4640200000000  0.4368430000000  0.4542520000000 1.0
C      1  0.4693440000000  0.5443520000000  0.5377020000000 1.0
C      1  0.4900650000000  0.5211440000000  0.5386730000000 1.0
C      1  0.4861070000000  0.4797690000000  0.4770800000000 1.0
C      1  0.5153160000000  0.5244500000000  0.5237010000000 1.0
C      1  0.5132270000000  0.4807300000000  0.4636310000000 1.0
C      1  0.5066180000000  0.4861420000000  0.4347940000000 1.0
C      1  0.4959320000000  0.5124930000000  0.5668740000000 1.0
END
