TITL C-3289327-5623-325 0.000420972000534216 125000 -660.06504086394 0 0 122 (C1) n - 1
REM
REM in /nfs/bkarasulu/CARBON/AIRSS/Generating-Clusters/AIREBO/with-SteepDescent/Higher-Symm/SD-CG/HFTN-CG
REM
REM
REM
REM
REM
REM ./C.cell (b20cbc046b6831c77cfcea5457e17084)
REM
REM compiler GCC version 9.2.1 20190827 (Red Hat 9.2.1-1)
REM options -cpp -mtune=generic -march=x86-64 -g -O0 -fpre-include=/usr/include/finclude/math-vector-fortran.h
REM seed -1765045300 987340607 -347165272 229806967 895708495 620183163 150111750 514333394 1071243636 258570282 -1575585444 318741007 -856503255 -188136663 2071322819 2002107673 526662134 -67059269 -1375544503 -948223897 436514048 34109368 -2012592838 673969954 -1246352278 1547942739 1994598396 978269448 -355421369 1578683354 -1662912792 843578972 -1083198457
REM
CELL 1.54180   50.00000   50.00000   50.00000   90.00000   90.00000   90.00000
LATT -1
SFAC C  
C      1  0.5750160000000  0.4289460000000  0.5214890000000 1.0
C      1  0.4837670000000  0.4174260000000  0.4317950000000 1.0
C      1  0.4501600000000  0.4247810000000  0.5523790000000 1.0
C      1  0.5331450000000  0.4279580000000  0.5014810000000 1.0
C      1  0.4917650000000  0.4343730000000  0.4770200000000 1.0
C      1  0.4900430000000  0.4409130000000  0.5232450000000 1.0
C      1  0.5002370000000  0.3839790000000  0.5011140000000 1.0
C      1  0.4731690000000  0.4048570000000  0.4961040000000 1.0
C      1  0.4877320000000  0.4017890000000  0.5279870000000 1.0
C      1  0.5680060000000  0.4902660000000  0.4722880000000 1.0
C      1  0.4552080000000  0.4933680000000  0.4508790000000 1.0
C      1  0.4837410000000  0.4978430000000  0.5575260000000 1.0
C      1  0.5539240000000  0.5539020000000  0.5383470000000 1.0
C      1  0.4948420000000  0.5385370000000  0.4529290000000 1.0
C      1  0.4507670000000  0.5523290000000  0.5171940000000 1.0
C      1  0.5245960000000  0.5599010000000  0.5489750000000 1.0
C      1  0.5213520000000  0.5559530000000  0.4634040000000 1.0
C      1  0.4370860000000  0.5614290000000  0.4904510000000 1.0
C      1  0.4215190000000  0.4618600000000  0.4732280000000 1.0
C      1  0.5120720000000  0.4595480000000  0.5824780000000 1.0
C      1  0.5626580000000  0.4667830000000  0.4342560000000 1.0
C      1  0.5715980000000  0.4896200000000  0.4215550000000 1.0
C      1  0.4002680000000  0.4785000000000  0.4700340000000 1.0
C      1  0.5176100000000  0.4815500000000  0.6021200000000 1.0
C      1  0.5346800000000  0.4583090000000  0.4862210000000 1.0
C      1  0.4758660000000  0.4600130000000  0.4875540000000 1.0
C      1  0.5092490000000  0.4629410000000  0.5285790000000 1.0
C      1  0.5080100000000  0.5414070000000  0.6259640000000 1.0
C      1  0.5662130000000  0.5535240000000  0.3994850000000 1.0
C      1  0.3861790000000  0.5645630000000  0.4618610000000 1.0
C      1  0.4764750000000  0.5356260000000  0.4305850000000 1.0
C      1  0.4353650000000  0.5631300000000  0.5440940000000 1.0
C      1  0.5862500000000  0.5476260000000  0.5426650000000 1.0
C      1  0.5643280000000  0.5407450000000  0.4820100000000 1.0
C      1  0.4463650000000  0.5468840000000  0.4543790000000 1.0
C      1  0.4738430000000  0.5483880000000  0.5903430000000 1.0
C      1  0.4931530000000  0.5267180000000  0.5728140000000 1.0
C      1  0.5686470000000  0.5189270000000  0.4636950000000 1.0
C      1  0.4330710000000  0.5188590000000  0.4550440000000 1.0
C      1  0.5211260000000  0.5154230000000  0.4916390000000 1.0
C      1  0.4724480000000  0.5197380000000  0.4922700000000 1.0
C      1  0.5101120000000  0.5188320000000  0.5296220000000 1.0
C      1  0.4459110000000  0.4517470000000  0.4261940000000 1.0
C      1  0.4589090000000  0.4643640000000  0.5818810000000 1.0
C      1  0.6017030000000  0.4571610000000  0.4814330000000 1.0
C      1  0.5127080000000  0.4706830000000  0.4391100000000 1.0
C      1  0.4456560000000  0.4747470000000  0.5149970000000 1.0
C      1  0.5433570000000  0.4651650000000  0.5547800000000 1.0
C      1  0.4727510000000  0.4783500000000  0.5319070000000 1.0
C      1  0.5639780000000  0.4795780000000  0.5028100000000 1.0
C      1  0.4837230000000  0.4748380000000  0.4519330000000 1.0
C      1  0.5072980000000  0.5123310000000  0.4632410000000 1.0
C      1  0.4503610000000  0.5200800000000  0.5171290000000 1.0
C      1  0.5402230000000  0.5228790000000  0.5408690000000 1.0
C      1  0.5120410000000  0.5351340000000  0.5995180000000 1.0
C      1  0.5550480000000  0.5456340000000  0.4231310000000 1.0
C      1  0.4044540000000  0.5361460000000  0.4602740000000 1.0
C      1  0.5712240000000  0.5193890000000  0.5298920000000 1.0
C      1  0.4700100000000  0.5094560000000  0.4248330000000 1.0
C      1  0.4580100000000  0.5182840000000  0.5487400000000 1.0
C      1  0.4930660000000  0.5933080000000  0.4859750000000 1.0
C      1  0.4890190000000  0.5891890000000  0.5186210000000 1.0
C      1  0.5197600000000  0.5929340000000  0.5060250000000 1.0
C      1  0.5304990000000  0.4863290000000  0.5023830000000 1.0
C      1  0.4876940000000  0.4913210000000  0.4814550000000 1.0
C      1  0.4987020000000  0.4907090000000  0.5136560000000 1.0
C      1  0.5037420000000  0.4256000000000  0.4509810000000 1.0
C      1  0.4588260000000  0.4292160000000  0.5249220000000 1.0
C      1  0.5484030000000  0.4251280000000  0.5281560000000 1.0
C      1  0.5313270000000  0.5640400000000  0.5155580000000 1.0
C      1  0.4917470000000  0.5656900000000  0.4725770000000 1.0
C      1  0.4804130000000  0.5590430000000  0.5188540000000 1.0
C      1  0.4343820000000  0.5077810000000  0.4934500000000 1.0
C      1  0.5326970000000  0.5065570000000  0.5653160000000 1.0
C      1  0.5328970000000  0.5064520000000  0.4475030000000 1.0
C      1  0.4594190000000  0.5589410000000  0.4257930000000 1.0
C      1  0.4584810000000  0.5461310000000  0.5601830000000 1.0
C      1  0.5805760000000  0.5450880000000  0.5098940000000 1.0
C      1  0.4229440000000  0.4858260000000  0.5295610000000 1.0
C      1  0.5687980000000  0.4728620000000  0.5526720000000 1.0
C      1  0.5089770000000  0.4785660000000  0.4110170000000 1.0
C      1  0.5403760000000  0.4764650000000  0.4580380000000 1.0
C      1  0.4490350000000  0.4800200000000  0.4815570000000 1.0
C      1  0.5136440000000  0.4816180000000  0.5566520000000 1.0
C      1  0.5251720000000  0.5077210000000  0.5927620000000 1.0
C      1  0.5596110000000  0.5183930000000  0.4337130000000 1.0
C      1  0.4079520000000  0.5079220000000  0.4753200000000 1.0
C      1  0.5560220000000  0.4340550000000  0.4761700000000 1.0
C      1  0.4592460000000  0.4257160000000  0.4729340000000 1.0
C      1  0.4897910000000  0.4256390000000  0.5523730000000 1.0
C      1  0.4134550000000  0.5625500000000  0.4778390000000 1.0
C      1  0.5208010000000  0.5584320000000  0.5782890000000 1.0
C      1  0.5407990000000  0.5609970000000  0.4402160000000 1.0
C      1  0.4837000000000  0.4964520000000  0.4052030000000 1.0
C      1  0.4299960000000  0.5064230000000  0.5512880000000 1.0
C      1  0.5774130000000  0.4914560000000  0.5265960000000 1.0
C      1  0.4417130000000  0.4448150000000  0.5104400000000 1.0
C      1  0.5376800000000  0.4368960000000  0.5514690000000 1.0
C      1  0.5237830000000  0.4417220000000  0.4420700000000 1.0
C      1  0.5662020000000  0.5716650000000  0.4959920000000 1.0
C      1  0.4586230000000  0.5787130000000  0.4504400000000 1.0
C      1  0.4812000000000  0.5709560000000  0.5624940000000 1.0
C      1  0.4366500000000  0.4750100000000  0.4301750000000 1.0
C      1  0.4684430000000  0.4876250000000  0.5852480000000 1.0
C      1  0.5964950000000  0.4772440000000  0.4665980000000 1.0
C      1  0.5050950000000  0.4902140000000  0.3812700000000 1.0
C      1  0.3987040000000  0.5010490000000  0.5447470000000 1.0
C      1  0.5991030000000  0.4803980000000  0.5503380000000 1.0
C      1  0.4692280000000  0.5979120000000  0.4652010000000 1.0
C      1  0.4838430000000  0.5948740000000  0.5467420000000 1.0
C      1  0.5513520000000  0.5939750000000  0.4983480000000 1.0
C      1  0.4691600000000  0.4528550000000  0.5551020000000 1.0
C      1  0.5764710000000  0.4484480000000  0.4972040000000 1.0
C      1  0.4688030000000  0.4444240000000  0.4460510000000 1.0
C      1  0.4957850000000  0.5451530000000  0.5458130000000 1.0
C      1  0.5341750000000  0.5453720000000  0.4902580000000 1.0
C      1  0.4664880000000  0.5484600000000  0.4793270000000 1.0
C      1  0.5144960000000  0.4336990000000  0.5683560000000 1.0
C      1  0.5514920000000  0.4402140000000  0.4457550000000 1.0
C      1  0.4354890000000  0.4392040000000  0.4846510000000 1.0
C      1  0.4978030000000  0.5366340000000  0.5043790000000 1.0
C      1  0.5039420000000  0.4177540000000  0.5027000000000 1.0
END
