TITL C-3289322-3858-560 4.65993490121061e-05 125000 -1081.20673995925 0 0 200 (C1) n - 1
REM
REM in /nfs/bkarasulu/CARBON/AIRSS/Generating-Clusters/AIREBO/with-SteepDescent/Higher-Symm/SD-CG/HFTN-CG
REM
REM
REM
REM
REM
REM ./C.cell (b20cbc046b6831c77cfcea5457e17084)
REM
REM compiler GCC version 9.2.1 20190827 (Red Hat 9.2.1-1)
REM options -cpp -mtune=generic -march=x86-64 -g -O0 -fpre-include=/usr/include/finclude/math-vector-fortran.h
REM seed -1476683777 1627893343 397782619 1587630908 2066108190 1329819820 968092887 -1678743276 737672647 778182799 -855647632 -982192230 -1601445149 -1834015696 1688845421 442955957 92388109 -1286238047 -964197362 1902123950 -1490093847 -317432994 -1180815750 -1974907725 -870193268 1295612661 -1547128386 -1963541158 -1602081528 -2053302911 1629972572 1345280364 1849769749
REM
CELL 1.54180   50.00000   50.00000   50.00000   90.00000   90.00000   90.00000
LATT -1
SFAC C  
C      1  0.4558340000000  0.5204060000000  0.6146160000000 1.0
C      1  0.5779580000000  0.4834770000000  0.5910920000000 1.0
C      1  0.6175060000000  0.5149810000000  0.4806610000000 1.0
C      1  0.5368540000000  0.4863950000000  0.3926440000000 1.0
C      1  0.4220710000000  0.5151780000000  0.4063850000000 1.0
C      1  0.3848240000000  0.4843200000000  0.5171390000000 1.0
C      1  0.5693910000000  0.4480700000000  0.5054430000000 1.0
C      1  0.5380680000000  0.5532610000000  0.4432350000000 1.0
C      1  0.4677940000000  0.4442410000000  0.4385940000000 1.0
C      1  0.4361200000000  0.5491650000000  0.4961030000000 1.0
C      1  0.4626550000000  0.4500000000000  0.5544070000000 1.0
C      1  0.5324310000000  0.5530380000000  0.5630860000000 1.0
C      1  0.4554190000000  0.4461050000000  0.5213930000000 1.0
C      1  0.4992460000000  0.5572040000000  0.5541210000000 1.0
C      1  0.5452860000000  0.4484490000000  0.5292210000000 1.0
C      1  0.5447580000000  0.5549970000000  0.4765470000000 1.0
C      1  0.4961640000000  0.4523000000000  0.4537550000000 1.0
C      1  0.4557530000000  0.5589300000000  0.4701180000000 1.0
C      1  0.4705920000000  0.3956830000000  0.4414350000000 1.0
C      1  0.4321350000000  0.5985050000000  0.5015820000000 1.0
C      1  0.4642820000000  0.4019370000000  0.5574640000000 1.0
C      1  0.5340060000000  0.6009970000000  0.5622080000000 1.0
C      1  0.5687230000000  0.4017780000000  0.4996730000000 1.0
C      1  0.5402030000000  0.5998470000000  0.4389560000000 1.0
C      1  0.5411600000000  0.4100270000000  0.4851360000000 1.0
C      1  0.5114630000000  0.5950390000000  0.4521530000000 1.0
C      1  0.4726740000000  0.3991850000000  0.4680220000000 1.0
C      1  0.4619120000000  0.5950290000000  0.5118610000000 1.0
C      1  0.4919260000000  0.4066610000000  0.5424670000000 1.0
C      1  0.5359030000000  0.5933780000000  0.5311240000000 1.0
C      1  0.4419090000000  0.4401260000000  0.4578750000000 1.0
C      1  0.4450230000000  0.5523440000000  0.5252430000000 1.0
C      1  0.4928990000000  0.4469610000000  0.5693290000000 1.0
C      1  0.5558230000000  0.5615390000000  0.5449570000000 1.0
C      1  0.5600610000000  0.4442340000000  0.4772440000000 1.0
C      1  0.5109210000000  0.5606720000000  0.4319260000000 1.0
C      1  0.5251510000000  0.4624670000000  0.6174680000000 1.0
C      1  0.6159120000000  0.5201240000000  0.5528440000000 1.0
C      1  0.5993210000000  0.4797450000000  0.4306400000000 1.0
C      1  0.4856620000000  0.5187460000000  0.3753910000000 1.0
C      1  0.3842830000000  0.4624010000000  0.4600870000000 1.0
C      1  0.4021330000000  0.5190140000000  0.5701640000000 1.0
C      1  0.4907030000000  0.4690170000000  0.3993750000000 1.0
C      1  0.4013020000000  0.5276400000000  0.4508260000000 1.0
C      1  0.4072610000000  0.4648770000000  0.5531820000000 1.0
C      1  0.5059040000000  0.5247720000000  0.6086020000000 1.0
C      1  0.5969680000000  0.4689710000000  0.5484210000000 1.0
C      1  0.5888700000000  0.5293220000000  0.4427030000000 1.0
C      1  0.4865080000000  0.5465020000000  0.4703620000000 1.0
C      1  0.4697690000000  0.4617910000000  0.4948520000000 1.0
C      1  0.4849790000000  0.5421810000000  0.5271440000000 1.0
C      1  0.5136740000000  0.4566400000000  0.5328490000000 1.0
C      1  0.5311390000000  0.5432390000000  0.5053980000000 1.0
C      1  0.5125350000000  0.4648140000000  0.4805520000000 1.0
C      1  0.4524430000000  0.5278000000000  0.5451600000000 1.0
C      1  0.5133350000000  0.4721260000000  0.5696410000000 1.0
C      1  0.5685180000000  0.5355760000000  0.5270280000000 1.0
C      1  0.5519710000000  0.4737720000000  0.4620790000000 1.0
C      1  0.4899380000000  0.5332960000000  0.4327790000000 1.0
C      1  0.4344540000000  0.4666280000000  0.4735800000000 1.0
C      1  0.4758000000000  0.4920890000000  0.5832860000000 1.0
C      1  0.5625530000000  0.5127250000000  0.5673230000000 1.0
C      1  0.5840100000000  0.4881050000000  0.4812240000000 1.0
C      1  0.5206710000000  0.5120370000000  0.4187200000000 1.0
C      1  0.4383770000000  0.4904880000000  0.4331780000000 1.0
C      1  0.4146580000000  0.5109890000000  0.5200670000000 1.0
C      1  0.4300490000000  0.5739400000000  0.4534300000000 1.0
C      1  0.4260850000000  0.4223920000000  0.5345200000000 1.0
C      1  0.4931040000000  0.5729770000000  0.5836170000000 1.0
C      1  0.5721030000000  0.4219780000000  0.5449900000000 1.0
C      1  0.5766260000000  0.5757420000000  0.4625080000000 1.0
C      1  0.5040680000000  0.4231310000000  0.4191010000000 1.0
C      1  0.4795100000000  0.4379270000000  0.5966330000000 1.0
C      1  0.5815350000000  0.5677470000000  0.5622330000000 1.0
C      1  0.5823500000000  0.4335880000000  0.4580320000000 1.0
C      1  0.5118880000000  0.5663660000000  0.4008900000000 1.0
C      1  0.4232490000000  0.4340720000000  0.4327800000000 1.0
C      1  0.4175640000000  0.5580380000000  0.5392090000000 1.0
C      1  0.4687910000000  0.5719800000000  0.5328110000000 1.0
C      1  0.5121850000000  0.4295800000000  0.5517840000000 1.0
C      1  0.5493500000000  0.5681820000000  0.5140220000000 1.0
C      1  0.5294080000000  0.4387020000000  0.4711390000000 1.0
C      1  0.4865430000000  0.5730130000000  0.4490370000000 1.0
C      1  0.4571410000000  0.4323620000000  0.4839710000000 1.0
C      1  0.5393040000000  0.4593870000000  0.4130960000000 1.0
C      1  0.4391500000000  0.5424360000000  0.4159950000000 1.0
C      1  0.3990900000000  0.4547700000000  0.5081320000000 1.0
C      1  0.4575890000000  0.5454280000000  0.5937790000000 1.0
C      1  0.5633400000000  0.4537720000000  0.5832260000000 1.0
C      1  0.6022530000000  0.5431380000000  0.4915910000000 1.0
C      1  0.4325820000000  0.5107360000000  0.5579270000000 1.0
C      1  0.5185640000000  0.4856040000000  0.5988440000000 1.0
C      1  0.5919340000000  0.5113510000000  0.5223840000000 1.0
C      1  0.5604290000000  0.4887470000000  0.4327180000000 1.0
C      1  0.4728580000000  0.5121820000000  0.4123080000000 1.0
C      1  0.4090850000000  0.4795780000000  0.4577940000000 1.0
C      1  0.5865420000000  0.4721120000000  0.5059520000000 1.0
C      1  0.5441950000000  0.5269380000000  0.4302590000000 1.0
C      1  0.4555480000000  0.4663480000000  0.4182310000000 1.0
C      1  0.4181840000000  0.5259180000000  0.4930360000000 1.0
C      1  0.4523660000000  0.4723500000000  0.5778800000000 1.0
C      1  0.5388250000000  0.5288120000000  0.5788550000000 1.0
C      1  0.5397020000000  0.6036250000000  0.4989100000000 1.0
C      1  0.5120620000000  0.4029740000000  0.4733150000000 1.0
C      1  0.4925980000000  0.6025320000000  0.4752680000000 1.0
C      1  0.4652910000000  0.3965670000000  0.4995630000000 1.0
C      1  0.4912890000000  0.6026450000000  0.5206450000000 1.0
C      1  0.5207800000000  0.3978520000000  0.5296420000000 1.0
C      1  0.5098940000000  0.4462680000000  0.4029880000000 1.0
C      1  0.4145200000000  0.5520730000000  0.4373730000000 1.0
C      1  0.4056930000000  0.4418210000000  0.5371000000000 1.0
C      1  0.4886180000000  0.5516670000000  0.6062250000000 1.0
C      1  0.5847950000000  0.4436340000000  0.5598290000000 1.0
C      1  0.5948150000000  0.5535820000000  0.4600980000000 1.0
C      1  0.5246850000000  0.4678150000000  0.4426880000000 1.0
C      1  0.4580560000000  0.5374510000000  0.4438360000000 1.0
C      1  0.4314490000000  0.4649180000000  0.5052480000000 1.0
C      1  0.4742900000000  0.5369680000000  0.5653220000000 1.0
C      1  0.5422850000000  0.4647220000000  0.5592830000000 1.0
C      1  0.5687640000000  0.5376150000000  0.4936660000000 1.0
C      1  0.4284290000000  0.4944710000000  0.5875660000000 1.0
C      1  0.5378690000000  0.5121000000000  0.6084540000000 1.0
C      1  0.6128170000000  0.4843020000000  0.5221690000000 1.0
C      1  0.5722450000000  0.5160110000000  0.4157700000000 1.0
C      1  0.4623960000000  0.4863510000000  0.3915980000000 1.0
C      1  0.3884650000000  0.5192820000000  0.4813100000000 1.0
C      1  0.4638510000000  0.5187570000000  0.5144330000000 1.0
C      1  0.4922170000000  0.4774110000000  0.5434950000000 1.0
C      1  0.5370310000000  0.5231510000000  0.5302160000000 1.0
C      1  0.5375370000000  0.4812950000000  0.4919500000000 1.0
C      1  0.5087980000000  0.5254360000000  0.4599730000000 1.0
C      1  0.4596390000000  0.4864530000000  0.4745690000000 1.0
C      1  0.5368790000000  0.4208760000000  0.5143660000000 1.0
C      1  0.5320300000000  0.5838280000000  0.4746310000000 1.0
C      1  0.4889690000000  0.4278400000000  0.4754300000000 1.0
C      1  0.4687770000000  0.5882920000000  0.4813930000000 1.0
C      1  0.4720100000000  0.4187650000000  0.5221080000000 1.0
C      1  0.5056760000000  0.5864820000000  0.5380670000000 1.0
C      1  0.4794420000000  0.5060920000000  0.6078590000000 1.0
C      1  0.5932370000000  0.4981550000000  0.5654770000000 1.0
C      1  0.6017560000000  0.5024430000000  0.4558480000000 1.0
C      1  0.5064530000000  0.4974790000000  0.3914580000000 1.0
C      1  0.4077220000000  0.5011360000000  0.4311960000000 1.0
C      1  0.3978840000000  0.4956020000000  0.5453410000000 1.0
C      1  0.4253660000000  0.5390140000000  0.5849400000000 1.0
C      1  0.5471870000000  0.4508140000000  0.6129990000000 1.0
C      1  0.6124180000000  0.5368370000000  0.5234390000000 1.0
C      1  0.5728460000000  0.4641650000000  0.4160680000000 1.0
C      1  0.4608450000000  0.5339680000000  0.3912070000000 1.0
C      1  0.3779060000000  0.4524970000000  0.4822630000000 1.0
C      1  0.4899550000000  0.5076900000000  0.5584310000000 1.0
C      1  0.5477300000000  0.4939690000000  0.5440140000000 1.0
C      1  0.5575620000000  0.5073090000000  0.4830600000000 1.0
C      1  0.5054100000000  0.4956030000000  0.4439960000000 1.0
C      1  0.4526290000000  0.5091240000000  0.4538960000000 1.0
C      1  0.4423800000000  0.4931370000000  0.5207950000000 1.0
C      1  0.4572940000000  0.4500460000000  0.6008890000000 1.0
C      1  0.5836670000000  0.5360390000000  0.5576680000000 1.0
C      1  0.5846170000000  0.4667180000000  0.4556540000000 1.0
C      1  0.5037950000000  0.5357220000000  0.4018150000000 1.0
C      1  0.4290540000000  0.4483990000000  0.4121900000000 1.0
C      1  0.4037140000000  0.5343650000000  0.5411760000000 1.0
C      1  0.5229760000000  0.5800830000000  0.5766600000000 1.0
C      1  0.5766980000000  0.4210270000000  0.5176780000000 1.0
C      1  0.5565540000000  0.5781560000000  0.4435950000000 1.0
C      1  0.4772920000000  0.4183270000000  0.4257720000000 1.0
C      1  0.4239780000000  0.5776580000000  0.4852650000000 1.0
C      1  0.4469470000000  0.4226650000000  0.5530340000000 1.0
C      1  0.5614620000000  0.5130930000000  0.4535620000000 1.0
C      1  0.4816100000000  0.4863460000000  0.4265890000000 1.0
C      1  0.4236350000000  0.5077710000000  0.4670260000000 1.0
C      1  0.4343650000000  0.4797850000000  0.5509750000000 1.0
C      1  0.5127490000000  0.5110950000000  0.5782350000000 1.0
C      1  0.5744340000000  0.4869340000000  0.5316440000000 1.0
C      1  0.4066560000000  0.4228890000000  0.4990390000000 1.0
C      1  0.4533650000000  0.5771280000000  0.5852480000000 1.0
C      1  0.5549580000000  0.4208890000000  0.5809870000000 1.0
C      1  0.5985690000000  0.5765190000000  0.4969160000000 1.0
C      1  0.5437700000000  0.4268810000000  0.4220240000000 1.0
C      1  0.4495670000000  0.5741740000000  0.4127750000000 1.0
C      1  0.6302510000000  0.4985530000000  0.4993290000000 1.0
C      1  0.5593870000000  0.5026750000000  0.3893540000000 1.0
C      1  0.4336990000000  0.4998700000000  0.3864130000000 1.0
C      1  0.3757390000000  0.5020800000000  0.4981120000000 1.0
C      1  0.4316740000000  0.5062300000000  0.6116910000000 1.0
C      1  0.5665950000000  0.4995220000000  0.6111670000000 1.0
C      1  0.5052440000000  0.5148280000000  0.5289060000000 1.0
C      1  0.5238140000000  0.4868480000000  0.5209020000000 1.0
C      1  0.5262580000000  0.5203290000000  0.4835900000000 1.0
C      1  0.4922260000000  0.4892720000000  0.4746920000000 1.0
C      1  0.4809000000000  0.5176380000000  0.4874690000000 1.0
C      1  0.4740930000000  0.4808750000000  0.5207730000000 1.0
C      1  0.5225270000000  0.4191080000000  0.4452140000000 1.0
C      1  0.4593040000000  0.5831110000000  0.4386190000000 1.0
C      1  0.4371860000000  0.4152950000000  0.5036280000000 1.0
C      1  0.4693620000000  0.5825980000000  0.5612550000000 1.0
C      1  0.5403090000000  0.4130500000000  0.5531070000000 1.0
C      1  0.5674120000000  0.5847340000000  0.4929620000000 1.0
C      1  0.5064780000000  0.6094440000000  0.4982940000000 1.0
C      1  0.4991170000000  0.3966900000000  0.5031490000000 1.0
END
