TITL C-3289320-4661-126 -0.00104402335788712 125000 -632.122240327545 0 0 115 (C1) n - 1
REM
REM in /nfs/bkarasulu/CARBON/AIRSS/Generating-Clusters/AIREBO/with-SteepDescent/Higher-Symm/SD-CG/HFTN-CG
REM
REM
REM
REM
REM
REM ./C.cell (b20cbc046b6831c77cfcea5457e17084)
REM
REM compiler GCC version 9.2.1 20190827 (Red Hat 9.2.1-1)
REM options -cpp -mtune=generic -march=x86-64 -g -O0 -fpre-include=/usr/include/finclude/math-vector-fortran.h
REM seed -863766518 346199334 1741498441 1470405272 745602187 -168616043 -1113140320 -1203216418 1120473613 525637023 -1147663685 -487883707 -109661795 441332710 1473475330 -729811118 -445057205 716469619 703140758 -2022290104 -1489315611 164208256 137470644 -889147418 -229531342 1390686229 -1197753666 176282888 -172267219 -1911785177 -1292150087 -947733185 1264516836
REM
CELL 1.54180   50.00000   50.00000   50.00000   90.00000   90.00000   90.00000
LATT -1
SFAC C  
C      1  0.4659390000000  0.5669080000000  0.4455980000000 1.0
C      1  0.5680500000000  0.5710330000000  0.4986530000000 1.0
C      1  0.4643900000000  0.5695400000000  0.5646610000000 1.0
C      1  0.5416500000000  0.4267600000000  0.4459130000000 1.0
C      1  0.4342550000000  0.4337940000000  0.4949870000000 1.0
C      1  0.5306220000000  0.4320100000000  0.5567540000000 1.0
C      1  0.4679840000000  0.4726420000000  0.4298040000000 1.0
C      1  0.5804570000000  0.4740090000000  0.5060420000000 1.0
C      1  0.4534860000000  0.4720930000000  0.5650130000000 1.0
C      1  0.5369640000000  0.5389240000000  0.4258450000000 1.0
C      1  0.4227900000000  0.5286440000000  0.5068000000000 1.0
C      1  0.5480760000000  0.5274660000000  0.5630540000000 1.0
C      1  0.5958880000000  0.5340370000000  0.4883710000000 1.0
C      1  0.4523690000000  0.5303720000000  0.5934150000000 1.0
C      1  0.4482900000000  0.5310800000000  0.4133060000000 1.0
C      1  0.3974270000000  0.4712120000000  0.4967320000000 1.0
C      1  0.5479220000000  0.4692090000000  0.5839710000000 1.0
C      1  0.5497000000000  0.4597770000000  0.4137100000000 1.0
C      1  0.5222180000000  0.4057020000000  0.4463980000000 1.0
C      1  0.5378520000000  0.4137250000000  0.5355760000000 1.0
C      1  0.4515230000000  0.4194280000000  0.5137590000000 1.0
C      1  0.4895900000000  0.5827620000000  0.4524350000000 1.0
C      1  0.4591520000000  0.5865700000000  0.5423630000000 1.0
C      1  0.5528410000000  0.5875600000000  0.5169030000000 1.0
C      1  0.5254150000000  0.4553070000000  0.4370890000000 1.0
C      1  0.5465140000000  0.4615040000000  0.5508780000000 1.0
C      1  0.4263040000000  0.4615440000000  0.5118620000000 1.0
C      1  0.4773460000000  0.5396140000000  0.4287660000000 1.0
C      1  0.4507990000000  0.5399450000000  0.5608200000000 1.0
C      1  0.5729560000000  0.5404260000000  0.5126560000000 1.0
C      1  0.5298980000000  0.4882630000000  0.4446640000000 1.0
C      1  0.5425400000000  0.4951330000000  0.5541130000000 1.0
C      1  0.4297820000000  0.4953540000000  0.5061570000000 1.0
C      1  0.4732540000000  0.5061070000000  0.4329890000000 1.0
C      1  0.4534790000000  0.5058010000000  0.5618960000000 1.0
C      1  0.5752970000000  0.5065560000000  0.5088170000000 1.0
C      1  0.5748110000000  0.4895400000000  0.5513560000000 1.0
C      1  0.4160810000000  0.4910300000000  0.5363810000000 1.0
C      1  0.5132660000000  0.4870340000000  0.4163680000000 1.0
C      1  0.4235860000000  0.5121280000000  0.5524730000000 1.0
C      1  0.5856990000000  0.5125850000000  0.5382570000000 1.0
C      1  0.4984870000000  0.5099750000000  0.4128380000000 1.0
C      1  0.4983660000000  0.5762510000000  0.4775070000000 1.0
C      1  0.5262420000000  0.5799250000000  0.5162740000000 1.0
C      1  0.4759080000000  0.5805210000000  0.5218160000000 1.0
C      1  0.5026840000000  0.4101380000000  0.4668490000000 1.0
C      1  0.4777660000000  0.4251460000000  0.5079130000000 1.0
C      1  0.5250270000000  0.4218570000000  0.5125600000000 1.0
C      1  0.4960370000000  0.4611190000000  0.4209720000000 1.0
C      1  0.5769390000000  0.4629060000000  0.5351860000000 1.0
C      1  0.4283620000000  0.4638760000000  0.5457300000000 1.0
C      1  0.5098450000000  0.5378120000000  0.4170850000000 1.0
C      1  0.4266800000000  0.5383570000000  0.5367950000000 1.0
C      1  0.5721330000000  0.5387370000000  0.5466130000000 1.0
C      1  0.5000900000000  0.4352250000000  0.5563670000000 1.0
C      1  0.4492080000000  0.4332820000000  0.4689260000000 1.0
C      1  0.5583990000000  0.4280580000000  0.4720490000000 1.0
C      1  0.4934890000000  0.5664600000000  0.5652840000000 1.0
C      1  0.5524320000000  0.5696620000000  0.4717460000000 1.0
C      1  0.4507470000000  0.5666960000000  0.4727630000000 1.0
C      1  0.5138310000000  0.5059720000000  0.5416060000000 1.0
C      1  0.4584050000000  0.5023290000000  0.4900970000000 1.0
C      1  0.5243390000000  0.4999220000000  0.4716770000000 1.0
C      1  0.4803750000000  0.4997900000000  0.5424890000000 1.0
C      1  0.5492420000000  0.5023780000000  0.4946960000000 1.0
C      1  0.4765620000000  0.4933620000000  0.4627500000000 1.0
C      1  0.5262700000000  0.5138890000000  0.5853300000000 1.0
C      1  0.4084970000000  0.5153940000000  0.4789220000000 1.0
C      1  0.5510200000000  0.5081790000000  0.4287210000000 1.0
C      1  0.4725050000000  0.4851270000000  0.5900500000000 1.0
C      1  0.5870730000000  0.4874120000000  0.4754890000000 1.0
C      1  0.4375640000000  0.4875240000000  0.4329220000000 1.0
C      1  0.5207460000000  0.5471200000000  0.5647100000000 1.0
C      1  0.4291400000000  0.5493480000000  0.4805590000000 1.0
C      1  0.5541180000000  0.5569540000000  0.4470520000000 1.0
C      1  0.4805100000000  0.4519340000000  0.5697570000000 1.0
C      1  0.5758480000000  0.4502530000000  0.4820070000000 1.0
C      1  0.4466560000000  0.4519930000000  0.4467330000000 1.0
C      1  0.4680580000000  0.5347470000000  0.4935520000000 1.0
C      1  0.5148960000000  0.5325750000000  0.4725040000000 1.0
C      1  0.5220640000000  0.5351590000000  0.5331060000000 1.0
C      1  0.5376600000000  0.4748720000000  0.4997840000000 1.0
C      1  0.4790350000000  0.4599030000000  0.4693370000000 1.0
C      1  0.4824620000000  0.4700890000000  0.5297940000000 1.0
C      1  0.4843770000000  0.5387960000000  0.5195560000000 1.0
C      1  0.4887930000000  0.5320200000000  0.4598680000000 1.0
C      1  0.5392280000000  0.5384070000000  0.5088030000000 1.0
C      1  0.5257610000000  0.4650560000000  0.5241720000000 1.0
C      1  0.5111470000000  0.4490680000000  0.4673130000000 1.0
C      1  0.4594720000000  0.4690160000000  0.5125100000000 1.0
C      1  0.5659680000000  0.5266200000000  0.4500730000000 1.0
C      1  0.4970090000000  0.5273810000000  0.5789780000000 1.0
C      1  0.4242620000000  0.5293920000000  0.4551300000000 1.0
C      1  0.4268740000000  0.4748920000000  0.4606270000000 1.0
C      1  0.5006660000000  0.4721190000000  0.5849410000000 1.0
C      1  0.5671440000000  0.4703230000000  0.4567250000000 1.0
C      1  0.5879420000000  0.5153790000000  0.4697670000000 1.0
C      1  0.4747650000000  0.5134210000000  0.5952430000000 1.0
C      1  0.4330250000000  0.5149090000000  0.4294970000000 1.0
C      1  0.4040820000000  0.4874150000000  0.4749770000000 1.0
C      1  0.5270000000000  0.4861690000000  0.5904220000000 1.0
C      1  0.5651260000000  0.4794170000000  0.4283710000000 1.0
C      1  0.5249410000000  0.5611570000000  0.4879490000000 1.0
C      1  0.5033270000000  0.5637080000000  0.5328520000000 1.0
C      1  0.4739130000000  0.5682720000000  0.4947290000000 1.0
C      1  0.4796810000000  0.4266020000000  0.4764580000000 1.0
C      1  0.5007640000000  0.4420020000000  0.5241030000000 1.0
C      1  0.5277380000000  0.4240400000000  0.4832810000000 1.0
C      1  0.4576240000000  0.5290790000000  0.4616810000000 1.0
C      1  0.5488710000000  0.5302990000000  0.4772180000000 1.0
C      1  0.4819730000000  0.5311710000000  0.5504540000000 1.0
C      1  0.5388490000000  0.4627610000000  0.4739990000000 1.0
C      1  0.4503520000000  0.4710740000000  0.4815490000000 1.0
C      1  0.5086290000000  0.4740570000000  0.5521290000000 1.0
C      1  0.4975850000000  0.4982320000000  0.4831870000000 1.0
END
