TITL C-3289323-3850-623 0.000508603802107954 125000 -685.592119795482 0 0 126 (C1) n - 1
REM
REM in /nfs/bkarasulu/CARBON/AIRSS/Generating-Clusters/AIREBO/with-SteepDescent/Higher-Symm/SD-CG/HFTN-CG
REM
REM
REM
REM
REM
REM ./C.cell (b20cbc046b6831c77cfcea5457e17084)
REM
REM compiler GCC version 9.2.1 20190827 (Red Hat 9.2.1-1)
REM options -cpp -mtune=generic -march=x86-64 -g -O0 -fpre-include=/usr/include/finclude/math-vector-fortran.h
REM seed -1711552377 849140089 1166412694 2003218804 28010672 -1433508910 506699849 -298965163 -509555054 -1784264436 946584936 -1584955471 -917706966 -1610336857 -478764565 391538389 198592849 -148868158 12532490 -1014862229 -1815078229 -1897885529 -1127064482 1710144176 487875296 1450562212 -1503880549 480459142 1332592085 1212472517 51714311 1718006336 -753648554
REM
CELL 1.54180   50.00000   50.00000   50.00000   90.00000   90.00000   90.00000
LATT -1
SFAC C  
C      1  0.4258730000000  0.4557590000000  0.4408250000000 1.0
C      1  0.5773900000000  0.4732070000000  0.5497610000000 1.0
C      1  0.5688630000000  0.5358570000000  0.4515820000000 1.0
C      1  0.4253900000000  0.5357890000000  0.5552660000000 1.0
C      1  0.4421330000000  0.4540050000000  0.4165310000000 1.0
C      1  0.5586490000000  0.4713490000000  0.5781460000000 1.0
C      1  0.4554680000000  0.5370460000000  0.5711250000000 1.0
C      1  0.5543780000000  0.5335840000000  0.4233700000000 1.0
C      1  0.4421940000000  0.4540230000000  0.5678220000000 1.0
C      1  0.5421780000000  0.4494750000000  0.4257030000000 1.0
C      1  0.5585200000000  0.5420160000000  0.5767780000000 1.0
C      1  0.4517850000000  0.5346190000000  0.4227660000000 1.0
C      1  0.5595530000000  0.4640920000000  0.4408890000000 1.0
C      1  0.4314590000000  0.4714890000000  0.5491410000000 1.0
C      1  0.5718100000000  0.5554930000000  0.5565650000000 1.0
C      1  0.4303570000000  0.5463230000000  0.4456670000000 1.0
C      1  0.4782020000000  0.4308370000000  0.4432450000000 1.0
C      1  0.5286990000000  0.4220120000000  0.5612150000000 1.0
C      1  0.5170830000000  0.5765400000000  0.4376910000000 1.0
C      1  0.4749630000000  0.5809130000000  0.5390990000000 1.0
C      1  0.4613430000000  0.4289930000000  0.4661290000000 1.0
C      1  0.5422150000000  0.4254320000000  0.5377230000000 1.0
C      1  0.4524170000000  0.5740200000000  0.5167080000000 1.0
C      1  0.5307310000000  0.5795650000000  0.4670980000000 1.0
C      1  0.5232940000000  0.5704130000000  0.5513640000000 1.0
C      1  0.4633600000000  0.5626290000000  0.4361020000000 1.0
C      1  0.4571200000000  0.4308800000000  0.5549550000000 1.0
C      1  0.5338020000000  0.4219660000000  0.4403320000000 1.0
C      1  0.5504260000000  0.5672670000000  0.5374290000000 1.0
C      1  0.4461520000000  0.5664420000000  0.4653480000000 1.0
C      1  0.5510800000000  0.4182830000000  0.4683360000000 1.0
C      1  0.4437510000000  0.4223000000000  0.5273540000000 1.0
C      1  0.5078550000000  0.4369200000000  0.5736430000000 1.0
C      1  0.5063590000000  0.4420150000000  0.4413100000000 1.0
C      1  0.5093260000000  0.5416380000000  0.5902480000000 1.0
C      1  0.4952760000000  0.5538170000000  0.4283340000000 1.0
C      1  0.5635260000000  0.4420180000000  0.4761790000000 1.0
C      1  0.4363960000000  0.4451500000000  0.5129710000000 1.0
C      1  0.5778250000000  0.5466700000000  0.5014760000000 1.0
C      1  0.4467230000000  0.5531500000000  0.4941080000000 1.0
C      1  0.4235990000000  0.5148140000000  0.5314060000000 1.0
C      1  0.5758070000000  0.5122680000000  0.4647970000000 1.0
C      1  0.5926620000000  0.4879730000000  0.5314140000000 1.0
C      1  0.4254870000000  0.4847400000000  0.4459080000000 1.0
C      1  0.5325830000000  0.5135000000000  0.4223550000000 1.0
C      1  0.4682830000000  0.5112150000000  0.5761930000000 1.0
C      1  0.5313150000000  0.4776920000000  0.5910830000000 1.0
C      1  0.4470900000000  0.4957320000000  0.4297270000000 1.0
C      1  0.4627100000000  0.5238750000000  0.3964250000000 1.0
C      1  0.5382400000000  0.5380500000000  0.5991810000000 1.0
C      1  0.5239780000000  0.4634010000000  0.4105860000000 1.0
C      1  0.4554740000000  0.4647750000000  0.5891460000000 1.0
C      1  0.4046270000000  0.5330620000000  0.4543250000000 1.0
C      1  0.5918260000000  0.5416350000000  0.5437440000000 1.0
C      1  0.4180950000000  0.4645480000000  0.5223800000000 1.0
C      1  0.5824260000000  0.4579570000000  0.4606170000000 1.0
C      1  0.4407650000000  0.4485520000000  0.4646830000000 1.0
C      1  0.5595600000000  0.4525710000000  0.5323490000000 1.0
C      1  0.5497510000000  0.5541280000000  0.4704060000000 1.0
C      1  0.4465170000000  0.5470480000000  0.5336340000000 1.0
C      1  0.4720850000000  0.4590120000000  0.4299760000000 1.0
C      1  0.5400310000000  0.4607640000000  0.5560380000000 1.0
C      1  0.4748370000000  0.5599790000000  0.5586420000000 1.0
C      1  0.5316110000000  0.5472790000000  0.4436070000000 1.0
C      1  0.5110360000000  0.5945330000000  0.5494830000000 1.0
C      1  0.4796730000000  0.5853420000000  0.4484850000000 1.0
C      1  0.4807190000000  0.4091350000000  0.5437100000000 1.0
C      1  0.5122700000000  0.4100620000000  0.4638000000000 1.0
C      1  0.5362630000000  0.5897910000000  0.5188670000000 1.0
C      1  0.4534410000000  0.5924200000000  0.4785260000000 1.0
C      1  0.5406240000000  0.4071150000000  0.4916420000000 1.0
C      1  0.4593990000000  0.4064060000000  0.5100440000000 1.0
C      1  0.5116910000000  0.5445430000000  0.5592540000000 1.0
C      1  0.4915930000000  0.5491210000000  0.4609710000000 1.0
C      1  0.4862180000000  0.4481070000000  0.5499160000000 1.0
C      1  0.5070440000000  0.4636580000000  0.4672580000000 1.0
C      1  0.5527810000000  0.5414200000000  0.5206430000000 1.0
C      1  0.4664050000000  0.5293340000000  0.4970240000000 1.0
C      1  0.5434840000000  0.4592740000000  0.4966850000000 1.0
C      1  0.4644750000000  0.4626160000000  0.5050570000000 1.0
C      1  0.5261990000000  0.4324110000000  0.5092030000000 1.0
C      1  0.4764230000000  0.4321380000000  0.4957480000000 1.0
C      1  0.4752710000000  0.5913980000000  0.5006280000000 1.0
C      1  0.5145470000000  0.5877570000000  0.4944520000000 1.0
C      1  0.4955310000000  0.4286150000000  0.5236520000000 1.0
C      1  0.5063430000000  0.4328270000000  0.4816050000000 1.0
C      1  0.4903360000000  0.5773890000000  0.4750510000000 1.0
C      1  0.4976070000000  0.5993930000000  0.5216350000000 1.0
C      1  0.5036110000000  0.5279280000000  0.4156280000000 1.0
C      1  0.4936560000000  0.5156510000000  0.5940620000000 1.0
C      1  0.4624010000000  0.4788080000000  0.4045190000000 1.0
C      1  0.5080970000000  0.4634380000000  0.5859210000000 1.0
C      1  0.4236720000000  0.5316930000000  0.5049280000000 1.0
C      1  0.5868780000000  0.5205520000000  0.4930030000000 1.0
C      1  0.4188800000000  0.4929440000000  0.4725770000000 1.0
C      1  0.5990500000000  0.4783480000000  0.5061490000000 1.0
C      1  0.5225640000000  0.4906400000000  0.4535550000000 1.0
C      1  0.4779520000000  0.4809330000000  0.5465320000000 1.0
C      1  0.4722210000000  0.5247300000000  0.4473190000000 1.0
C      1  0.5360550000000  0.5216150000000  0.5629460000000 1.0
C      1  0.4514400000000  0.4861840000000  0.5258730000000 1.0
C      1  0.5501880000000  0.4791860000000  0.4698870000000 1.0
C      1  0.4597610000000  0.5077930000000  0.4726280000000 1.0
C      1  0.5516430000000  0.5108060000000  0.5347480000000 1.0
C      1  0.5262900000000  0.5058520000000  0.5905460000000 1.0
C      1  0.4784680000000  0.5049590000000  0.4203580000000 1.0
C      1  0.4818310000000  0.4802680000000  0.5803830000000 1.0
C      1  0.5086250000000  0.4893730000000  0.4225280000000 1.0
C      1  0.5834390000000  0.5165040000000  0.5268550000000 1.0
C      1  0.4292310000000  0.5225450000000  0.4753050000000 1.0
C      1  0.5828670000000  0.4834340000000  0.4796040000000 1.0
C      1  0.4238130000000  0.4918480000000  0.5063110000000 1.0
C      1  0.5399150000000  0.5376580000000  0.4930780000000 1.0
C      1  0.4622910000000  0.5185020000000  0.5261880000000 1.0
C      1  0.4538290000000  0.4745860000000  0.4769910000000 1.0
C      1  0.5447560000000  0.4815360000000  0.5223600000000 1.0
C      1  0.4856560000000  0.5325530000000  0.5454690000000 1.0
C      1  0.5129480000000  0.5232860000000  0.4552430000000 1.0
C      1  0.4783900000000  0.4771720000000  0.4549100000000 1.0
C      1  0.5150180000000  0.4642040000000  0.5454140000000 1.0
C      1  0.4987230000000  0.5049810000000  0.5344360000000 1.0
C      1  0.5163730000000  0.5211870000000  0.4866230000000 1.0
C      1  0.4920470000000  0.4988020000000  0.4784000000000 1.0
C      1  0.5124590000000  0.4811260000000  0.5204460000000 1.0
C      1  0.4964060000000  0.5248130000000  0.5081450000000 1.0
C      1  0.4958960000000  0.4734890000000  0.4978430000000 1.0
END
