TITL C-3289329-2751-130 0.000857484153734508 125000 -390.529320312724 0 0 70 (C1) n - 1
REM
REM in /nfs/bkarasulu/CARBON/AIRSS/Generating-Clusters/AIREBO/with-SteepDescent/Higher-Symm/SD-CG/HFTN-CG
REM
REM
REM
REM
REM
REM ./C.cell (b20cbc046b6831c77cfcea5457e17084)
REM
REM compiler GCC version 9.2.1 20190827 (Red Hat 9.2.1-1)
REM options -cpp -mtune=generic -march=x86-64 -g -O0 -fpre-include=/usr/include/finclude/math-vector-fortran.h
REM seed 1081463030 -1940432480 -1682913487 -1107657611 1667556977 1891641001 2026530718 -317514143 -898197885 1874376283 -574160112 117526748 -1002075492 1661150246 688190188 2080943814 -159908199 -70867129 -1222811337 -763993622 1913039241 -1041789791 -503817924 -1891537627 1058522425 -564130082 620363811 1029016619 -1093054553 -700209577 -1102288327 -432646008 1576233847
REM
CELL 1.54180   50.00000   50.00000   50.00000   90.00000   90.00000   90.00000
LATT -1
SFAC C  
C      1  0.4516040000000  0.5058710000000  0.5528860000000 1.0
C      1  0.5399890000000  0.4978210000000  0.5503540000000 1.0
C      1  0.5447790000000  0.5007060000000  0.4437820000000 1.0
C      1  0.4481530000000  0.4835150000000  0.4510980000000 1.0
C      1  0.5133600000000  0.5242710000000  0.5640120000000 1.0
C      1  0.4896460000000  0.4741410000000  0.5589840000000 1.0
C      1  0.4887990000000  0.5190510000000  0.4403210000000 1.0
C      1  0.5074070000000  0.4659940000000  0.4423190000000 1.0
C      1  0.4801340000000  0.5308990000000  0.5065130000000 1.0
C      1  0.5107590000000  0.4703990000000  0.5068740000000 1.0
C      1  0.5114180000000  0.5395360000000  0.5067400000000 1.0
C      1  0.4780920000000  0.4744870000000  0.4974450000000 1.0
C      1  0.4593500000000  0.5065030000000  0.4317550000000 1.0
C      1  0.5298040000000  0.4838250000000  0.4240270000000 1.0
C      1  0.5315800000000  0.5019730000000  0.5806080000000 1.0
C      1  0.4641370000000  0.4900570000000  0.5745660000000 1.0
C      1  0.5063300000000  0.4927810000000  0.4053560000000 1.0
C      1  0.4819260000000  0.4952510000000  0.4089540000000 1.0
C      1  0.4883100000000  0.4867920000000  0.5982530000000 1.0
C      1  0.5136520000000  0.4856340000000  0.5988270000000 1.0
C      1  0.4889410000000  0.5489020000000  0.4549280000000 1.0
C      1  0.5083350000000  0.4412290000000  0.4636540000000 1.0
C      1  0.5180350000000  0.5542830000000  0.5523630000000 1.0
C      1  0.4843870000000  0.4465980000000  0.5399180000000 1.0
C      1  0.5962050000000  0.4681690000000  0.4894780000000 1.0
C      1  0.4094560000000  0.5429170000000  0.4830840000000 1.0
C      1  0.4111730000000  0.4701820000000  0.5031070000000 1.0
C      1  0.5853780000000  0.5342020000000  0.5049270000000 1.0
C      1  0.4071910000000  0.4768900000000  0.5328100000000 1.0
C      1  0.5864440000000  0.5274220000000  0.5344990000000 1.0
C      1  0.5834330000000  0.4851280000000  0.4665190000000 1.0
C      1  0.4078760000000  0.5283790000000  0.4567150000000 1.0
C      1  0.4277100000000  0.5073620000000  0.4553520000000 1.0
C      1  0.5716630000000  0.5000080000000  0.4466360000000 1.0
C      1  0.5642160000000  0.5083460000000  0.5412130000000 1.0
C      1  0.4279480000000  0.4980320000000  0.5411450000000 1.0
C      1  0.4632290000000  0.5189990000000  0.4827180000000 1.0
C      1  0.5369160000000  0.4789010000000  0.4899750000000 1.0
C      1  0.5299360000000  0.5165230000000  0.5010410000000 1.0
C      1  0.4594330000000  0.4898460000000  0.5171000000000 1.0
C      1  0.4747770000000  0.5136660000000  0.5316900000000 1.0
C      1  0.5218870000000  0.4943040000000  0.5235140000000 1.0
C      1  0.5277350000000  0.5023490000000  0.4701910000000 1.0
C      1  0.4740840000000  0.4914890000000  0.4716050000000 1.0
C      1  0.5183420000000  0.5578600000000  0.5252800000000 1.0
C      1  0.4810610000000  0.4448530000000  0.5132120000000 1.0
C      1  0.4851340000000  0.5523480000000  0.4808460000000 1.0
C      1  0.5016540000000  0.4433710000000  0.4892900000000 1.0
C      1  0.5269350000000  0.4311900000000  0.4425060000000 1.0
C      1  0.4805680000000  0.5556540000000  0.4268320000000 1.0
C      1  0.4765150000000  0.4372080000000  0.5667640000000 1.0
C      1  0.5283750000000  0.5576540000000  0.5799160000000 1.0
C      1  0.4684850000000  0.4578620000000  0.5840700000000 1.0
C      1  0.5361810000000  0.5326890000000  0.5912610000000 1.0
C      1  0.5335350000000  0.4510050000000  0.4227090000000 1.0
C      1  0.4708150000000  0.5321820000000  0.4126430000000 1.0
C      1  0.4300510000000  0.4969390000000  0.5073460000000 1.0
C      1  0.5616980000000  0.5107700000000  0.5081860000000 1.0
C      1  0.5670720000000  0.4833180000000  0.4948410000000 1.0
C      1  0.4320690000000  0.5185490000000  0.4867890000000 1.0
C      1  0.4154340000000  0.4561090000000  0.4798480000000 1.0
C      1  0.5960210000000  0.5498870000000  0.4859670000000 1.0
C      1  0.6152830000000  0.4518920000000  0.4984210000000 1.0
C      1  0.4006920000000  0.5644530000000  0.4964450000000 1.0
C      1  0.6081360000000  0.5633300000000  0.4670090000000 1.0
C      1  0.4331710000000  0.4578640000000  0.4591320000000 1.0
C      1  0.3902760000000  0.5839820000000  0.5104830000000 1.0
C      1  0.6352940000000  0.4379800000000  0.5080660000000 1.0
C      1  0.5010410000000  0.4945800000000  0.4557590000000 1.0
C      1  0.5005480000000  0.5028400000000  0.5453630000000 1.0
END
