TITL C-3289327-5623-511 0.000593961040868318 125000 -729.663358153597 0 0 137 (C1) n - 1
REM
REM in /nfs/bkarasulu/CARBON/AIRSS/Generating-Clusters/AIREBO/with-SteepDescent/Higher-Symm/SD-CG/HFTN-CG
REM
REM
REM
REM
REM
REM ./C.cell (b20cbc046b6831c77cfcea5457e17084)
REM
REM compiler GCC version 9.2.1 20190827 (Red Hat 9.2.1-1)
REM options -cpp -mtune=generic -march=x86-64 -g -O0 -fpre-include=/usr/include/finclude/math-vector-fortran.h
REM seed 14131317 397335773 -464356883 84803433 -1295833344 1193701497 1160290093 -2057989095 -2027620275 1580526811 2070017842 761021522 -1292911633 -402814110 1777487896 350453298 1024172133 -1697983 -2080000071 -985623765 -515046837 1795550018 1351643100 -303363821 -362124981 -4903197 -1356157034 482337786 2010148327 404746054 1731570490 -174756098 2143060338
REM
CELL 1.54180   50.00000   50.00000   50.00000   90.00000   90.00000   90.00000
LATT -1
SFAC C  
C      1  0.5117300000000  0.5554550000000  0.5636460000000 1.0
C      1  0.4606570000000  0.5469450000000  0.5767760000000 1.0
C      1  0.4401610000000  0.4991770000000  0.5747930000000 1.0
C      1  0.4625100000000  0.4507040000000  0.5704450000000 1.0
C      1  0.5212440000000  0.4430150000000  0.5798210000000 1.0
C      1  0.5595880000000  0.4812730000000  0.5720670000000 1.0
C      1  0.5610980000000  0.5283880000000  0.5763720000000 1.0
C      1  0.4661690000000  0.5603570000000  0.5460190000000 1.0
C      1  0.4364030000000  0.5161890000000  0.5455830000000 1.0
C      1  0.4436400000000  0.4616430000000  0.5443460000000 1.0
C      1  0.4921100000000  0.4293930000000  0.5397390000000 1.0
C      1  0.5527470000000  0.4579850000000  0.5510790000000 1.0
C      1  0.5740300000000  0.5122620000000  0.5490070000000 1.0
C      1  0.5404440000000  0.5529340000000  0.5525970000000 1.0
C      1  0.4337590000000  0.5384570000000  0.5711550000000 1.0
C      1  0.4285990000000  0.4739410000000  0.5722530000000 1.0
C      1  0.4757760000000  0.4275550000000  0.5642090000000 1.0
C      1  0.5481610000000  0.4321080000000  0.5717540000000 1.0
C      1  0.5874640000000  0.4925790000000  0.5732640000000 1.0
C      1  0.5658640000000  0.5574560000000  0.5743980000000 1.0
C      1  0.4902230000000  0.5752120000000  0.5649060000000 1.0
C      1  0.5472080000000  0.5279240000000  0.4969220000000 1.0
C      1  0.4943850000000  0.5712690000000  0.4943680000000 1.0
C      1  0.4460930000000  0.5541830000000  0.4978540000000 1.0
C      1  0.4339390000000  0.5051670000000  0.4823780000000 1.0
C      1  0.4649640000000  0.4395610000000  0.4985950000000 1.0
C      1  0.5312930000000  0.4312750000000  0.4874360000000 1.0
C      1  0.5609260000000  0.4790690000000  0.5001470000000 1.0
C      1  0.4432940000000  0.4107560000000  0.5334440000000 1.0
C      1  0.5415330000000  0.4004300000000  0.5169400000000 1.0
C      1  0.5956550000000  0.4707690000000  0.5179900000000 1.0
C      1  0.5897280000000  0.5594310000000  0.5224240000000 1.0
C      1  0.5041740000000  0.5961260000000  0.5240750000000 1.0
C      1  0.4156190000000  0.5669810000000  0.5201540000000 1.0
C      1  0.3933010000000  0.4934420000000  0.5229250000000 1.0
C      1  0.5568340000000  0.4455990000000  0.5047350000000 1.0
C      1  0.5677920000000  0.5100240000000  0.4964550000000 1.0
C      1  0.5537490000000  0.5539360000000  0.5058900000000 1.0
C      1  0.4630250000000  0.5838190000000  0.4982730000000 1.0
C      1  0.4234190000000  0.5316770000000  0.4912140000000 1.0
C      1  0.4194400000000  0.4792630000000  0.4973530000000 1.0
C      1  0.5082190000000  0.4079070000000  0.4964230000000 1.0
C      1  0.5704740000000  0.5591350000000  0.4593410000000 1.0
C      1  0.4951350000000  0.5820660000000  0.4560120000000 1.0
C      1  0.4144070000000  0.5497900000000  0.4471200000000 1.0
C      1  0.4112960000000  0.4672270000000  0.4478090000000 1.0
C      1  0.4731300000000  0.4172530000000  0.4668360000000 1.0
C      1  0.5497430000000  0.4340460000000  0.4520550000000 1.0
C      1  0.5892700000000  0.4976770000000  0.4583520000000 1.0
C      1  0.5692710000000  0.4459510000000  0.4756870000000 1.0
C      1  0.5883040000000  0.5166990000000  0.4786820000000 1.0
C      1  0.5499430000000  0.5716760000000  0.4833880000000 1.0
C      1  0.4741310000000  0.5999170000000  0.4754160000000 1.0
C      1  0.4023320000000  0.5412170000000  0.4759670000000 1.0
C      1  0.4196840000000  0.4551580000000  0.4781810000000 1.0
C      1  0.4826460000000  0.4009010000000  0.4868760000000 1.0
C      1  0.4449900000000  0.5524210000000  0.4361880000000 1.0
C      1  0.4384570000000  0.4866640000000  0.4386310000000 1.0
C      1  0.4650070000000  0.4458540000000  0.4283410000000 1.0
C      1  0.5226280000000  0.4440550000000  0.4393780000000 1.0
C      1  0.5742270000000  0.4740310000000  0.4243460000000 1.0
C      1  0.5618860000000  0.5359030000000  0.4357190000000 1.0
C      1  0.5150560000000  0.5622150000000  0.4429140000000 1.0
C      1  0.4756320000000  0.4742330000000  0.4754600000000 1.0
C      1  0.4923380000000  0.4529060000000  0.4921530000000 1.0
C      1  0.5226550000000  0.4605850000000  0.4906450000000 1.0
C      1  0.5341020000000  0.4924670000000  0.4840720000000 1.0
C      1  0.5159610000000  0.5211980000000  0.4856460000000 1.0
C      1  0.4744870000000  0.5476500000000  0.4806280000000 1.0
C      1  0.4659930000000  0.5043710000000  0.4804500000000 1.0
C      1  0.5347740000000  0.3918310000000  0.4875710000000 1.0
C      1  0.6052440000000  0.4659240000000  0.4955470000000 1.0
C      1  0.6023430000000  0.5581000000000  0.4983940000000 1.0
C      1  0.5141420000000  0.6050040000000  0.5025660000000 1.0
C      1  0.4140460000000  0.5778780000000  0.4970400000000 1.0
C      1  0.3922460000000  0.4991530000000  0.4926100000000 1.0
C      1  0.4293100000000  0.3898000000000  0.5374780000000 1.0
C      1  0.5132350000000  0.5413690000000  0.5129490000000 1.0
C      1  0.4824220000000  0.5314060000000  0.5081180000000 1.0
C      1  0.4586190000000  0.5100820000000  0.5131530000000 1.0
C      1  0.4661130000000  0.4775970000000  0.5092300000000 1.0
C      1  0.4969330000000  0.4712670000000  0.5192290000000 1.0
C      1  0.5290000000000  0.4683970000000  0.5215050000000 1.0
C      1  0.5280960000000  0.4993970000000  0.5168240000000 1.0
C      1  0.5118860000000  0.4667910000000  0.5923430000000 1.0
C      1  0.5326930000000  0.4889810000000  0.5906070000000 1.0
C      1  0.5360570000000  0.5209050000000  0.5935090000000 1.0
C      1  0.5080800000000  0.5318540000000  0.5856650000000 1.0
C      1  0.4764380000000  0.5266980000000  0.5890580000000 1.0
C      1  0.4662120000000  0.5006640000000  0.5863150000000 1.0
C      1  0.4813620000000  0.4736790000000  0.5834650000000 1.0
C      1  0.5769920000000  0.4507070000000  0.4424380000000 1.0
C      1  0.5654270000000  0.5022010000000  0.4385990000000 1.0
C      1  0.5393200000000  0.5581910000000  0.4477160000000 1.0
C      1  0.4647020000000  0.5668740000000  0.4555640000000 1.0
C      1  0.4266970000000  0.5181000000000  0.4445170000000 1.0
C      1  0.4417950000000  0.4534720000000  0.4452130000000 1.0
C      1  0.4975580000000  0.4312120000000  0.4546690000000 1.0
C      1  0.4259680000000  0.4871660000000  0.5304080000000 1.0
C      1  0.4602140000000  0.4364130000000  0.5285190000000 1.0
C      1  0.5403030000000  0.4264570000000  0.5259400000000 1.0
C      1  0.5685150000000  0.4822800000000  0.5331910000000 1.0
C      1  0.5657080000000  0.5424150000000  0.5355820000000 1.0
C      1  0.4931700000000  0.5652600000000  0.5266040000000 1.0
C      1  0.4406940000000  0.5464060000000  0.5305300000000 1.0
C      1  0.5210760000000  0.4461280000000  0.5459580000000 1.0
C      1  0.5375280000000  0.5013820000000  0.5592790000000 1.0
C      1  0.5258250000000  0.5255650000000  0.5384390000000 1.0
C      1  0.4957020000000  0.5270400000000  0.5541490000000 1.0
C      1  0.4703960000000  0.5156360000000  0.5445820000000 1.0
C      1  0.4672730000000  0.4843630000000  0.5423210000000 1.0
C      1  0.4945670000000  0.4668960000000  0.5528670000000 1.0
C      1  0.5208470000000  0.5840260000000  0.4784190000000 1.0
C      1  0.4314980000000  0.5678860000000  0.4703530000000 1.0
C      1  0.4083570000000  0.4960540000000  0.4628290000000 1.0
C      1  0.4471650000000  0.4375410000000  0.4730420000000 1.0
C      1  0.5256050000000  0.4117860000000  0.4609520000000 1.0
C      1  0.5921530000000  0.4687660000000  0.4668640000000 1.0
C      1  0.5923540000000  0.5448230000000  0.4758690000000 1.0
C      1  0.4879490000000  0.4629400000000  0.4457560000000 1.0
C      1  0.5176630000000  0.4729070000000  0.4325510000000 1.0
C      1  0.5342750000000  0.4940750000000  0.4499170000000 1.0
C      1  0.5321730000000  0.5224530000000  0.4312450000000 1.0
C      1  0.5036370000000  0.5403330000000  0.4260370000000 1.0
C      1  0.4543320000000  0.5241500000000  0.4258200000000 1.0
C      1  0.4703610000000  0.4879040000000  0.4307730000000 1.0
C      1  0.5315820000000  0.4940450000000  0.3895580000000 1.0
C      1  0.5240100000000  0.5188140000000  0.3998480000000 1.0
C      1  0.4945540000000  0.5276090000000  0.3972830000000 1.0
C      1  0.4700770000000  0.5143660000000  0.4002800000000 1.0
C      1  0.4717830000000  0.4850260000000  0.3992600000000 1.0
C      1  0.4919660000000  0.4682310000000  0.3901630000000 1.0
C      1  0.5172840000000  0.4731990000000  0.4014830000000 1.0
C      1  0.4839820000000  0.5180740000000  0.4385440000000 1.0
C      1  0.4891250000000  0.5214010000000  0.4682770000000 1.0
C      1  0.4976870000000  0.5050390000000  0.5175060000000 1.0
C      1  0.5119920000000  0.4907930000000  0.5523630000000 1.0
END
