TITL C-3289335-9438-54 -0.00134169294223648 125000 -851.468265595828 0 0 157 (C1) n - 1
REM
REM in /nfs/bkarasulu/CARBON/AIRSS/Generating-Clusters/AIREBO/with-SteepDescent/Higher-Symm/SD-CG/HFTN-CG
REM
REM
REM
REM
REM
REM ./C.cell (b20cbc046b6831c77cfcea5457e17084)
REM
REM compiler GCC version 9.2.1 20190827 (Red Hat 9.2.1-1)
REM options -cpp -mtune=generic -march=x86-64 -g -O0 -fpre-include=/usr/include/finclude/math-vector-fortran.h
REM seed 1254031290 -1705529744 -666839527 1660550460 -1689819217 1094716196 818357238 -679196079 1127269500 -892506262 -1942817030 -1504972749 519735270 -488255168 -2107517220 685747342 240537562 1135999178 1687967411 1742248534 -1152836489 -507221801 -796458348 444409233 -2112185241 -842475219 2009227583 1412261913 575100293 1636249094 -367583157 -446726369 -349287950
REM
CELL 1.54180   50.00000   50.00000   50.00000   90.00000   90.00000   90.00000
LATT -1
SFAC C  
C      1  0.5285760000000  0.4284450000000  0.4797890000000 1.0
C      1  0.4855580000000  0.4272210000000  0.4694480000000 1.0
C      1  0.4691630000000  0.4110520000000  0.4929460000000 1.0
C      1  0.4775640000000  0.4327950000000  0.5177680000000 1.0
C      1  0.5018660000000  0.4195770000000  0.5297100000000 1.0
C      1  0.5279780000000  0.4295010000000  0.5127570000000 1.0
C      1  0.5218220000000  0.5759900000000  0.4661010000000 1.0
C      1  0.4890360000000  0.5714780000000  0.4595240000000 1.0
C      1  0.4501430000000  0.5700560000000  0.4963600000000 1.0
C      1  0.4726200000000  0.5737320000000  0.5374090000000 1.0
C      1  0.5221860000000  0.5762180000000  0.5456590000000 1.0
C      1  0.5368640000000  0.5763000000000  0.5148540000000 1.0
C      1  0.5767570000000  0.4369520000000  0.4722250000000 1.0
C      1  0.5171810000000  0.4366660000000  0.4304800000000 1.0
C      1  0.4477360000000  0.4396460000000  0.4486900000000 1.0
C      1  0.4268980000000  0.4371700000000  0.5264540000000 1.0
C      1  0.4765030000000  0.4425550000000  0.5702320000000 1.0
C      1  0.5566930000000  0.4454950000000  0.5557340000000 1.0
C      1  0.5733640000000  0.5631860000000  0.4767520000000 1.0
C      1  0.5099310000000  0.5549610000000  0.4155990000000 1.0
C      1  0.4388260000000  0.5558360000000  0.4418440000000 1.0
C      1  0.4213560000000  0.5654750000000  0.5115070000000 1.0
C      1  0.4846960000000  0.5562830000000  0.5818450000000 1.0
C      1  0.5614760000000  0.5574830000000  0.5590350000000 1.0
C      1  0.5581860000000  0.4866300000000  0.4223040000000 1.0
C      1  0.4489260000000  0.4870300000000  0.4103240000000 1.0
C      1  0.3906510000000  0.4862870000000  0.4874080000000 1.0
C      1  0.4356400000000  0.4826910000000  0.5748230000000 1.0
C      1  0.5608500000000  0.4984050000000  0.5959090000000 1.0
C      1  0.5968610000000  0.4841850000000  0.5015370000000 1.0
C      1  0.5607280000000  0.5180660000000  0.4202280000000 1.0
C      1  0.4701460000000  0.5114310000000  0.3998020000000 1.0
C      1  0.3990130000000  0.5173950000000  0.4982980000000 1.0
C      1  0.4424550000000  0.5154860000000  0.5818270000000 1.0
C      1  0.5372300000000  0.5100240000000  0.5987860000000 1.0
C      1  0.6058420000000  0.5165080000000  0.5086310000000 1.0
C      1  0.5066700000000  0.4157040000000  0.4489360000000 1.0
C      1  0.4486320000000  0.4131730000000  0.4659260000000 1.0
C      1  0.4484970000000  0.4187580000000  0.5252500000000 1.0
C      1  0.4946310000000  0.4153840000000  0.5614340000000 1.0
C      1  0.5511110000000  0.4218420000000  0.5339960000000 1.0
C      1  0.5579710000000  0.4152480000000  0.4822610000000 1.0
C      1  0.5025940000000  0.5797640000000  0.4318750000000 1.0
C      1  0.4406620000000  0.5761090000000  0.4663060000000 1.0
C      1  0.4399590000000  0.5792330000000  0.5338000000000 1.0
C      1  0.5096350000000  0.5757140000000  0.5733580000000 1.0
C      1  0.5609710000000  0.5799720000000  0.5372110000000 1.0
C      1  0.5525420000000  0.5865560000000  0.4703510000000 1.0
C      1  0.4911320000000  0.4434410000000  0.4117890000000 1.0
C      1  0.4346750000000  0.4509910000000  0.4780880000000 1.0
C      1  0.4269330000000  0.4516640000000  0.5543930000000 1.0
C      1  0.5090710000000  0.4387050000000  0.5800600000000 1.0
C      1  0.5799710000000  0.4358310000000  0.5321390000000 1.0
C      1  0.5726380000000  0.4434060000000  0.4414990000000 1.0
C      1  0.4805370000000  0.5434560000000  0.4045530000000 1.0
C      1  0.4110310000000  0.5610450000000  0.4636180000000 1.0
C      1  0.4414610000000  0.5599870000000  0.5583620000000 1.0
C      1  0.5175790000000  0.5532460000000  0.5962470000000 1.0
C      1  0.5866660000000  0.5594790000000  0.5329960000000 1.0
C      1  0.5564060000000  0.5655590000000  0.4452050000000 1.0
C      1  0.5202290000000  0.4907770000000  0.4601200000000 1.0
C      1  0.4746710000000  0.4850440000000  0.4558710000000 1.0
C      1  0.4500920000000  0.4918520000000  0.5045210000000 1.0
C      1  0.4717130000000  0.4884790000000  0.5377890000000 1.0
C      1  0.5279450000000  0.4900460000000  0.5434820000000 1.0
C      1  0.5531340000000  0.4728440000000  0.4990510000000 1.0
C      1  0.5260000000000  0.5238890000000  0.4561190000000 1.0
C      1  0.4709660000000  0.5190700000000  0.4565130000000 1.0
C      1  0.4473020000000  0.5226400000000  0.5014300000000 1.0
C      1  0.4727030000000  0.5220580000000  0.5438950000000 1.0
C      1  0.5297390000000  0.5240490000000  0.5460680000000 1.0
C      1  0.5497170000000  0.5254800000000  0.5025550000000 1.0
C      1  0.5603120000000  0.5302670000000  0.5441830000000 1.0
C      1  0.5685000000000  0.5321460000000  0.4795460000000 1.0
C      1  0.5122820000000  0.5261210000000  0.4286980000000 1.0
C      1  0.4419080000000  0.5272940000000  0.4528810000000 1.0
C      1  0.4267080000000  0.5363020000000  0.5199940000000 1.0
C      1  0.4858200000000  0.5278480000000  0.5703010000000 1.0
C      1  0.5580280000000  0.4757470000000  0.5509360000000 1.0
C      1  0.5654970000000  0.4670710000000  0.4730710000000 1.0
C      1  0.5095280000000  0.4693490000000  0.4359840000000 1.0
C      1  0.4474940000000  0.4721540000000  0.4471860000000 1.0
C      1  0.4309730000000  0.4693100000000  0.5207580000000 1.0
C      1  0.4813650000000  0.4727140000000  0.5614310000000 1.0
C      1  0.4660480000000  0.4370530000000  0.4207090000000 1.0
C      1  0.4162940000000  0.4404360000000  0.4969740000000 1.0
C      1  0.4467310000000  0.4406670000000  0.5721910000000 1.0
C      1  0.5383270000000  0.4392550000000  0.5775040000000 1.0
C      1  0.5900410000000  0.4312360000000  0.4999480000000 1.0
C      1  0.5503910000000  0.4334740000000  0.4276370000000 1.0
C      1  0.4537290000000  0.5576600000000  0.4170160000000 1.0
C      1  0.4028180000000  0.5724800000000  0.4903900000000 1.0
C      1  0.4564440000000  0.5661690000000  0.5807740000000 1.0
C      1  0.5449700000000  0.5584280000000  0.5823220000000 1.0
C      1  0.5889980000000  0.5684510000000  0.5014200000000 1.0
C      1  0.5396890000000  0.5688760000000  0.4216480000000 1.0
C      1  0.5832480000000  0.4706440000000  0.4375390000000 1.0
C      1  0.4997510000000  0.4687690000000  0.3969900000000 1.0
C      1  0.3979390000000  0.4802630000000  0.4545910000000 1.0
C      1  0.4095950000000  0.4799810000000  0.5525400000000 1.0
C      1  0.4951270000000  0.4670270000000  0.5979340000000 1.0
C      1  0.6014140000000  0.4563470000000  0.5155350000000 1.0
C      1  0.5861360000000  0.5194990000000  0.4439000000000 1.0
C      1  0.5019040000000  0.5209060000000  0.3907150000000 1.0
C      1  0.4018370000000  0.5317670000000  0.4666950000000 1.0
C      1  0.4112590000000  0.5175710000000  0.5657230000000 1.0
C      1  0.5056070000000  0.5224990000000  0.6044990000000 1.0
C      1  0.6014040000000  0.5329370000000  0.5380730000000 1.0
C      1  0.5740040000000  0.5118240000000  0.5191150000000 1.0
C      1  0.5558680000000  0.5338230000000  0.4499710000000 1.0
C      1  0.4859970000000  0.5130880000000  0.4298080000000 1.0
C      1  0.4266910000000  0.5121400000000  0.4792400000000 1.0
C      1  0.4398580000000  0.5270770000000  0.5499630000000 1.0
C      1  0.5152840000000  0.5137580000000  0.5730850000000 1.0
C      1  0.5713820000000  0.4811420000000  0.5238520000000 1.0
C      1  0.5470920000000  0.4779800000000  0.4519380000000 1.0
C      1  0.4802390000000  0.4803460000000  0.4226540000000 1.0
C      1  0.4265500000000  0.4826370000000  0.4704580000000 1.0
C      1  0.4391230000000  0.4938230000000  0.5428790000000 1.0
C      1  0.5098750000000  0.4819370000000  0.5711190000000 1.0
C      1  0.4774890000000  0.4638850000000  0.5166120000000 1.0
C      1  0.5067950000000  0.4739750000000  0.5223870000000 1.0
C      1  0.5258670000000  0.4593720000000  0.5045310000000 1.0
C      1  0.5162040000000  0.4601210000000  0.4743110000000 1.0
C      1  0.4857350000000  0.4575950000000  0.4717070000000 1.0
C      1  0.4607220000000  0.4669490000000  0.4886710000000 1.0
C      1  0.4832960000000  0.5458810000000  0.5268550000000 1.0
C      1  0.5141270000000  0.5474960000000  0.5305310000000 1.0
C      1  0.5289970000000  0.5464080000000  0.5028480000000 1.0
C      1  0.5150320000000  0.5458750000000  0.4756500000000 1.0
C      1  0.4839130000000  0.5412630000000  0.4737230000000 1.0
C      1  0.4685350000000  0.5449470000000  0.4991750000000 1.0
C      1  0.5404770000000  0.6036430000000  0.5435710000000 1.0
C      1  0.5396060000000  0.5966170000000  0.4951120000000 1.0
C      1  0.5234990000000  0.5995210000000  0.4414160000000 1.0
C      1  0.4661540000000  0.5906060000000  0.4660850000000 1.0
C      1  0.4594470000000  0.5967520000000  0.5120990000000 1.0
C      1  0.4860810000000  0.5882280000000  0.5579080000000 1.0
C      1  0.5278130000000  0.4036170000000  0.5426650000000 1.0
C      1  0.5634700000000  0.3903020000000  0.4871710000000 1.0
C      1  0.5277660000000  0.3994300000000  0.4620700000000 1.0
C      1  0.4750450000000  0.3978100000000  0.4558150000000 1.0
C      1  0.4677310000000  0.3944840000000  0.5226180000000 1.0
C      1  0.4813580000000  0.3892900000000  0.5455660000000 1.0
C      1  0.4060310000000  0.5152360000000  0.5320730000000 1.0
C      1  0.4731180000000  0.5137390000000  0.5965430000000 1.0
C      1  0.5852260000000  0.5144230000000  0.5573400000000 1.0
C      1  0.5946130000000  0.5150000000000  0.4765220000000 1.0
C      1  0.5300730000000  0.5106240000000  0.4070560000000 1.0
C      1  0.4143490000000  0.5140100000000  0.4413560000000 1.0
C      1  0.4014870000000  0.4840870000000  0.5196230000000 1.0
C      1  0.4665080000000  0.4834660000000  0.5892610000000 1.0
C      1  0.5739460000000  0.4928880000000  0.5713340000000 1.0
C      1  0.5930440000000  0.4834050000000  0.4677040000000 1.0
C      1  0.5283710000000  0.4787450000000  0.4107190000000 1.0
C      1  0.4220540000000  0.4864010000000  0.4311710000000 1.0
C      1  0.5373450000000  0.4980020000000  0.5117810000000 1.0
END
