TITL C-3289330-4660-437 0.000161040711498623 125000 -471.461713839557 0 0 94 (C1) n - 1
REM
REM in /nfs/bkarasulu/CARBON/AIRSS/Generating-Clusters/AIREBO/with-SteepDescent/Higher-Symm/SD-CG/HFTN-CG
REM
REM
REM
REM
REM
REM ./C.cell (b20cbc046b6831c77cfcea5457e17084)
REM
REM compiler GCC version 9.2.1 20190827 (Red Hat 9.2.1-1)
REM options -cpp -mtune=generic -march=x86-64 -g -O0 -fpre-include=/usr/include/finclude/math-vector-fortran.h
REM seed -474960818 -1239628675 -693115080 -248749467 -270574606 995558102 -1470543550 -40546339 -135009749 -1588611576 1156713836 876384498 1306466289 -157825791 1928740168 374496127 1343343797 -1864991691 -1670315406 -1738637289 -43659118 -1710275310 316363427 288179416 -256434976 802213446 2063177980 -529384466 1805262104 -1819630204 1331826015 -1837787546 2056256436
REM
CELL 1.54180   50.00000   50.00000   50.00000   90.00000   90.00000   90.00000
LATT -1
SFAC C  
C      1  0.4360090000000  0.4892990000000  0.5268130000000 1.0
C      1  0.5187120000000  0.4351190000000  0.4802540000000 1.0
C      1  0.4811910000000  0.5242140000000  0.4351730000000 1.0
C      1  0.5727030000000  0.5175660000000  0.5249480000000 1.0
C      1  0.5663060000000  0.4858190000000  0.4814690000000 1.0
C      1  0.4277400000000  0.5192420000000  0.4763590000000 1.0
C      1  0.4843280000000  0.5628010000000  0.4779310000000 1.0
C      1  0.4803520000000  0.4272810000000  0.5181130000000 1.0
C      1  0.5233630000000  0.5625750000000  0.5160360000000 1.0
C      1  0.5102600000000  0.4785000000000  0.4294530000000 1.0
C      1  0.5102090000000  0.5284850000000  0.5672710000000 1.0
C      1  0.4800380000000  0.4813170000000  0.5572660000000 1.0
C      1  0.4881500000000  0.5466530000000  0.5538720000000 1.0
C      1  0.5520050000000  0.4958750000000  0.5413950000000 1.0
C      1  0.5431100000000  0.5501280000000  0.4912740000000 1.0
C      1  0.5089820000000  0.4655820000000  0.5486080000000 1.0
C      1  0.5055370000000  0.5302110000000  0.4525500000000 1.0
C      1  0.4867400000000  0.4621020000000  0.4434570000000 1.0
C      1  0.4437200000000  0.5168570000000  0.5411410000000 1.0
C      1  0.4464210000000  0.4948510000000  0.4728090000000 1.0
C      1  0.5497520000000  0.5078110000000  0.4618570000000 1.0
C      1  0.4715620000000  0.4528000000000  0.4974300000000 1.0
C      1  0.4688900000000  0.5481760000000  0.5009270000000 1.0
C      1  0.5359810000000  0.4450870000000  0.5075130000000 1.0
C      1  0.4494170000000  0.4341610000000  0.5310430000000 1.0
C      1  0.5355570000000  0.4589750000000  0.4344740000000 1.0
C      1  0.4197420000000  0.5545690000000  0.4418420000000 1.0
C      1  0.5653340000000  0.5382890000000  0.5508770000000 1.0
C      1  0.5432720000000  0.4407840000000  0.4593090000000 1.0
C      1  0.4378770000000  0.5409820000000  0.4573350000000 1.0
C      1  0.4660310000000  0.5454040000000  0.4551160000000 1.0
C      1  0.4765070000000  0.4426520000000  0.5482120000000 1.0
C      1  0.5463620000000  0.5616990000000  0.5400750000000 1.0
C      1  0.5576110000000  0.4691410000000  0.4559350000000 1.0
C      1  0.5376960000000  0.5443830000000  0.5656410000000 1.0
C      1  0.4534580000000  0.4661300000000  0.5424100000000 1.0
C      1  0.5433710000000  0.5280420000000  0.5134890000000 1.0
C      1  0.5073000000000  0.5365980000000  0.5282330000000 1.0
C      1  0.5231990000000  0.5079440000000  0.5279430000000 1.0
C      1  0.4786570000000  0.4811610000000  0.5083650000000 1.0
C      1  0.4870740000000  0.5214120000000  0.5084250000000 1.0
C      1  0.5201910000000  0.4705650000000  0.4988180000000 1.0
C      1  0.5066670000000  0.4840850000000  0.5221670000000 1.0
C      1  0.5030850000000  0.5137940000000  0.4778660000000 1.0
C      1  0.5039460000000  0.4644960000000  0.4707470000000 1.0
C      1  0.4730220000000  0.5029830000000  0.5326250000000 1.0
C      1  0.4736850000000  0.5008200000000  0.4848790000000 1.0
C      1  0.5236790000000  0.4919610000000  0.4746530000000 1.0
C      1  0.4393290000000  0.4499020000000  0.4956870000000 1.0
C      1  0.4895390000000  0.4312190000000  0.4378310000000 1.0
C      1  0.4494710000000  0.4825260000000  0.4425730000000 1.0
C      1  0.5730730000000  0.5592740000000  0.4958350000000 1.0
C      1  0.5655920000000  0.4499880000000  0.5189810000000 1.0
C      1  0.4386890000000  0.5499840000000  0.5151810000000 1.0
C      1  0.5200880000000  0.5585520000000  0.4453840000000 1.0
C      1  0.5152150000000  0.4341450000000  0.5534400000000 1.0
C      1  0.4947690000000  0.5770650000000  0.5557270000000 1.0
C      1  0.5541890000000  0.5031030000000  0.4314620000000 1.0
C      1  0.5522750000000  0.4993000000000  0.5722220000000 1.0
C      1  0.4414530000000  0.5109650000000  0.5717850000000 1.0
C      1  0.5046010000000  0.4159210000000  0.5390740000000 1.0
C      1  0.5363630000000  0.4942280000000  0.4158450000000 1.0
C      1  0.4188060000000  0.5358900000000  0.5032340000000 1.0
C      1  0.5084740000000  0.5860790000000  0.5355910000000 1.0
C      1  0.5027270000000  0.4177930000000  0.4557430000000 1.0
C      1  0.5018780000000  0.5778850000000  0.4548600000000 1.0
C      1  0.4611590000000  0.4996410000000  0.4249210000000 1.0
C      1  0.4572940000000  0.4925150000000  0.5799370000000 1.0
C      1  0.5322930000000  0.5095030000000  0.5843490000000 1.0
C      1  0.5816570000000  0.4643860000000  0.5017690000000 1.0
C      1  0.5864160000000  0.5464570000000  0.5133850000000 1.0
C      1  0.4253890000000  0.4610660000000  0.5137020000000 1.0
C      1  0.5066100000000  0.4847380000000  0.6023100000000 1.0
C      1  0.6012490000000  0.5208120000000  0.4832690000000 1.0
C      1  0.4786520000000  0.5968880000000  0.5113740000000 1.0
C      1  0.4784140000000  0.5245360000000  0.5911860000000 1.0
C      1  0.4786750000000  0.4922500000000  0.3906900000000 1.0
C      1  0.5146860000000  0.5226070000000  0.3988510000000 1.0
C      1  0.4058410000000  0.4769780000000  0.4828540000000 1.0
C      1  0.3912740000000  0.5099410000000  0.5137870000000 1.0
C      1  0.6115630000000  0.4860280000000  0.5147300000000 1.0
C      1  0.5108420000000  0.3886380000000  0.5019190000000 1.0
C      1  0.5184770000000  0.6017150000000  0.4837200000000 1.0
C      1  0.4717030000000  0.4046390000000  0.4771280000000 1.0
C      1  0.4952670000000  0.5009410000000  0.5804990000000 1.0
C      1  0.5891920000000  0.5011860000000  0.5013930000000 1.0
C      1  0.5021940000000  0.5827150000000  0.4986160000000 1.0
C      1  0.4961600000000  0.5042330000000  0.4120770000000 1.0
C      1  0.4161460000000  0.4984720000000  0.5006700000000 1.0
C      1  0.4968170000000  0.4121490000000  0.4925010000000 1.0
C      1  0.5364630000000  0.5372310000000  0.4653610000000 1.0
C      1  0.4646740000000  0.5419650000000  0.5344020000000 1.0
C      1  0.5400330000000  0.4661160000000  0.5344380000000 1.0
C      1  0.4640520000000  0.4658510000000  0.4682530000000 1.0
END
