TITL C-3289332-8317-651 0.0140637251593778 125000 -976.697134271011 0 0 180 (C1) n - 1
REM
REM in /nfs/bkarasulu/CARBON/AIRSS/Generating-Clusters/AIREBO/with-SteepDescent/Higher-Symm/SD-CG/HFTN-CG
REM
REM
REM
REM
REM
REM ./C.cell (b20cbc046b6831c77cfcea5457e17084)
REM
REM compiler GCC version 9.2.1 20190827 (Red Hat 9.2.1-1)
REM options -cpp -mtune=generic -march=x86-64 -g -O0 -fpre-include=/usr/include/finclude/math-vector-fortran.h
REM seed 1435859655 -1875041063 -1675007344 -1367510363 -355840531 450079152 1572144920 -2079086740 250681020 1261423103 -925277055 -1748861810 -2058846702 106004406 -37956068 1340114274 257615363 217949168 734055802 970388701 1673289275 1850376203 759828140 -1007703436 -618003306 -1596952650 -1743577251 616855627 1191455745 1952408021 1150511216 1310744340 442347892
REM
CELL 1.54180   50.00000   50.00000   50.00000   90.00000   90.00000   90.00000
LATT -1
SFAC C  
C      1  0.4262700000000  0.4106790000000  0.4960210000000 1.0
C      1  0.5589690000000  0.4913170000000  0.4168370000000 1.0
C      1  0.4460450000000  0.5875260000000  0.4995460000000 1.0
C      1  0.5569600000000  0.5018850000000  0.5863270000000 1.0
C      1  0.4983750000000  0.4767530000000  0.4594420000000 1.0
C      1  0.5069790000000  0.5384510000000  0.4769020000000 1.0
C      1  0.4899390000000  0.5307350000000  0.5531140000000 1.0
C      1  0.4971750000000  0.4519840000000  0.5175150000000 1.0
C      1  0.5233890000000  0.6060350000000  0.4472860000000 1.0
C      1  0.4753200000000  0.5565420000000  0.6073820000000 1.0
C      1  0.5195670000000  0.3916490000000  0.5569640000000 1.0
C      1  0.4664750000000  0.4481780000000  0.3888330000000 1.0
C      1  0.4730390000000  0.4326730000000  0.4519050000000 1.0
C      1  0.5323910000000  0.5389190000000  0.4346250000000 1.0
C      1  0.4766100000000  0.5647980000000  0.5370800000000 1.0
C      1  0.5205480000000  0.4586130000000  0.5612650000000 1.0
C      1  0.4896010000000  0.4668850000000  0.3939070000000 1.0
C      1  0.5035400000000  0.6046470000000  0.4718310000000 1.0
C      1  0.4915080000000  0.5295610000000  0.6069730000000 1.0
C      1  0.5038020000000  0.3962410000000  0.5302670000000 1.0
C      1  0.4664530000000  0.5100960000000  0.5147640000000 1.0
C      1  0.5376410000000  0.4840100000000  0.5127450000000 1.0
C      1  0.4647040000000  0.4693680000000  0.4884940000000 1.0
C      1  0.5297100000000  0.5084420000000  0.4825970000000 1.0
C      1  0.5103990000000  0.4542940000000  0.4154510000000 1.0
C      1  0.4820260000000  0.5850290000000  0.4586200000000 1.0
C      1  0.5133100000000  0.5493700000000  0.5901460000000 1.0
C      1  0.4839610000000  0.4209380000000  0.5387060000000 1.0
C      1  0.4294940000000  0.5588920000000  0.5011160000000 1.0
C      1  0.5698480000000  0.4975350000000  0.5564290000000 1.0
C      1  0.4303680000000  0.4443370000000  0.4986600000000 1.0
C      1  0.5710460000000  0.5008540000000  0.4461270000000 1.0
C      1  0.4752160000000  0.5436690000000  0.4340280000000 1.0
C      1  0.5291880000000  0.5661810000000  0.5420190000000 1.0
C      1  0.4705350000000  0.4648570000000  0.5671260000000 1.0
C      1  0.5287700000000  0.4368990000000  0.4639310000000 1.0
C      1  0.5192000000000  0.5236670000000  0.5119960000000 1.0
C      1  0.4964640000000  0.5063070000000  0.5303750000000 1.0
C      1  0.5069340000000  0.4804540000000  0.5109220000000 1.0
C      1  0.4884160000000  0.4886200000000  0.4865880000000 1.0
C      1  0.4588330000000  0.4172740000000  0.5048810000000 1.0
C      1  0.5301780000000  0.4811080000000  0.4220420000000 1.0
C      1  0.4745610000000  0.5735050000000  0.5054440000000 1.0
C      1  0.5292640000000  0.5104660000000  0.5707710000000 1.0
C      1  0.4806170000000  0.5200970000000  0.3901040000000 1.0
C      1  0.5104760000000  0.5912560000000  0.5182290000000 1.0
C      1  0.4914110000000  0.4820840000000  0.5963500000000 1.0
C      1  0.5216360000000  0.4014150000000  0.4804870000000 1.0
C      1  0.4966320000000  0.4349560000000  0.5993220000000 1.0
C      1  0.5111450000000  0.3984440000000  0.4378170000000 1.0
C      1  0.4890200000000  0.5591500000000  0.3881310000000 1.0
C      1  0.5041200000000  0.6065460000000  0.5594120000000 1.0
C      1  0.4337420000000  0.5175590000000  0.4246310000000 1.0
C      1  0.5701460000000  0.5826510000000  0.5267230000000 1.0
C      1  0.4334690000000  0.4712330000000  0.5804510000000 1.0
C      1  0.5738540000000  0.4235570000000  0.4795880000000 1.0
C      1  0.5379020000000  0.4112480000000  0.5625380000000 1.0
C      1  0.4504200000000  0.4444250000000  0.4080220000000 1.0
C      1  0.5333970000000  0.5836810000000  0.4416940000000 1.0
C      1  0.4623520000000  0.5623050000000  0.5866680000000 1.0
C      1  0.4339610000000  0.5657510000000  0.4467430000000 1.0
C      1  0.5570790000000  0.5455450000000  0.5614290000000 1.0
C      1  0.4378170000000  0.4401470000000  0.5315770000000 1.0
C      1  0.5534290000000  0.4646350000000  0.4500350000000 1.0
C      1  0.5249020000000  0.5905160000000  0.5653880000000 1.0
C      1  0.4753700000000  0.4349230000000  0.5825400000000 1.0
C      1  0.5270090000000  0.4197860000000  0.4346020000000 1.0
C      1  0.4722580000000  0.5643640000000  0.4084620000000 1.0
C      1  0.5787570000000  0.4541040000000  0.5310760000000 1.0
C      1  0.4117110000000  0.4648280000000  0.4551190000000 1.0
C      1  0.5741420000000  0.5500420000000  0.4553340000000 1.0
C      1  0.4182980000000  0.5456780000000  0.5475490000000 1.0
C      1  0.5458660000000  0.4413680000000  0.4281750000000 1.0
C      1  0.4503390000000  0.5785570000000  0.4198390000000 1.0
C      1  0.5499600000000  0.5763580000000  0.5743950000000 1.0
C      1  0.4560880000000  0.4164560000000  0.5731360000000 1.0
C      1  0.5622030000000  0.5005280000000  0.5275140000000 1.0
C      1  0.4357010000000  0.4752960000000  0.5009320000000 1.0
C      1  0.5615670000000  0.5007920000000  0.4747500000000 1.0
C      1  0.4440400000000  0.5326990000000  0.5027880000000 1.0
C      1  0.4267430000000  0.5363650000000  0.4501950000000 1.0
C      1  0.5793200000000  0.5542240000000  0.5373740000000 1.0
C      1  0.4279450000000  0.4656900000000  0.5497680000000 1.0
C      1  0.5800380000000  0.4545330000000  0.4686470000000 1.0
C      1  0.4439820000000  0.5018740000000  0.5907780000000 1.0
C      1  0.5540110000000  0.4108150000000  0.5043460000000 1.0
C      1  0.4540790000000  0.4901840000000  0.4276320000000 1.0
C      1  0.5596690000000  0.5858310000000  0.4966440000000 1.0
C      1  0.5281280000000  0.3947020000000  0.5110640000000 1.0
C      1  0.4804210000000  0.4934330000000  0.4072440000000 1.0
C      1  0.5329280000000  0.5920580000000  0.4834140000000 1.0
C      1  0.4701270000000  0.5059570000000  0.6045230000000 1.0
C      1  0.5639380000000  0.5356060000000  0.4261580000000 1.0
C      1  0.4282900000000  0.5738460000000  0.5381290000000 1.0
C      1  0.5736820000000  0.4505390000000  0.5701200000000 1.0
C      1  0.4400130000000  0.4245590000000  0.4522150000000 1.0
C      1  0.5601250000000  0.5332970000000  0.5186710000000 1.0
C      1  0.4464800000000  0.4858790000000  0.5296240000000 1.0
C      1  0.5581290000000  0.4702730000000  0.4893430000000 1.0
C      1  0.4466710000000  0.5198470000000  0.4722510000000 1.0
C      1  0.5359150000000  0.5267760000000  0.5416430000000 1.0
C      1  0.4660970000000  0.4487540000000  0.5155310000000 1.0
C      1  0.5292280000000  0.4880770000000  0.4553240000000 1.0
C      1  0.4784270000000  0.5211870000000  0.4849250000000 1.0
C      1  0.4725780000000  0.3856520000000  0.4848300000000 1.0
C      1  0.5284310000000  0.5090440000000  0.3812960000000 1.0
C      1  0.4758010000000  0.6287520000000  0.5120760000000 1.0
C      1  0.5249540000000  0.4884700000000  0.6167330000000 1.0
C      1  0.5158690000000  0.4597480000000  0.6009640000000 1.0
C      1  0.4936410000000  0.3998500000000  0.4649600000000 1.0
C      1  0.5101620000000  0.5347520000000  0.3863040000000 1.0
C      1  0.4843790000000  0.6038300000000  0.5335560000000 1.0
C      1  0.3946020000000  0.4608980000000  0.5115000000000 1.0
C      1  0.6073870000000  0.5053460000000  0.4619800000000 1.0
C      1  0.3969950000000  0.5357980000000  0.4980080000000 1.0
C      1  0.6043790000000  0.5010230000000  0.5368420000000 1.0
C      1  0.5923550000000  0.5252120000000  0.4416710000000 1.0
C      1  0.4034410000000  0.5588480000000  0.5199440000000 1.0
C      1  0.5915190000000  0.4750260000000  0.5546530000000 1.0
C      1  0.4219020000000  0.4395710000000  0.4661100000000 1.0
C      1  0.5504580000000  0.4790920000000  0.6041850000000 1.0
C      1  0.4443920000000  0.3927770000000  0.4759270000000 1.0
C      1  0.5560770000000  0.5122560000000  0.3946780000000 1.0
C      1  0.4495180000000  0.6137480000000  0.5170360000000 1.0
C      1  0.4636010000000  0.5476690000000  0.5597680000000 1.0
C      1  0.5391490000000  0.4360920000000  0.5496990000000 1.0
C      1  0.4561680000000  0.4577350000000  0.4362740000000 1.0
C      1  0.5284940000000  0.5573640000000  0.4585430000000 1.0
C      1  0.4609090000000  0.4674000000000  0.5996430000000 1.0
C      1  0.5499790000000  0.4103520000000  0.4652570000000 1.0
C      1  0.4588920000000  0.5269580000000  0.4098120000000 1.0
C      1  0.5398290000000  0.5957880000000  0.5291130000000 1.0
C      1  0.4767840000000  0.3909760000000  0.5139090000000 1.0
C      1  0.5167720000000  0.4858250000000  0.3925510000000 1.0
C      1  0.4819930000000  0.6038950000000  0.4937570000000 1.0
C      1  0.5176610000000  0.5117340000000  0.6018920000000 1.0
C      1  0.5393960000000  0.5406840000000  0.4027910000000 1.0
C      1  0.4540840000000  0.5890470000000  0.5385530000000 1.0
C      1  0.5450330000000  0.4557630000000  0.5838250000000 1.0
C      1  0.4637580000000  0.4000870000000  0.4488710000000 1.0
C      1  0.5049260000000  0.5561530000000  0.5637470000000 1.0
C      1  0.4935650000000  0.4494190000000  0.5499400000000 1.0
C      1  0.5020800000000  0.4485580000000  0.4463490000000 1.0
C      1  0.4890940000000  0.5582990000000  0.4558700000000 1.0
C      1  0.3992600000000  0.4312490000000  0.5028580000000 1.0
C      1  0.5817610000000  0.4715750000000  0.4325620000000 1.0
C      1  0.4287930000000  0.5789250000000  0.4738200000000 1.0
C      1  0.5772170000000  0.5243090000000  0.5747780000000 1.0
C      1  0.5122240000000  0.5673110000000  0.4941350000000 1.0
C      1  0.4893240000000  0.5029930000000  0.5695680000000 1.0
C      1  0.5103210000000  0.4281440000000  0.4982640000000 1.0
C      1  0.4919230000000  0.4980480000000  0.4371730000000 1.0
C      1  0.6070010000000  0.4951200000000  0.5082000000000 1.0
C      1  0.3973590000000  0.4850340000000  0.4963750000000 1.0
C      1  0.6027300000000  0.5138580000000  0.4881590000000 1.0
C      1  0.4021120000000  0.5109680000000  0.5100570000000 1.0
C      1  0.4667350000000  0.5149570000000  0.4468560000000 1.0
C      1  0.5412170000000  0.5604250000000  0.5105250000000 1.0
C      1  0.4576640000000  0.4955980000000  0.5602880000000 1.0
C      1  0.5415980000000  0.4411230000000  0.4951650000000 1.0
C      1  0.5740530000000  0.5262180000000  0.4892280000000 1.0
C      1  0.4281970000000  0.5141960000000  0.5252790000000 1.0
C      1  0.5812090000000  0.4789470000000  0.5128700000000 1.0
C      1  0.4244590000000  0.4947860000000  0.4782660000000 1.0
C      1  0.4558440000000  0.4177850000000  0.5447070000000 1.0
C      1  0.5405610000000  0.4492700000000  0.4005680000000 1.0
C      1  0.4574550000000  0.5907050000000  0.4479070000000 1.0
C      1  0.5409960000000  0.5505520000000  0.5909790000000 1.0
C      1  0.5136710000000  0.4880550000000  0.5537440000000 1.0
C      1  0.4801660000000  0.4317330000000  0.4837310000000 1.0
C      1  0.5174130000000  0.5151180000000  0.4384150000000 1.0
C      1  0.4945780000000  0.5471210000000  0.5142630000000 1.0
C      1  0.6022330000000  0.4777940000000  0.4573670000000 1.0
C      1  0.4014950000000  0.5369090000000  0.4711830000000 1.0
C      1  0.6000750000000  0.5277150000000  0.5421860000000 1.0
C      1  0.3981260000000  0.4646390000000  0.5396620000000 1.0
C      1  0.5525330000000  0.5504870000000  0.4800310000000 1.0
C      1  0.4431990000000  0.5255420000000  0.5531760000000 1.0
C      1  0.5531140000000  0.4433660000000  0.5270970000000 1.0
C      1  0.4441370000000  0.4724010000000  0.4620180000000 1.0
END
