TITL C-3289335-9438-98 -0.00162693597221511 125000 -904.52078029845 0 0 172 (C1) n - 1
REM
REM in /nfs/bkarasulu/CARBON/AIRSS/Generating-Clusters/AIREBO/with-SteepDescent/Higher-Symm/SD-CG/HFTN-CG
REM
REM
REM
REM
REM
REM ./C.cell (b20cbc046b6831c77cfcea5457e17084)
REM
REM compiler GCC version 9.2.1 20190827 (Red Hat 9.2.1-1)
REM options -cpp -mtune=generic -march=x86-64 -g -O0 -fpre-include=/usr/include/finclude/math-vector-fortran.h
REM seed 507065511 -1732478651 -1259417492 1779100929 2124489030 996751919 -1871600995 425989216 -245585630 -1959691873 1848625187 -2082198141 1529951980 -732523608 1622414514 -596278945 -245103852 -66559068 1558177905 -1333826776 858452414 -888095603 180957265 309706215 710469221 -1340741417 183454182 1270271572 469992511 1703673578 -1315099621 -1586114573 988754219
REM
CELL 1.54180   50.00000   50.00000   50.00000   90.00000   90.00000   90.00000
LATT -1
SFAC C  
C      1  0.5441440000000  0.4966490000000  0.5775840000000 1.0
C      1  0.4600610000000  0.5011630000000  0.5765470000000 1.0
C      1  0.4559300000000  0.4967020000000  0.4204360000000 1.0
C      1  0.5446670000000  0.5028470000000  0.4252680000000 1.0
C      1  0.3908710000000  0.4751340000000  0.5267460000000 1.0
C      1  0.6073250000000  0.5285920000000  0.5275560000000 1.0
C      1  0.5946280000000  0.4674090000000  0.4778750000000 1.0
C      1  0.3889000000000  0.5365000000000  0.4737300000000 1.0
C      1  0.5399750000000  0.5998160000000  0.4991630000000 1.0
C      1  0.4611080000000  0.4027660000000  0.5032870000000 1.0
C      1  0.4622120000000  0.6002750000000  0.4972890000000 1.0
C      1  0.5384810000000  0.4025420000000  0.4995380000000 1.0
C      1  0.5309750000000  0.4641820000000  0.4976990000000 1.0
C      1  0.4680200000000  0.5373270000000  0.5071070000000 1.0
C      1  0.4714200000000  0.4660600000000  0.4996120000000 1.0
C      1  0.5315250000000  0.5381360000000  0.4939720000000 1.0
C      1  0.4401120000000  0.5079200000000  0.4777000000000 1.0
C      1  0.5575310000000  0.4988330000000  0.4742990000000 1.0
C      1  0.5586400000000  0.5097600000000  0.5256910000000 1.0
C      1  0.4395700000000  0.4956940000000  0.5275610000000 1.0
C      1  0.5070630000000  0.4469290000000  0.4470190000000 1.0
C      1  0.4898540000000  0.5493020000000  0.4499140000000 1.0
C      1  0.4919600000000  0.4517120000000  0.5500090000000 1.0
C      1  0.5089250000000  0.5539080000000  0.5514170000000 1.0
C      1  0.5874010000000  0.5004260000000  0.4765760000000 1.0
C      1  0.4153090000000  0.4850730000000  0.4827500000000 1.0
C      1  0.4072300000000  0.5049180000000  0.5281370000000 1.0
C      1  0.5909190000000  0.4988490000000  0.5257040000000 1.0
C      1  0.5225860000000  0.4278150000000  0.5158130000000 1.0
C      1  0.4748820000000  0.5769740000000  0.5183520000000 1.0
C      1  0.4767250000000  0.4216800000000  0.4815720000000 1.0
C      1  0.5239420000000  0.5756110000000  0.4824790000000 1.0
C      1  0.4638430000000  0.4248300000000  0.5412880000000 1.0
C      1  0.5366460000000  0.5806680000000  0.5411270000000 1.0
C      1  0.5344840000000  0.4193830000000  0.4554830000000 1.0
C      1  0.4628260000000  0.5775570000000  0.4580560000000 1.0
C      1  0.4139080000000  0.5434930000000  0.5225100000000 1.0
C      1  0.5903010000000  0.4599530000000  0.5171610000000 1.0
C      1  0.5855730000000  0.5396550000000  0.4814660000000 1.0
C      1  0.4145450000000  0.4396550000000  0.4596580000000 1.0
C      1  0.5046110000000  0.5992750000000  0.4672240000000 1.0
C      1  0.4969620000000  0.3954680000000  0.4736690000000 1.0
C      1  0.4964550000000  0.6025410000000  0.5252780000000 1.0
C      1  0.5040640000000  0.4026640000000  0.5296530000000 1.0
C      1  0.5125210000000  0.4047770000000  0.5570370000000 1.0
C      1  0.4879130000000  0.6021400000000  0.5531950000000 1.0
C      1  0.4877690000000  0.3963990000000  0.4461260000000 1.0
C      1  0.5103050000000  0.5948470000000  0.4392110000000 1.0
C      1  0.4347500000000  0.5323280000000  0.5000960000000 1.0
C      1  0.5648830000000  0.4660560000000  0.4958900000000 1.0
C      1  0.5643250000000  0.5327150000000  0.5025030000000 1.0
C      1  0.4386990000000  0.4753540000000  0.5007930000000 1.0
C      1  0.4764220000000  0.4007270000000  0.5268650000000 1.0
C      1  0.5243510000000  0.6024660000000  0.5228300000000 1.0
C      1  0.5248210000000  0.3974380000000  0.4755360000000 1.0
C      1  0.4772760000000  0.6011160000000  0.4729670000000 1.0
C      1  0.5230160000000  0.5632690000000  0.5152370000000 1.0
C      1  0.4790900000000  0.4374560000000  0.5116520000000 1.0
C      1  0.4747390000000  0.5638630000000  0.4869390000000 1.0
C      1  0.5225530000000  0.4366710000000  0.4823540000000 1.0
C      1  0.4534460000000  0.5241990000000  0.5344890000000 1.0
C      1  0.5495080000000  0.4807930000000  0.5379990000000 1.0
C      1  0.5471470000000  0.5250650000000  0.4673430000000 1.0
C      1  0.4487160000000  0.4788700000000  0.4622650000000 1.0
C      1  0.5634140000000  0.5491270000000  0.5762380000000 1.0
C      1  0.4334110000000  0.4538690000000  0.5711190000000 1.0
C      1  0.4378220000000  0.5428650000000  0.4259520000000 1.0
C      1  0.5726010000000  0.4559440000000  0.4320490000000 1.0
C      1  0.5609440000000  0.4431600000000  0.4733420000000 1.0
C      1  0.4368600000000  0.5551160000000  0.4780110000000 1.0
C      1  0.4405030000000  0.4491760000000  0.5199820000000 1.0
C      1  0.5612270000000  0.5552250000000  0.5232630000000 1.0
C      1  0.6106020000000  0.4834600000000  0.5032600000000 1.0
C      1  0.3943220000000  0.5239850000000  0.5025180000000 1.0
C      1  0.3892530000000  0.4907480000000  0.4966560000000 1.0
C      1  0.6077550000000  0.5178700000000  0.4952780000000 1.0
C      1  0.3832520000000  0.5185200000000  0.4519990000000 1.0
C      1  0.6029130000000  0.4788940000000  0.4469470000000 1.0
C      1  0.6130030000000  0.5134960000000  0.5554890000000 1.0
C      1  0.3844620000000  0.4875260000000  0.5559470000000 1.0
C      1  0.5300840000000  0.5705920000000  0.5722240000000 1.0
C      1  0.4762220000000  0.4314350000000  0.5723080000000 1.0
C      1  0.4755730000000  0.5706900000000  0.4276600000000 1.0
C      1  0.5285250000000  0.4328060000000  0.4247390000000 1.0
C      1  0.4078610000000  0.4945630000000  0.5683360000000 1.0
C      1  0.5888540000000  0.5059450000000  0.5662310000000 1.0
C      1  0.5834100000000  0.4952840000000  0.4312940000000 1.0
C      1  0.4048030000000  0.5081670000000  0.4389990000000 1.0
C      1  0.5031330000000  0.5206250000000  0.4384860000000 1.0
C      1  0.4924140000000  0.4695140000000  0.4283060000000 1.0
C      1  0.5000140000000  0.5283140000000  0.5719570000000 1.0
C      1  0.5060000000000  0.4755610000000  0.5697640000000 1.0
C      1  0.5171180000000  0.4315910000000  0.5609080000000 1.0
C      1  0.4855600000000  0.5764410000000  0.5615430000000 1.0
C      1  0.4855050000000  0.4221120000000  0.4383150000000 1.0
C      1  0.5146610000000  0.5671870000000  0.4350430000000 1.0
C      1  0.5132120000000  0.5402710000000  0.4051540000000 1.0
C      1  0.5153270000000  0.4645520000000  0.3877530000000 1.0
C      1  0.4714910000000  0.5254190000000  0.6124380000000 1.0
C      1  0.4922820000000  0.4615570000000  0.6119660000000 1.0
C      1  0.4592100000000  0.5377490000000  0.4591470000000 1.0
C      1  0.5383520000000  0.4588770000000  0.4533480000000 1.0
C      1  0.5385420000000  0.5394160000000  0.5430910000000 1.0
C      1  0.4610960000000  0.4645320000000  0.5422890000000 1.0
C      1  0.5388520000000  0.5619750000000  0.4550970000000 1.0
C      1  0.4637420000000  0.4388230000000  0.4547390000000 1.0
C      1  0.4631750000000  0.5608570000000  0.5460400000000 1.0
C      1  0.5406220000000  0.4413360000000  0.5413030000000 1.0
C      1  0.5380980000000  0.4652240000000  0.5654060000000 1.0
C      1  0.4671920000000  0.5321810000000  0.5639180000000 1.0
C      1  0.4614170000000  0.4663510000000  0.4347720000000 1.0
C      1  0.5347510000000  0.5328110000000  0.4380090000000 1.0
C      1  0.5661500000000  0.4371500000000  0.5233600000000 1.0
C      1  0.4368330000000  0.5664830000000  0.5252370000000 1.0
C      1  0.4372340000000  0.4298590000000  0.4709810000000 1.0
C      1  0.5686280000000  0.5670950000000  0.4706990000000 1.0
C      1  0.5057450000000  0.4571480000000  0.5193980000000 1.0
C      1  0.4984740000000  0.5405400000000  0.5219510000000 1.0
C      1  0.4954840000000  0.4567540000000  0.4774420000000 1.0
C      1  0.5029730000000  0.5495740000000  0.4794700000000 1.0
C      1  0.4167030000000  0.4696270000000  0.4554950000000 1.0
C      1  0.5720300000000  0.5401800000000  0.4502470000000 1.0
C      1  0.5803410000000  0.4730510000000  0.5451630000000 1.0
C      1  0.4236980000000  0.5256130000000  0.5488120000000 1.0
C      1  0.4311770000000  0.5211000000000  0.4494780000000 1.0
C      1  0.5632790000000  0.4799880000000  0.4522330000000 1.0
C      1  0.5652030000000  0.5229740000000  0.5563260000000 1.0
C      1  0.4339520000000  0.4809980000000  0.5545040000000 1.0
C      1  0.4251080000000  0.4842360000000  0.4275640000000 1.0
C      1  0.5707530000000  0.5245730000000  0.4232020000000 1.0
C      1  0.5736850000000  0.4798840000000  0.5759200000000 1.0
C      1  0.4307920000000  0.5161940000000  0.5779110000000 1.0
C      1  0.5448470000000  0.5399120000000  0.4063170000000 1.0
C      1  0.4387430000000  0.4570300000000  0.4119260000000 1.0
C      1  0.4528210000000  0.5360900000000  0.5944890000000 1.0
C      1  0.5577060000000  0.4530770000000  0.5894140000000 1.0
C      1  0.5038590000000  0.5099980000000  0.4065620000000 1.0
C      1  0.5003140000000  0.4837780000000  0.4022450000000 1.0
C      1  0.4935650000000  0.5116490000000  0.5998040000000 1.0
C      1  0.5010310000000  0.4852110000000  0.5984940000000 1.0
C      1  0.4709800000000  0.4933880000000  0.5160230000000 1.0
C      1  0.5281780000000  0.5094850000000  0.5105820000000 1.0
C      1  0.5301510000000  0.4925020000000  0.4856090000000 1.0
C      1  0.4718760000000  0.5087390000000  0.4891010000000 1.0
C      1  0.5116220000000  0.4975690000000  0.4629900000000 1.0
C      1  0.4818510000000  0.4860030000000  0.4666420000000 1.0
C      1  0.4915070000000  0.5098260000000  0.5324820000000 1.0
C      1  0.5163460000000  0.4866030000000  0.5327720000000 1.0
C      1  0.4592820000000  0.5291460000000  0.4119840000000 1.0
C      1  0.5533720000000  0.4717070000000  0.4145680000000 1.0
C      1  0.5476710000000  0.5254730000000  0.5919910000000 1.0
C      1  0.4543210000000  0.4690870000000  0.5865780000000 1.0
C      1  0.4827320000000  0.5456400000000  0.4107400000000 1.0
C      1  0.5349320000000  0.4525020000000  0.4045240000000 1.0
C      1  0.5253540000000  0.5446120000000  0.5872900000000 1.0
C      1  0.4727060000000  0.4491880000000  0.5953380000000 1.0
C      1  0.4716850000000  0.5098830000000  0.4446750000000 1.0
C      1  0.5224800000000  0.4825240000000  0.4374220000000 1.0
C      1  0.5247270000000  0.5107800000000  0.5551970000000 1.0
C      1  0.4804170000000  0.4895410000000  0.5546620000000 1.0
C      1  0.5597840000000  0.4226200000000  0.4993300000000 1.0
C      1  0.4400640000000  0.5793310000000  0.4992970000000 1.0
C      1  0.4408410000000  0.4245500000000  0.4984570000000 1.0
C      1  0.5613210000000  0.5788740000000  0.4988280000000 1.0
C      1  0.4052730000000  0.5582550000000  0.4658250000000 1.0
C      1  0.5928690000000  0.4365730000000  0.4636550000000 1.0
C      1  0.5928530000000  0.5553490000000  0.5357510000000 1.0
C      1  0.4078860000000  0.4496630000000  0.5296090000000 1.0
C      1  0.5666970000000  0.5702810000000  0.5532560000000 1.0
C      1  0.4315680000000  0.4328140000000  0.5484210000000 1.0
C      1  0.4327330000000  0.5668540000000  0.4463630000000 1.0
C      1  0.5659970000000  0.4259330000000  0.4444620000000 1.0
END
