TITL C-3289331-6719-203 0.00113620356858776 125000 -688.517403360322 0 0 123 (C1) n - 1
REM
REM in /nfs/bkarasulu/CARBON/AIRSS/Generating-Clusters/AIREBO/with-SteepDescent/Higher-Symm/SD-CG/HFTN-CG
REM
REM
REM
REM
REM
REM ./C.cell (b20cbc046b6831c77cfcea5457e17084)
REM
REM compiler GCC version 9.2.1 20190827 (Red Hat 9.2.1-1)
REM options -cpp -mtune=generic -march=x86-64 -g -O0 -fpre-include=/usr/include/finclude/math-vector-fortran.h
REM seed 931114798 1737706352 7730261 -1533082505 771821376 -1197489187 85649869 1476449292 -1193120965 -1630432675 -704706228 242394969 448755250 1153434218 -1704451648 1701496583 -1247345527 -163270979 -1898983612 596208486 779119576 925254283 -655390708 -1490172939 457960872 -1843693715 -1755866501 -557915969 921282385 677137131 -1441382002 1123467582 583762497
REM
CELL 1.54180   50.00000   50.00000   50.00000   90.00000   90.00000   90.00000
LATT -1
SFAC C  
C      1  0.4759560000000  0.4755110000000  0.5366280000000 1.0
C      1  0.5607460000000  0.5354800000000  0.4438860000000 1.0
C      1  0.5801820000000  0.4932220000000  0.5382850000000 1.0
C      1  0.5689410000000  0.4659000000000  0.5306180000000 1.0
C      1  0.4834890000000  0.5161970000000  0.5410670000000 1.0
C      1  0.4824440000000  0.5617620000000  0.5172180000000 1.0
C      1  0.4434710000000  0.4307210000000  0.5366570000000 1.0
C      1  0.5499520000000  0.5247570000000  0.5111920000000 1.0
C      1  0.4420710000000  0.4778530000000  0.5577020000000 1.0
C      1  0.5745020000000  0.4565660000000  0.4679510000000 1.0
C      1  0.5664970000000  0.4618250000000  0.4999600000000 1.0
C      1  0.5533510000000  0.4404930000000  0.5429910000000 1.0
C      1  0.5490570000000  0.5667590000000  0.4453870000000 1.0
C      1  0.5036220000000  0.4078600000000  0.5580700000000 1.0
C      1  0.5773420000000  0.4876150000000  0.4267500000000 1.0
C      1  0.4523350000000  0.4385680000000  0.4683420000000 1.0
C      1  0.5790460000000  0.5643590000000  0.5236130000000 1.0
C      1  0.4282200000000  0.5456070000000  0.4423340000000 1.0
C      1  0.5484040000000  0.4973540000000  0.4117240000000 1.0
C      1  0.4989010000000  0.5332420000000  0.5159550000000 1.0
C      1  0.5046490000000  0.5419920000000  0.4670270000000 1.0
C      1  0.5091400000000  0.4317210000000  0.5715620000000 1.0
C      1  0.5693350000000  0.5335790000000  0.5579330000000 1.0
C      1  0.4599900000000  0.5642600000000  0.5549570000000 1.0
C      1  0.4994910000000  0.4607300000000  0.5794820000000 1.0
C      1  0.4059470000000  0.4984650000000  0.5062360000000 1.0
C      1  0.5034140000000  0.4102980000000  0.5250190000000 1.0
C      1  0.4173600000000  0.4958870000000  0.4527180000000 1.0
C      1  0.5180580000000  0.5910070000000  0.4753810000000 1.0
C      1  0.5483080000000  0.5513360000000  0.5650770000000 1.0
C      1  0.5411370000000  0.4781860000000  0.5447760000000 1.0
C      1  0.4882150000000  0.5605030000000  0.5577140000000 1.0
C      1  0.4528360000000  0.4682350000000  0.5140240000000 1.0
C      1  0.4440160000000  0.4928260000000  0.4957210000000 1.0
C      1  0.4248120000000  0.4511910000000  0.5229860000000 1.0
C      1  0.5873550000000  0.5289860000000  0.4592250000000 1.0
C      1  0.4940970000000  0.5735070000000  0.4319880000000 1.0
C      1  0.4805120000000  0.4464770000000  0.4154330000000 1.0
C      1  0.5405560000000  0.5122840000000  0.4398710000000 1.0
C      1  0.4678780000000  0.4967590000000  0.4186780000000 1.0
C      1  0.4635940000000  0.5037570000000  0.5619720000000 1.0
C      1  0.4795400000000  0.4237980000000  0.4610480000000 1.0
C      1  0.4420020000000  0.4467660000000  0.5699090000000 1.0
C      1  0.4445540000000  0.5518080000000  0.5098320000000 1.0
C      1  0.5559670000000  0.5635390000000  0.4756240000000 1.0
C      1  0.4099370000000  0.5149920000000  0.4767890000000 1.0
C      1  0.4190620000000  0.5419410000000  0.4698230000000 1.0
C      1  0.5361770000000  0.5648510000000  0.5444340000000 1.0
C      1  0.4183940000000  0.4808770000000  0.5333520000000 1.0
C      1  0.4789530000000  0.4003000000000  0.5079300000000 1.0
C      1  0.4249450000000  0.4781400000000  0.4748220000000 1.0
C      1  0.5539610000000  0.4669210000000  0.4353750000000 1.0
C      1  0.4995160000000  0.5176130000000  0.4857650000000 1.0
C      1  0.5293380000000  0.5455040000000  0.5850970000000 1.0
C      1  0.4397960000000  0.5029250000000  0.4368580000000 1.0
C      1  0.4607400000000  0.5695380000000  0.4679650000000 1.0
C      1  0.4787830000000  0.4988120000000  0.5142230000000 1.0
C      1  0.4684320000000  0.4460020000000  0.5498290000000 1.0
C      1  0.5283990000000  0.5508770000000  0.5144280000000 1.0
C      1  0.4748990000000  0.5223440000000  0.4014200000000 1.0
C      1  0.4917820000000  0.4190840000000  0.4867110000000 1.0
C      1  0.5233250000000  0.4777950000000  0.4254130000000 1.0
C      1  0.4527940000000  0.4101290000000  0.5157220000000 1.0
C      1  0.5825680000000  0.5394880000000  0.5333100000000 1.0
C      1  0.5752860000000  0.5946900000000  0.5167880000000 1.0
C      1  0.5173510000000  0.5698390000000  0.4522050000000 1.0
C      1  0.5864390000000  0.4806730000000  0.4555480000000 1.0
C      1  0.5413950000000  0.4867910000000  0.4599580000000 1.0
C      1  0.5025120000000  0.5364410000000  0.5714060000000 1.0
C      1  0.4641690000000  0.4661570000000  0.4251960000000 1.0
C      1  0.5218190000000  0.4976410000000  0.4843230000000 1.0
C      1  0.5625290000000  0.4898470000000  0.4858290000000 1.0
C      1  0.5201580000000  0.4859360000000  0.5891990000000 1.0
C      1  0.4592360000000  0.5252120000000  0.5130090000000 1.0
C      1  0.5141420000000  0.5795070000000  0.5024680000000 1.0
C      1  0.4927280000000  0.4750510000000  0.4990640000000 1.0
C      1  0.5133490000000  0.5114390000000  0.5510280000000 1.0
C      1  0.4418710000000  0.5444450000000  0.5648030000000 1.0
C      1  0.5816660000000  0.5133960000000  0.5116360000000 1.0
C      1  0.4559390000000  0.4386020000000  0.4995430000000 1.0
C      1  0.5307520000000  0.4443070000000  0.4324690000000 1.0
C      1  0.4884420000000  0.4814850000000  0.4659520000000 1.0
C      1  0.4551940000000  0.5263510000000  0.5819110000000 1.0
C      1  0.4370160000000  0.5587310000000  0.4843370000000 1.0
C      1  0.5318710000000  0.5035400000000  0.5257540000000 1.0
C      1  0.5066920000000  0.5768030000000  0.5355380000000 1.0
C      1  0.4117420000000  0.4404010000000  0.4973210000000 1.0
C      1  0.4984690000000  0.4354870000000  0.4384720000000 1.0
C      1  0.4857410000000  0.5446820000000  0.4211410000000 1.0
C      1  0.5532510000000  0.5717990000000  0.5043720000000 1.0
C      1  0.5657380000000  0.5363700000000  0.4833900000000 1.0
C      1  0.4241110000000  0.5313480000000  0.5466670000000 1.0
C      1  0.5428000000000  0.4908650000000  0.5736040000000 1.0
C      1  0.4543500000000  0.5722490000000  0.5279590000000 1.0
C      1  0.5241210000000  0.4755220000000  0.5087190000000 1.0
C      1  0.5310700000000  0.4078640000000  0.4812980000000 1.0
C      1  0.5084870000000  0.4571710000000  0.4622650000000 1.0
C      1  0.4993910000000  0.4824750000000  0.5552720000000 1.0
C      1  0.5229190000000  0.4511200000000  0.5486800000000 1.0
C      1  0.4971250000000  0.4952790000000  0.4360110000000 1.0
C      1  0.4907470000000  0.4962960000000  0.5941550000000 1.0
C      1  0.5897540000000  0.5046620000000  0.4797550000000 1.0
C      1  0.5310650000000  0.4250000000000  0.4607510000000 1.0
C      1  0.5271440000000  0.4178750000000  0.5064580000000 1.0
C      1  0.4631410000000  0.4640370000000  0.4537060000000 1.0
C      1  0.4617320000000  0.5485320000000  0.4416930000000 1.0
C      1  0.4957080000000  0.4407630000000  0.5351220000000 1.0
C      1  0.4686390000000  0.5065370000000  0.4766750000000 1.0
C      1  0.4685420000000  0.4749070000000  0.5791070000000 1.0
C      1  0.4240790000000  0.4503910000000  0.4750380000000 1.0
C      1  0.4869030000000  0.4463410000000  0.5058310000000 1.0
C      1  0.5406120000000  0.4544530000000  0.4704640000000 1.0
C      1  0.4835640000000  0.5229370000000  0.5907100000000 1.0
C      1  0.4572660000000  0.5202250000000  0.4528380000000 1.0
C      1  0.5099780000000  0.5268880000000  0.4370220000000 1.0
C      1  0.5330120000000  0.5475720000000  0.4229540000000 1.0
C      1  0.6110270000000  0.5374960000000  0.4479700000000 1.0
C      1  0.4303970000000  0.5153220000000  0.5173440000000 1.0
C      1  0.5392630000000  0.4463130000000  0.5125570000000 1.0
C      1  0.4720790000000  0.5870710000000  0.4429910000000 1.0
C      1  0.4879520000000  0.5662030000000  0.4839580000000 1.0
C      1  0.5676360000000  0.5052430000000  0.5614050000000 1.0
C      1  0.4067970000000  0.5077420000000  0.5485710000000 1.0
END
