TITL C-3289320-4661-348 -0.000180207574160348 125000 -165.511869993335 0 0 34 (Ci) n - 1
REM
REM in /nfs/bkarasulu/CARBON/AIRSS/Generating-Clusters/AIREBO/with-SteepDescent/Higher-Symm/SD-CG/HFTN-CG
REM
REM
REM
REM
REM
REM ./C.cell (b20cbc046b6831c77cfcea5457e17084)
REM
REM compiler GCC version 9.2.1 20190827 (Red Hat 9.2.1-1)
REM options -cpp -mtune=generic -march=x86-64 -g -O0 -fpre-include=/usr/include/finclude/math-vector-fortran.h
REM seed 2002767835 -95056263 1491631990 -907343119 1817439918 -1243453776 444257463 -1856558050 -534854978 522531263 -375074889 451249959 -92229152 1330670488 -1947242296 -1734594911 -333992315 400958555 922386440 1616409993 -85110149 -1636907986 1417649415 1607570622 1959725440 962841464 115416330 1328024489 246427918 -37847025 -521097001 -1437533858 1768366504
REM
CELL 1.54180   50.00000   50.00000   50.00000   90.00000   90.00000   90.00000
LATT -1
SFAC C  
C      1  0.5132110000000  0.5397500000000  0.4656610000000 1.0
C      1  0.4867800000000  0.4602750000000  0.5343340000000 1.0
C      1  0.5508150000000  0.5153620000000  0.4357530000000 1.0
C      1  0.4493410000000  0.4846970000000  0.5642320000000 1.0
C      1  0.5258970000000  0.5681740000000  0.4774430000000 1.0
C      1  0.4740010000000  0.4318640000000  0.5226520000000 1.0
C      1  0.5482410000000  0.5528860000000  0.5198090000000 1.0
C      1  0.4514340000000  0.4470930000000  0.4803550000000 1.0
C      1  0.4961160000000  0.5143760000000  0.4540180000000 1.0
C      1  0.5039940000000  0.4855900000000  0.5458860000000 1.0
C      1  0.4921870000000  0.4708960000000  0.4961540000000 1.0
C      1  0.5076680000000  0.5288720000000  0.5037460000000 1.0
C      1  0.4915630000000  0.5097040000000  0.5497120000000 1.0
C      1  0.5086480000000  0.4903030000000  0.4502350000000 1.0
C      1  0.5116200000000  0.4437360000000  0.5177110000000 1.0
C      1  0.4883170000000  0.5561800000000  0.4823010000000 1.0
C      1  0.5247610000000  0.5565260000000  0.5038700000000 1.0
C      1  0.4749610000000  0.4434160000000  0.4962000000000 1.0
C      1  0.5213760000000  0.4551890000000  0.4902410000000 1.0
C      1  0.4787240000000  0.5449690000000  0.5098820000000 1.0
C      1  0.5550000000000  0.4684610000000  0.4751560000000 1.0
C      1  0.4451000000000  0.5315830000000  0.5248330000000 1.0
C      1  0.4436550000000  0.4745130000000  0.4817710000000 1.0
C      1  0.5561690000000  0.5255130000000  0.5183100000000 1.0
C      1  0.5369240000000  0.5153890000000  0.4626790000000 1.0
C      1  0.4632360000000  0.4846580000000  0.5373000000000 1.0
C      1  0.4711220000000  0.4921350000000  0.4895400000000 1.0
C      1  0.5288510000000  0.5077750000000  0.5102830000000 1.0
C      1  0.4852760000000  0.5165310000000  0.4820180000000 1.0
C      1  0.5147470000000  0.4833600000000  0.5178500000000 1.0
C      1  0.4707710000000  0.5152800000000  0.5244450000000 1.0
C      1  0.5293690000000  0.4848260000000  0.4755970000000 1.0
C      1  0.5546230000000  0.5119680000000  0.4894400000000 1.0
C      1  0.4455040000000  0.4881520000000  0.5105820000000 1.0
END
