TITL C-3289322-3858-544 -0.00227659461661917 125000 -434.022313942371 0 0 77 (C1) n - 1
REM
REM in /nfs/bkarasulu/CARBON/AIRSS/Generating-Clusters/AIREBO/with-SteepDescent/Higher-Symm/SD-CG/HFTN-CG
REM
REM
REM
REM
REM
REM ./C.cell (b20cbc046b6831c77cfcea5457e17084)
REM
REM compiler GCC version 9.2.1 20190827 (Red Hat 9.2.1-1)
REM options -cpp -mtune=generic -march=x86-64 -g -O0 -fpre-include=/usr/include/finclude/math-vector-fortran.h
REM seed -713688331 1984138171 391950017 1351540872 1291756441 -1748520179 -342545049 1778886862 405653409 976355171 -1478726102 -30071162 -1920022790 1304610601 202957726 -1296212331 493033512 -2117539688 1123002372 -1407419411 1630385580 1423792500 -601344517 -621117412 100054496 -1450183315 859761697 -1296550954 202412939 -307420192 726628338 -844372820 -1937942894
REM
CELL 1.54180   50.00000   50.00000   50.00000   90.00000   90.00000   90.00000
LATT -1
SFAC C  
C      1  0.5301880000000  0.4707820000000  0.4446030000000 1.0
C      1  0.4578650000000  0.5292020000000  0.5492010000000 1.0
C      1  0.4429640000000  0.5190840000000  0.5007120000000 1.0
C      1  0.5614810000000  0.4955380000000  0.4862780000000 1.0
C      1  0.5068390000000  0.4761540000000  0.5382350000000 1.0
C      1  0.4924110000000  0.5238990000000  0.4629990000000 1.0
C      1  0.4766220000000  0.5221140000000  0.5217320000000 1.0
C      1  0.5238380000000  0.4761630000000  0.4773170000000 1.0
C      1  0.5620330000000  0.4940610000000  0.4500940000000 1.0
C      1  0.4289910000000  0.4976010000000  0.5399670000000 1.0
C      1  0.5086880000000  0.5661000000000  0.4930960000000 1.0
C      1  0.4901030000000  0.4322540000000  0.5060010000000 1.0
C      1  0.5103940000000  0.5940240000000  0.4737350000000 1.0
C      1  0.4968790000000  0.4131910000000  0.5330900000000 1.0
C      1  0.5435850000000  0.5215780000000  0.4563300000000 1.0
C      1  0.4519510000000  0.4746220000000  0.5436750000000 1.0
C      1  0.4961980000000  0.4388130000000  0.4526080000000 1.0
C      1  0.4971940000000  0.5646350000000  0.5439700000000 1.0
C      1  0.5351670000000  0.4958990000000  0.5025940000000 1.0
C      1  0.4720690000000  0.5058250000000  0.4922330000000 1.0
C      1  0.4064990000000  0.5393000000000  0.5643560000000 1.0
C      1  0.5940570000000  0.4538330000000  0.4639720000000 1.0
C      1  0.4622990000000  0.5748820000000  0.4908610000000 1.0
C      1  0.5429470000000  0.4326530000000  0.5015160000000 1.0
C      1  0.4469250000000  0.4608530000000  0.4524050000000 1.0
C      1  0.5499040000000  0.5370310000000  0.5527010000000 1.0
C      1  0.4787780000000  0.5867770000000  0.4765770000000 1.0
C      1  0.5260850000000  0.4243200000000  0.5210030000000 1.0
C      1  0.4230610000000  0.4781300000000  0.4938620000000 1.0
C      1  0.5804870000000  0.5193030000000  0.5121570000000 1.0
C      1  0.5603490000000  0.5436790000000  0.5049780000000 1.0
C      1  0.4407740000000  0.4567550000000  0.5001670000000 1.0
C      1  0.5257210000000  0.5190670000000  0.5517020000000 1.0
C      1  0.4678660000000  0.4797290000000  0.4369330000000 1.0
C      1  0.4546220000000  0.4999310000000  0.5662270000000 1.0
C      1  0.5347650000000  0.5002600000000  0.4307500000000 1.0
C      1  0.5277650000000  0.4984710000000  0.5329960000000 1.0
C      1  0.4690890000000  0.5011600000000  0.4622750000000 1.0
C      1  0.4883420000000  0.4949080000000  0.5681240000000 1.0
C      1  0.5037160000000  0.5018380000000  0.4205240000000 1.0
C      1  0.5466960000000  0.4903810000000  0.5699430000000 1.0
C      1  0.4558160000000  0.5165870000000  0.4281200000000 1.0
C      1  0.4842050000000  0.5208540000000  0.4314230000000 1.0
C      1  0.5202020000000  0.4827350000000  0.5688150000000 1.0
C      1  0.5181880000000  0.6189700000000  0.4657870000000 1.0
C      1  0.4972090000000  0.3940900000000  0.5526210000000 1.0
C      1  0.5766720000000  0.5234600000000  0.4787080000000 1.0
C      1  0.4255680000000  0.5009490000000  0.5107010000000 1.0
C      1  0.5857680000000  0.5076140000000  0.5366680000000 1.0
C      1  0.4158320000000  0.4822650000000  0.4660500000000 1.0
C      1  0.5012210000000  0.4629100000000  0.5098780000000 1.0
C      1  0.4910940000000  0.5409950000000  0.4875840000000 1.0
C      1  0.4787560000000  0.4913160000000  0.5360080000000 1.0
C      1  0.5175310000000  0.5075970000000  0.4659890000000 1.0
C      1  0.5088590000000  0.4561000000000  0.4330860000000 1.0
C      1  0.4852250000000  0.5424720000000  0.5566600000000 1.0
C      1  0.4259450000000  0.5249500000000  0.5555280000000 1.0
C      1  0.5714830000000  0.4683650000000  0.4696580000000 1.0
C      1  0.4485890000000  0.4508310000000  0.5264140000000 1.0
C      1  0.5520520000000  0.5463530000000  0.4735480000000 1.0
C      1  0.5330940000000  0.5689040000000  0.4705920000000 1.0
C      1  0.4676490000000  0.4304440000000  0.5286750000000 1.0
C      1  0.3899440000000  0.4776980000000  0.4578110000000 1.0
C      1  0.6085560000000  0.4945130000000  0.5425290000000 1.0
C      1  0.5023230000000  0.5225080000000  0.5658670000000 1.0
C      1  0.4918260000000  0.4755530000000  0.4213080000000 1.0
C      1  0.5375280000000  0.5443570000000  0.5233020000000 1.0
C      1  0.4604730000000  0.4511120000000  0.4778060000000 1.0
C      1  0.4622090000000  0.5453310000000  0.5009990000000 1.0
C      1  0.5474920000000  0.4530700000000  0.4849330000000 1.0
C      1  0.5097420000000  0.5278090000000  0.5127730000000 1.0
C      1  0.4934020000000  0.4607560000000  0.4783180000000 1.0
C      1  0.5144730000000  0.5660800000000  0.5230710000000 1.0
C      1  0.4805720000000  0.4237000000000  0.4768260000000 1.0
C      1  0.4370340000000  0.4925470000000  0.4433500000000 1.0
C      1  0.5642840000000  0.5097730000000  0.5560640000000 1.0
C      1  0.5011720000000  0.4962820000000  0.5033380000000 1.0
END
