TITL C-3289334-2237-578 0.000744932604101015 125000 -196.501291356875 0 0 32 (Cs) n - 1
REM
REM in /nfs/bkarasulu/CARBON/AIRSS/Generating-Clusters/AIREBO/with-SteepDescent/Higher-Symm/SD-CG/HFTN-CG
REM
REM
REM
REM
REM
REM ./C.cell (b20cbc046b6831c77cfcea5457e17084)
REM
REM compiler GCC version 9.2.1 20190827 (Red Hat 9.2.1-1)
REM options -cpp -mtune=generic -march=x86-64 -g -O0 -fpre-include=/usr/include/finclude/math-vector-fortran.h
REM seed 1569925125 -696690558 445932609 300277628 623989898 893816745 -1237716525 861480969 -184131526 1014660678 -2145777320 -1089152579 -1904991514 1811234967 -1562354636 588298144 -1694606264 1129764844 749372635 1013126336 778487471 -1822671509 -579423951 434507794 863372817 -742401995 688531382 1004124852 1236416571 -1001200872 1605929059 -184089659 281378385
REM
CELL 1.54180   50.00000   50.00000   50.00000   90.00000   90.00000   90.00000
LATT -1
SFAC C  
C      1  0.4847300000000  0.5120650000000  0.4511570000000 1.0
C      1  0.4489590000000  0.4846960000000  0.5143980000000 1.0
C      1  0.5156160000000  0.4486080000000  0.4821050000000 1.0
C      1  0.5166210000000  0.5164210000000  0.5516000000000 1.0
C      1  0.4814380000000  0.4829810000000  0.5502590000000 1.0
C      1  0.5135210000000  0.4846960000000  0.4498320000000 1.0
C      1  0.5493840000000  0.4829810000000  0.4823080000000 1.0
C      1  0.4502830000000  0.5120660000000  0.4856070000000 1.0
C      1  0.5507270000000  0.5164210000000  0.5174920000000 1.0
C      1  0.4812320000000  0.4486080000000  0.5164920000000 1.0
C      1  0.5168920000000  0.5509190000000  0.5177650000000 1.0
C      1  0.4825220000000  0.5481340000000  0.4833970000000 1.0
C      1  0.4823340000000  0.4807700000000  0.4490410000000 1.0
C      1  0.4495730000000  0.5160540000000  0.5168350000000 1.0
C      1  0.5138230000000  0.5482550000000  0.4865880000000 1.0
C      1  0.5127720000000  0.4853510000000  0.5481360000000 1.0
C      1  0.4853680000000  0.5141290000000  0.5495090000000 1.0
C      1  0.5159580000000  0.5160540000000  0.4504450000000 1.0
C      1  0.5486340000000  0.5141290000000  0.4862390000000 1.0
C      1  0.4481660000000  0.4807700000000  0.4832110000000 1.0
C      1  0.5472630000000  0.4853510000000  0.5136430000000 1.0
C      1  0.4857150000000  0.5482550000000  0.5146980000000 1.0
C      1  0.5124550000000  0.4511970000000  0.5133280000000 1.0
C      1  0.4844000000000  0.4485630000000  0.4852750000000 1.0
C      1  0.4715990000000  0.5287160000000  0.5295170000000 1.0
C      1  0.5286260000000  0.4697010000000  0.4684170000000 1.0
C      1  0.4692840000000  0.4670690000000  0.4701600000000 1.0
C      1  0.5261460000000  0.4719260000000  0.5270190000000 1.0
C      1  0.5286420000000  0.5287160000000  0.4724710000000 1.0
C      1  0.4699330000000  0.5260410000000  0.4708080000000 1.0
C      1  0.4675450000000  0.4697010000000  0.5295020000000 1.0
C      1  0.5308290000000  0.5306030000000  0.5317010000000 1.0
END
