TITL C-3289332-8317-775 -0.00410337651649197 125000 -758.379310016119 0 0 143 (C1) n - 1
REM
REM in /nfs/bkarasulu/CARBON/AIRSS/Generating-Clusters/AIREBO/with-SteepDescent/Higher-Symm/SD-CG/HFTN-CG
REM
REM
REM
REM
REM
REM ./C.cell (b20cbc046b6831c77cfcea5457e17084)
REM
REM compiler GCC version 9.2.1 20190827 (Red Hat 9.2.1-1)
REM options -cpp -mtune=generic -march=x86-64 -g -O0 -fpre-include=/usr/include/finclude/math-vector-fortran.h
REM seed 1832333285 -1401276090 1294519160 1512843499 405734527 -2023504264 -1764812846 -1923168027 259010541 -519386807 877928800 -1396581353 1600922344 1457076348 1768276745 1849259296 -1269680442 -424470166 -1729552033 1251218727 -1600411038 -83012909 -629477381 -981242510 -313929258 -2005181951 1887692516 -1191674221 -2139415777 -526774832 -2052640545 -783535812 1577322177
REM
CELL 1.54180   50.00000   50.00000   50.00000   90.00000   90.00000   90.00000
LATT -1
SFAC C  
C      1  0.4660480000000  0.4434300000000  0.4876180000000 1.0
C      1  0.4338090000000  0.5567480000000  0.4656800000000 1.0
C      1  0.5168610000000  0.5914720000000  0.5581640000000 1.0
C      1  0.4621520000000  0.5381880000000  0.5792440000000 1.0
C      1  0.4635740000000  0.5339030000000  0.5374760000000 1.0
C      1  0.5102470000000  0.5531500000000  0.5506630000000 1.0
C      1  0.5063570000000  0.4880160000000  0.4416050000000 1.0
C      1  0.4653500000000  0.4581170000000  0.4601130000000 1.0
C      1  0.4525660000000  0.5781170000000  0.5388370000000 1.0
C      1  0.4958990000000  0.4120680000000  0.4457550000000 1.0
C      1  0.5473570000000  0.5768240000000  0.4316360000000 1.0
C      1  0.4153350000000  0.4792950000000  0.4482880000000 1.0
C      1  0.5422910000000  0.5527610000000  0.5392590000000 1.0
C      1  0.5513040000000  0.4987300000000  0.4727550000000 1.0
C      1  0.5161610000000  0.4444560000000  0.4998690000000 1.0
C      1  0.4785050000000  0.5418110000000  0.4092810000000 1.0
C      1  0.4789210000000  0.4502950000000  0.4233400000000 1.0
C      1  0.5873340000000  0.4833890000000  0.5220160000000 1.0
C      1  0.4705100000000  0.4708500000000  0.5832500000000 1.0
C      1  0.4107660000000  0.5061640000000  0.5272940000000 1.0
C      1  0.4715900000000  0.5023030000000  0.4929200000000 1.0
C      1  0.5028880000000  0.5201970000000  0.4085890000000 1.0
C      1  0.4593900000000  0.4618360000000  0.5433780000000 1.0
C      1  0.5884740000000  0.5438420000000  0.4780430000000 1.0
C      1  0.4797990000000  0.5629070000000  0.4503310000000 1.0
C      1  0.5682400000000  0.4826860000000  0.5681830000000 1.0
C      1  0.5379970000000  0.4834830000000  0.5145520000000 1.0
C      1  0.4828440000000  0.4683400000000  0.5213240000000 1.0
C      1  0.4324970000000  0.4555320000000  0.4516210000000 1.0
C      1  0.4933930000000  0.5474570000000  0.4845330000000 1.0
C      1  0.5522240000000  0.5439240000000  0.5799910000000 1.0
C      1  0.5238320000000  0.5308160000000  0.5666250000000 1.0
C      1  0.5731410000000  0.4375060000000  0.5201860000000 1.0
C      1  0.4829770000000  0.5551030000000  0.5916600000000 1.0
C      1  0.4619610000000  0.5021070000000  0.5255370000000 1.0
C      1  0.5987650000000  0.5333120000000  0.5193110000000 1.0
C      1  0.5477080000000  0.5062580000000  0.5688090000000 1.0
C      1  0.5825280000000  0.5573910000000  0.5367880000000 1.0
C      1  0.5270400000000  0.4989700000000  0.5427870000000 1.0
C      1  0.4868370000000  0.5581090000000  0.5320820000000 1.0
C      1  0.4518570000000  0.4245860000000  0.5806650000000 1.0
C      1  0.4882840000000  0.5110800000000  0.4358940000000 1.0
C      1  0.5890240000000  0.4685210000000  0.4795670000000 1.0
C      1  0.5802920000000  0.5008860000000  0.4337600000000 1.0
C      1  0.4201680000000  0.4887830000000  0.5616880000000 1.0
C      1  0.5204680000000  0.4287800000000  0.5459540000000 1.0
C      1  0.5195290000000  0.4217890000000  0.4659750000000 1.0
C      1  0.5516420000000  0.4391120000000  0.4356890000000 1.0
C      1  0.5358000000000  0.4344790000000  0.5711630000000 1.0
C      1  0.4981560000000  0.4961170000000  0.4798830000000 1.0
C      1  0.5738910000000  0.5602640000000  0.5040220000000 1.0
C      1  0.5079120000000  0.4984260000000  0.3855100000000 1.0
C      1  0.4577930000000  0.5900300000000  0.4861870000000 1.0
C      1  0.5406790000000  0.5139530000000  0.4981110000000 1.0
C      1  0.5046650000000  0.6001050000000  0.5124680000000 1.0
C      1  0.5151250000000  0.5211930000000  0.6075560000000 1.0
C      1  0.4493210000000  0.5111420000000  0.4688380000000 1.0
C      1  0.5459840000000  0.5477060000000  0.4922230000000 1.0
C      1  0.4235350000000  0.4970420000000  0.4286280000000 1.0
C      1  0.4893800000000  0.5190540000000  0.5501980000000 1.0
C      1  0.4418790000000  0.5499090000000  0.5545850000000 1.0
C      1  0.5308150000000  0.5296850000000  0.4188790000000 1.0
C      1  0.4898540000000  0.4298890000000  0.5008350000000 1.0
C      1  0.5083040000000  0.4755760000000  0.4999790000000 1.0
C      1  0.5323840000000  0.4098290000000  0.5213360000000 1.0
C      1  0.5719940000000  0.4515630000000  0.4215200000000 1.0
C      1  0.4905350000000  0.4256460000000  0.5505940000000 1.0
C      1  0.4533690000000  0.4665400000000  0.5042700000000 1.0
C      1  0.4737250000000  0.4258600000000  0.4370680000000 1.0
C      1  0.5438860000000  0.5644020000000  0.4626750000000 1.0
C      1  0.4634990000000  0.3901370000000  0.4940980000000 1.0
C      1  0.5575300000000  0.4584950000000  0.5764640000000 1.0
C      1  0.4531710000000  0.4024460000000  0.5213350000000 1.0
C      1  0.4538370000000  0.5366410000000  0.4228760000000 1.0
C      1  0.4788040000000  0.4152390000000  0.5276120000000 1.0
C      1  0.5656790000000  0.5280950000000  0.5405700000000 1.0
C      1  0.5570440000000  0.5186720000000  0.4490000000000 1.0
C      1  0.5511770000000  0.4277770000000  0.4630510000000 1.0
C      1  0.4330800000000  0.4520200000000  0.5261930000000 1.0
C      1  0.4463930000000  0.4245330000000  0.4501410000000 1.0
C      1  0.5430720000000  0.5201610000000  0.5995080000000 1.0
C      1  0.5232330000000  0.5402730000000  0.4505340000000 1.0
C      1  0.5722400000000  0.5178330000000  0.5094050000000 1.0
C      1  0.4499070000000  0.5559060000000  0.4436820000000 1.0
C      1  0.4074710000000  0.5133900000000  0.5663090000000 1.0
C      1  0.5892570000000  0.4987230000000  0.4909460000000 1.0
C      1  0.4314420000000  0.4228460000000  0.5160750000000 1.0
C      1  0.4956880000000  0.4666430000000  0.4631130000000 1.0
C      1  0.5012870000000  0.5545850000000  0.4288630000000 1.0
C      1  0.5564560000000  0.5879940000000  0.5124130000000 1.0
C      1  0.4335870000000  0.4847580000000  0.4834470000000 1.0
C      1  0.5306870000000  0.5926020000000  0.4731170000000 1.0
C      1  0.4513830000000  0.5758140000000  0.5083220000000 1.0
C      1  0.4546910000000  0.5059390000000  0.4348350000000 1.0
C      1  0.5147230000000  0.4832370000000  0.5703150000000 1.0
C      1  0.6010310000000  0.4633090000000  0.4565470000000 1.0
C      1  0.5231840000000  0.4521150000000  0.4490190000000 1.0
C      1  0.5258750000000  0.4856550000000  0.4068340000000 1.0
C      1  0.5263690000000  0.4621180000000  0.5829250000000 1.0
C      1  0.4148330000000  0.5360550000000  0.5433130000000 1.0
C      1  0.4119860000000  0.5420950000000  0.5103260000000 1.0
C      1  0.4085870000000  0.4733460000000  0.5358880000000 1.0
C      1  0.4501620000000  0.4901090000000  0.5550960000000 1.0
C      1  0.4758830000000  0.5307400000000  0.4606370000000 1.0
C      1  0.3973520000000  0.4584180000000  0.5095180000000 1.0
C      1  0.5940420000000  0.5142280000000  0.4622680000000 1.0
C      1  0.5540680000000  0.5058900000000  0.4117230000000 1.0
C      1  0.4135130000000  0.4575480000000  0.4871000000000 1.0
C      1  0.5707090000000  0.5577200000000  0.5669280000000 1.0
C      1  0.4187900000000  0.4316370000000  0.4695310000000 1.0
C      1  0.5177330000000  0.5551710000000  0.5070870000000 1.0
C      1  0.5444850000000  0.4458910000000  0.4857880000000 1.0
C      1  0.5002670000000  0.5106110000000  0.5804990000000 1.0
C      1  0.5649050000000  0.4658960000000  0.5033860000000 1.0
C      1  0.4847230000000  0.5806550000000  0.4742500000000 1.0
C      1  0.5884390000000  0.4714880000000  0.4327590000000 1.0
C      1  0.4392230000000  0.5349910000000  0.4912410000000 1.0
C      1  0.4453970000000  0.4173500000000  0.4851250000000 1.0
C      1  0.5686270000000  0.5447060000000  0.4557680000000 1.0
C      1  0.4971650000000  0.5431580000000  0.6140300000000 1.0
C      1  0.5266770000000  0.5810380000000  0.5272820000000 1.0
C      1  0.5607270000000  0.4132260000000  0.5214450000000 1.0
C      1  0.4672470000000  0.5469030000000  0.5062650000000 1.0
C      1  0.4910580000000  0.3970510000000  0.4943110000000 1.0
C      1  0.5779890000000  0.4973920000000  0.5444180000000 1.0
C      1  0.4021430000000  0.4940150000000  0.4741010000000 1.0
C      1  0.4340550000000  0.5063820000000  0.5088740000000 1.0
C      1  0.5360520000000  0.4950080000000  0.4379050000000 1.0
C      1  0.4005860000000  0.5252180000000  0.4879810000000 1.0
C      1  0.5067120000000  0.5970790000000  0.4849100000000 1.0
C      1  0.4831090000000  0.5888860000000  0.5284620000000 1.0
C      1  0.5302560000000  0.5626520000000  0.4151300000000 1.0
C      1  0.4612350000000  0.4735940000000  0.4307470000000 1.0
C      1  0.4994220000000  0.5721180000000  0.5747440000000 1.0
C      1  0.5260040000000  0.4548600000000  0.5291410000000 1.0
C      1  0.4696640000000  0.4419030000000  0.5670810000000 1.0
C      1  0.4668330000000  0.5044790000000  0.5796840000000 1.0
C      1  0.5203830000000  0.4049740000000  0.4952380000000 1.0
C      1  0.4952790000000  0.4948040000000  0.5322260000000 1.0
C      1  0.4176460000000  0.5205790000000  0.4608370000000 1.0
C      1  0.5263410000000  0.5274900000000  0.5248600000000 1.0
C      1  0.5075910000000  0.4611430000000  0.4217090000000 1.0
C      1  0.5145820000000  0.5217350000000  0.4777250000000 1.0
END
