TITL C-3289330-4660-362 -0.00288425349642605 125000 -712.511539430292 0 0 130 (C1) n - 1
REM
REM in /nfs/bkarasulu/CARBON/AIRSS/Generating-Clusters/AIREBO/with-SteepDescent/Higher-Symm/SD-CG/HFTN-CG
REM
REM
REM
REM
REM
REM ./C.cell (b20cbc046b6831c77cfcea5457e17084)
REM
REM compiler GCC version 9.2.1 20190827 (Red Hat 9.2.1-1)
REM options -cpp -mtune=generic -march=x86-64 -g -O0 -fpre-include=/usr/include/finclude/math-vector-fortran.h
REM seed -1852856601 831035565 1877166852 2098796414 535722491 1349661817 1622410840 1813342345 -85415191 1859787293 -1398136668 671361742 2507758 -1244393678 1067705931 -453643683 1781841884 -1643556129 -576129928 1561655350 -1801835314 1046580517 -1386420135 344315767 -1619969007 1662674784 -2044679663 409594317 523659969 -1415993743 18856289 1866765173 -1292104089
REM
CELL 1.54180   50.00000   50.00000   50.00000   90.00000   90.00000   90.00000
LATT -1
SFAC C  
C      1  0.4592210000000  0.5769290000000  0.5198770000000 1.0
C      1  0.4922660000000  0.5836880000000  0.5256760000000 1.0
C      1  0.5414970000000  0.5657230000000  0.5478050000000 1.0
C      1  0.5264720000000  0.5866040000000  0.4856090000000 1.0
C      1  0.5334770000000  0.5834760000000  0.4517690000000 1.0
C      1  0.4872640000000  0.5712930000000  0.4279790000000 1.0
C      1  0.4535980000000  0.5732680000000  0.4642490000000 1.0
C      1  0.4440270000000  0.5669520000000  0.5430270000000 1.0
C      1  0.5104940000000  0.5781000000000  0.5536820000000 1.0
C      1  0.5667920000000  0.5577400000000  0.5553960000000 1.0
C      1  0.5570080000000  0.5759330000000  0.4751250000000 1.0
C      1  0.5191440000000  0.5734020000000  0.4226250000000 1.0
C      1  0.4538200000000  0.5723230000000  0.4340250000000 1.0
C      1  0.4399240000000  0.5794120000000  0.4924830000000 1.0
C      1  0.5604880000000  0.4390070000000  0.6080700000000 1.0
C      1  0.6058020000000  0.4440100000000  0.5114580000000 1.0
C      1  0.5883240000000  0.4331610000000  0.4269250000000 1.0
C      1  0.4916550000000  0.4365690000000  0.3862240000000 1.0
C      1  0.4023950000000  0.4411660000000  0.4458320000000 1.0
C      1  0.3893720000000  0.4398470000000  0.5218360000000 1.0
C      1  0.4460170000000  0.4278530000000  0.6101490000000 1.0
C      1  0.5508940000000  0.4723670000000  0.4428050000000 1.0
C      1  0.4728260000000  0.4617780000000  0.4248200000000 1.0
C      1  0.4443850000000  0.4635320000000  0.4718810000000 1.0
C      1  0.4368340000000  0.4451400000000  0.5364050000000 1.0
C      1  0.4770380000000  0.4682050000000  0.5862120000000 1.0
C      1  0.5677930000000  0.4686930000000  0.5711820000000 1.0
C      1  0.5566150000000  0.4577810000000  0.5034620000000 1.0
C      1  0.4197670000000  0.5563370000000  0.4767560000000 1.0
C      1  0.4220340000000  0.5461380000000  0.5528170000000 1.0
C      1  0.4924460000000  0.5689940000000  0.5809240000000 1.0
C      1  0.5701290000000  0.5397360000000  0.5811510000000 1.0
C      1  0.5804270000000  0.5668770000000  0.4987170000000 1.0
C      1  0.5465250000000  0.5537270000000  0.4270070000000 1.0
C      1  0.4648400000000  0.5597660000000  0.4051150000000 1.0
C      1  0.4908060000000  0.5211680000000  0.4152820000000 1.0
C      1  0.4496830000000  0.5218920000000  0.4509470000000 1.0
C      1  0.4339180000000  0.5178700000000  0.5109820000000 1.0
C      1  0.4621180000000  0.5150890000000  0.5613760000000 1.0
C      1  0.5231050000000  0.5187820000000  0.5759440000000 1.0
C      1  0.5647300000000  0.5231590000000  0.5255510000000 1.0
C      1  0.5677270000000  0.5242780000000  0.4626720000000 1.0
C      1  0.5249370000000  0.5214800000000  0.5286130000000 1.0
C      1  0.5340730000000  0.5046520000000  0.5052030000000 1.0
C      1  0.5294210000000  0.5221560000000  0.4780500000000 1.0
C      1  0.5029700000000  0.5097240000000  0.4630160000000 1.0
C      1  0.4796790000000  0.5238790000000  0.4792190000000 1.0
C      1  0.4760530000000  0.5210450000000  0.5117840000000 1.0
C      1  0.4954120000000  0.5180970000000  0.5369830000000 1.0
C      1  0.4134070000000  0.4522880000000  0.5235820000000 1.0
C      1  0.4540510000000  0.4467050000000  0.5953370000000 1.0
C      1  0.5521200000000  0.4578660000000  0.5908720000000 1.0
C      1  0.5845260000000  0.4594460000000  0.5185180000000 1.0
C      1  0.5775360000000  0.4534700000000  0.4374550000000 1.0
C      1  0.4938770000000  0.4579820000000  0.4031690000000 1.0
C      1  0.4205110000000  0.4583520000000  0.4513990000000 1.0
C      1  0.5800460000000  0.5534180000000  0.4702570000000 1.0
C      1  0.5185780000000  0.5402120000000  0.4149220000000 1.0
C      1  0.4431920000000  0.5414700000000  0.4238970000000 1.0
C      1  0.4315090000000  0.5492450000000  0.5046840000000 1.0
C      1  0.4525000000000  0.5438670000000  0.5663420000000 1.0
C      1  0.5143550000000  0.5489790000000  0.5711050000000 1.0
C      1  0.5834610000000  0.5279680000000  0.5533540000000 1.0
C      1  0.5217220000000  0.4278550000000  0.5465600000000 1.0
C      1  0.5480220000000  0.4325830000000  0.4883800000000 1.0
C      1  0.5287510000000  0.4332340000000  0.4701090000000 1.0
C      1  0.5079440000000  0.4261150000000  0.4506440000000 1.0
C      1  0.4399370000000  0.4194840000000  0.4751600000000 1.0
C      1  0.4491440000000  0.4209560000000  0.5430510000000 1.0
C      1  0.4759900000000  0.4188160000000  0.5371320000000 1.0
C      1  0.4682160000000  0.5598480000000  0.5873540000000 1.0
C      1  0.5496710000000  0.5286880000000  0.5947090000000 1.0
C      1  0.5848870000000  0.5498130000000  0.5192890000000 1.0
C      1  0.5685410000000  0.5384930000000  0.4317860000000 1.0
C      1  0.4715900000000  0.5320400000000  0.3973840000000 1.0
C      1  0.4197130000000  0.5355090000000  0.4594880000000 1.0
C      1  0.4138870000000  0.5249230000000  0.5375380000000 1.0
C      1  0.4755490000000  0.5541010000000  0.5047380000000 1.0
C      1  0.4972180000000  0.5501730000000  0.5286250000000 1.0
C      1  0.5283130000000  0.5513610000000  0.5238240000000 1.0
C      1  0.5325090000000  0.5555360000000  0.4960240000000 1.0
C      1  0.5261530000000  0.5528350000000  0.4645780000000 1.0
C      1  0.4990540000000  0.5635470000000  0.4557130000000 1.0
C      1  0.4770370000000  0.5555050000000  0.4737800000000 1.0
C      1  0.5979270000000  0.5010190000000  0.5523030000000 1.0
C      1  0.5927960000000  0.5042150000000  0.4514900000000 1.0
C      1  0.5181600000000  0.5092890000000  0.4025420000000 1.0
C      1  0.4409820000000  0.5073790000000  0.4214210000000 1.0
C      1  0.4117900000000  0.5006600000000  0.4917330000000 1.0
C      1  0.4380690000000  0.4928400000000  0.5631440000000 1.0
C      1  0.5156780000000  0.4953370000000  0.5994210000000 1.0
C      1  0.5825100000000  0.4803350000000  0.5360210000000 1.0
C      1  0.5786330000000  0.4783250000000  0.4588990000000 1.0
C      1  0.5139990000000  0.4763970000000  0.4024370000000 1.0
C      1  0.4277020000000  0.4889540000000  0.4461470000000 1.0
C      1  0.4191930000000  0.4808170000000  0.5167240000000 1.0
C      1  0.4505510000000  0.4652140000000  0.5679770000000 1.0
C      1  0.5275940000000  0.4695780000000  0.5915510000000 1.0
C      1  0.4193570000000  0.4969400000000  0.5424150000000 1.0
C      1  0.4890980000000  0.4910260000000  0.6051280000000 1.0
C      1  0.5929350000000  0.4814050000000  0.5745000000000 1.0
C      1  0.6164770000000  0.5102740000000  0.4433420000000 1.0
C      1  0.5352330000000  0.4908110000000  0.4227620000000 1.0
C      1  0.4491170000000  0.4806810000000  0.4090700000000 1.0
C      1  0.4133160000000  0.5072850000000  0.4648940000000 1.0
C      1  0.4613470000000  0.4839650000000  0.4465520000000 1.0
C      1  0.4465970000000  0.4818350000000  0.4973600000000 1.0
C      1  0.4578410000000  0.4718580000000  0.5354340000000 1.0
C      1  0.5042060000000  0.4731010000000  0.5682420000000 1.0
C      1  0.5513960000000  0.4815840000000  0.5454350000000 1.0
C      1  0.5718140000000  0.4806720000000  0.4874190000000 1.0
C      1  0.5236210000000  0.4832780000000  0.4601190000000 1.0
C      1  0.4511410000000  0.5098680000000  0.4827600000000 1.0
C      1  0.4577460000000  0.5030740000000  0.5302150000000 1.0
C      1  0.4943990000000  0.5046560000000  0.5643960000000 1.0
C      1  0.5446640000000  0.5113560000000  0.5504960000000 1.0
C      1  0.5654010000000  0.5104760000000  0.4939910000000 1.0
C      1  0.5401870000000  0.5103830000000  0.4483720000000 1.0
C      1  0.4802600000000  0.5102130000000  0.4417140000000 1.0
C      1  0.4885180000000  0.4412150000000  0.5287540000000 1.0
C      1  0.5116520000000  0.4579560000000  0.5425410000000 1.0
C      1  0.5309670000000  0.4736980000000  0.5193880000000 1.0
C      1  0.5097980000000  0.4600750000000  0.4711490000000 1.0
C      1  0.4832890000000  0.4481950000000  0.4533660000000 1.0
C      1  0.4643900000000  0.4386900000000  0.4799940000000 1.0
C      1  0.4710200000000  0.4599650000000  0.5064270000000 1.0
C      1  0.5070920000000  0.5978930000000  0.5044440000000 1.0
C      1  0.5035950000000  0.4673350000000  0.4999880000000 1.0
C      1  0.4817010000000  0.4127350000000  0.4909150000000 1.0
C      1  0.4944380000000  0.3912170000000  0.4962620000000 1.0
END
