TITL C-3289323-3850-748 0.16266775831208 125000 -480.035786288535 0 0 80 (C1) n - 1
REM
REM in /nfs/bkarasulu/CARBON/AIRSS/Generating-Clusters/AIREBO/with-SteepDescent/Higher-Symm/SD-CG/HFTN-CG
REM
REM
REM
REM
REM
REM ./C.cell (b20cbc046b6831c77cfcea5457e17084)
REM
REM compiler GCC version 9.2.1 20190827 (Red Hat 9.2.1-1)
REM options -cpp -mtune=generic -march=x86-64 -g -O0 -fpre-include=/usr/include/finclude/math-vector-fortran.h
REM seed -1239519184 -278282096 -1472312062 860498205 -839128810 -777913671 -678732036 -1180499826 -579813978 -930080478 1995986612 -194109545 2056824709 107884406 215954246 -944123315 -330553314 -2093692932 1819809158 -104473063 271884353 1285136271 -144416743 -72142237 -173530287 1223985401 1385588187 1930870160 240958710 643088968 -82603863 730453695 1554199390
REM
CELL 1.54180   50.00000   50.00000   50.00000   90.00000   90.00000   90.00000
LATT -1
SFAC C  
C      1  0.4800140000000  0.5110340000000  0.5549230000000 1.0
C      1  0.5112870000000  0.5157460000000  0.5528180000000 1.0
C      1  0.5330320000000  0.4724620000000  0.5305810000000 1.0
C      1  0.5610800000000  0.5149090000000  0.5072980000000 1.0
C      1  0.5590820000000  0.5297190000000  0.4802170000000 1.0
C      1  0.5228500000000  0.5343920000000  0.4403020000000 1.0
C      1  0.5096540000000  0.4845240000000  0.4446710000000 1.0
C      1  0.4701830000000  0.5311790000000  0.4437370000000 1.0
C      1  0.4393580000000  0.5301620000000  0.4890090000000 1.0
C      1  0.4490060000000  0.4774890000000  0.4970540000000 1.0
C      1  0.4553710000000  0.5119320000000  0.5417470000000 1.0
C      1  0.5449880000000  0.4413510000000  0.4850230000000 1.0
C      1  0.5323940000000  0.4247990000000  0.4664400000000 1.0
C      1  0.5082400000000  0.4187430000000  0.4558760000000 1.0
C      1  0.4817930000000  0.4187050000000  0.4620080000000 1.0
C      1  0.4654400000000  0.4331720000000  0.4796490000000 1.0
C      1  0.4596780000000  0.4224750000000  0.5049560000000 1.0
C      1  0.4702040000000  0.4236030000000  0.5300760000000 1.0
C      1  0.4892050000000  0.4399880000000  0.5426240000000 1.0
C      1  0.5155480000000  0.4319390000000  0.5482930000000 1.0
C      1  0.5356090000000  0.4444490000000  0.5331050000000 1.0
C      1  0.5492470000000  0.4321810000000  0.5115750000000 1.0
C      1  0.5660130000000  0.4996510000000  0.6004230000000 1.0
C      1  0.5906330000000  0.4667070000000  0.5439370000000 1.0
C      1  0.6192960000000  0.4937120000000  0.4646350000000 1.0
C      1  0.5760750000000  0.4824320000000  0.4252970000000 1.0
C      1  0.5249970000000  0.4767660000000  0.3904470000000 1.0
C      1  0.4419010000000  0.4960590000000  0.3882690000000 1.0
C      1  0.4003500000000  0.5162800000000  0.4300930000000 1.0
C      1  0.4000440000000  0.4705570000000  0.4773660000000 1.0
C      1  0.3893030000000  0.4883980000000  0.5609350000000 1.0
C      1  0.4348530000000  0.5007780000000  0.6104120000000 1.0
C      1  0.5038290000000  0.4986950000000  0.6234400000000 1.0
C      1  0.5404190000000  0.5634950000000  0.5072670000000 1.0
C      1  0.5418360000000  0.5519210000000  0.4808230000000 1.0
C      1  0.5225510000000  0.5541440000000  0.4597950000000 1.0
C      1  0.4967360000000  0.5665080000000  0.4619520000000 1.0
C      1  0.4712010000000  0.5532660000000  0.4608780000000 1.0
C      1  0.4529360000000  0.5538430000000  0.4829160000000 1.0
C      1  0.4600980000000  0.5700720000000  0.5050020000000 1.0
C      1  0.4749270000000  0.5671430000000  0.5275390000000 1.0
C      1  0.4961650000000  0.5629970000000  0.5438260000000 1.0
C      1  0.5175430000000  0.5452680000000  0.5472660000000 1.0
C      1  0.5409870000000  0.5497640000000  0.5327670000000 1.0
C      1  0.4976470000000  0.5156290000000  0.4379910000000 1.0
C      1  0.4850880000000  0.4739030000000  0.4642040000000 1.0
C      1  0.4644480000000  0.4609280000000  0.4767380000000 1.0
C      1  0.4446870000000  0.5082570000000  0.5110130000000 1.0
C      1  0.4629180000000  0.4760140000000  0.5259300000000 1.0
C      1  0.4864970000000  0.4678560000000  0.5383810000000 1.0
C      1  0.5095870000000  0.4844690000000  0.5398200000000 1.0
C      1  0.5587260000000  0.5284820000000  0.5334070000000 1.0
C      1  0.5516650000000  0.4834860000000  0.5084640000000 1.0
C      1  0.5458500000000  0.4691940000000  0.4822380000000 1.0
C      1  0.5372990000000  0.4817730000000  0.4583270000000 1.0
C      1  0.4234240000000  0.5167410000000  0.4441010000000 1.0
C      1  0.4190800000000  0.4880920000000  0.4878360000000 1.0
C      1  0.4120540000000  0.4946850000000  0.5481430000000 1.0
C      1  0.4477460000000  0.5024190000000  0.5869680000000 1.0
C      1  0.5014910000000  0.5031210000000  0.5970300000000 1.0
C      1  0.5515210000000  0.5053720000000  0.5783480000000 1.0
C      1  0.5759720000000  0.4873170000000  0.5321290000000 1.0
C      1  0.5962510000000  0.5015560000000  0.4758120000000 1.0
C      1  0.5594010000000  0.4974210000000  0.4422270000000 1.0
C      1  0.5155440000000  0.4913800000000  0.4118300000000 1.0
C      1  0.4575090000000  0.5047820000000  0.4082400000000 1.0
C      1  0.5645590000000  0.5088720000000  0.5532650000000 1.0
C      1  0.5883850000000  0.4982890000000  0.5024600000000 1.0
C      1  0.5746100000000  0.5146570000000  0.4618560000000 1.0
C      1  0.5358800000000  0.5114000000000  0.4271790000000 1.0
C      1  0.4850590000000  0.5029950000000  0.4095880000000 1.0
C      1  0.4482930000000  0.5191290000000  0.4309110000000 1.0
C      1  0.4235590000000  0.5138680000000  0.4719840000000 1.0
C      1  0.4155330000000  0.4942400000000  0.5207050000000 1.0
C      1  0.4352390000000  0.5041820000000  0.5609320000000 1.0
C      1  0.4762310000000  0.5060390000000  0.5835290000000 1.0
C      1  0.5236490000000  0.5074280000000  0.5795750000000 1.0
C      1  0.4995430000000  0.4915710000000  0.4825120000000 1.0
C      1  0.4960040000000  0.5382990000000  0.5048020000000 1.0
C      1  0.4972360000000  0.5146590000000  0.4947480000000 1.0
END
