TITL C-3289327-5623-390 0.00231255795945568 125000 -500.97135281579 0 0 87 (C2) n - 1
REM
REM in /nfs/bkarasulu/CARBON/AIRSS/Generating-Clusters/AIREBO/with-SteepDescent/Higher-Symm/SD-CG/HFTN-CG
REM
REM
REM
REM
REM
REM ./C.cell (b20cbc046b6831c77cfcea5457e17084)
REM
REM compiler GCC version 9.2.1 20190827 (Red Hat 9.2.1-1)
REM options -cpp -mtune=generic -march=x86-64 -g -O0 -fpre-include=/usr/include/finclude/math-vector-fortran.h
REM seed 548940016 983647116 2117640498 -1916146006 692064257 2082653367 -611693697 -110805786 1401750379 183205226 -1750625161 -1625117954 1383668499 -1083651966 1547172482 622643520 2129557046 -1957288526 1495834668 -668786403 -760303148 -2127580592 -716203359 1170637599 1180832293 918355497 -1345566348 -1280523608 -1791946126 -2126244704 1964429804 1785305909 1392322970
REM
CELL 1.54180   50.00000   50.00000   50.00000   90.00000   90.00000   90.00000
LATT -1
SFAC C  
C      1  0.5333070000000  0.4994310000000  0.4728580000000 1.0
C      1  0.5320020000000  0.4748980000000  0.5116010000000 1.0
C      1  0.5300250000000  0.5211960000000  0.5165710000000 1.0
C      1  0.4670980000000  0.4994530000000  0.5271470000000 1.0
C      1  0.4683620000000  0.4749340000000  0.4884090000000 1.0
C      1  0.4704010000000  0.5212270000000  0.4834320000000 1.0
C      1  0.4766140000000  0.4718520000000  0.4264570000000 1.0
C      1  0.4744010000000  0.4512430000000  0.5600590000000 1.0
C      1  0.4792560000000  0.5794140000000  0.5118260000000 1.0
C      1  0.5237730000000  0.4718350000000  0.5735470000000 1.0
C      1  0.5259430000000  0.4512180000000  0.4399540000000 1.0
C      1  0.5211970000000  0.5794150000000  0.4881530000000 1.0
C      1  0.4587480000000  0.5563310000000  0.4682540000000 1.0
C      1  0.4583820000000  0.4423890000000  0.4667440000000 1.0
C      1  0.4559390000000  0.5016580000000  0.5653270000000 1.0
C      1  0.5416860000000  0.5563080000000  0.5317230000000 1.0
C      1  0.5419470000000  0.4423340000000  0.5332650000000 1.0
C      1  0.5444660000000  0.5016130000000  0.4346770000000 1.0
C      1  0.4977600000000  0.5444250000000  0.5163090000000 1.0
C      1  0.5009470000000  0.4915370000000  0.4510860000000 1.0
C      1  0.4991660000000  0.4632590000000  0.5311740000000 1.0
C      1  0.5026850000000  0.5444300000000  0.4836810000000 1.0
C      1  0.4994470000000  0.4915380000000  0.5489250000000 1.0
C      1  0.5011880000000  0.4632600000000  0.4688380000000 1.0
C      1  0.5045900000000  0.4166840000000  0.5138070000000 1.0
C      1  0.5057600000000  0.5536790000000  0.5647230000000 1.0
C      1  0.5052820000000  0.5302150000000  0.4217490000000 1.0
C      1  0.4957070000000  0.4166920000000  0.4862000000000 1.0
C      1  0.4946900000000  0.5536780000000  0.4352640000000 1.0
C      1  0.4951550000000  0.5302260000000  0.5782430000000 1.0
C      1  0.5317420000000  0.4238800000000  0.5140260000000 1.0
C      1  0.5326340000000  0.5485770000000  0.5577720000000 1.0
C      1  0.5325040000000  0.5272380000000  0.4288160000000 1.0
C      1  0.4685630000000  0.4239190000000  0.4859830000000 1.0
C      1  0.4678090000000  0.5485930000000  0.4422090000000 1.0
C      1  0.4679290000000  0.5272700000000  0.5711820000000 1.0
C      1  0.4612140000000  0.5490430000000  0.5533330000000 1.0
C      1  0.4606840000000  0.5229010000000  0.4313500000000 1.0
C      1  0.4605430000000  0.4276570000000  0.5134180000000 1.0
C      1  0.5392350000000  0.5490060000000  0.4466670000000 1.0
C      1  0.5397500000000  0.5228810000000  0.5686290000000 1.0
C      1  0.5397670000000  0.4276180000000  0.4865930000000 1.0
C      1  0.5609470000000  0.5351330000000  0.5190670000000 1.0
C      1  0.5643660000000  0.5040210000000  0.4597250000000 1.0
C      1  0.5621320000000  0.4611420000000  0.5199470000000 1.0
C      1  0.4394290000000  0.5351830000000  0.4808950000000 1.0
C      1  0.4360430000000  0.5040810000000  0.5402780000000 1.0
C      1  0.4382130000000  0.4612240000000  0.4800560000000 1.0
C      1  0.5266650000000  0.4789810000000  0.4380140000000 1.0
C      1  0.5238820000000  0.4567520000000  0.5501730000000 1.0
C      1  0.5220470000000  0.5663340000000  0.5128760000000 1.0
C      1  0.4737150000000  0.4790070000000  0.5619960000000 1.0
C      1  0.4764710000000  0.4567760000000  0.4498360000000 1.0
C      1  0.4783950000000  0.5663280000000  0.4871040000000 1.0
C      1  0.4846580000000  0.4338850000000  0.5325730000000 1.0
C      1  0.4864410000000  0.5632020000000  0.5409440000000 1.0
C      1  0.4854970000000  0.5047890000000  0.4259720000000 1.0
C      1  0.5156610000000  0.4338700000000  0.4674370000000 1.0
C      1  0.5140160000000  0.5631880000000  0.4590420000000 1.0
C      1  0.5149260000000  0.5047830000000  0.5740230000000 1.0
C      1  0.5380520000000  0.5260490000000  0.4869880000000 1.0
C      1  0.5506240000000  0.4758240000000  0.4849390000000 1.0
C      1  0.5495810000000  0.4981220000000  0.5280020000000 1.0
C      1  0.4623780000000  0.5260730000000  0.5130180000000 1.0
C      1  0.4497430000000  0.4758670000000  0.5150730000000 1.0
C      1  0.4508360000000  0.4981770000000  0.4719930000000 1.0
C      1  0.5591920000000  0.5084170000000  0.5567430000000 1.0
C      1  0.5536830000000  0.5413760000000  0.4691350000000 1.0
C      1  0.5603410000000  0.4445980000000  0.4814020000000 1.0
C      1  0.4412370000000  0.5084470000000  0.4432380000000 1.0
C      1  0.4467640000000  0.5414230000000  0.5308610000000 1.0
C      1  0.4399860000000  0.4446570000000  0.5186120000000 1.0
C      1  0.4175700000000  0.4706310000000  0.5053870000000 1.0
C      1  0.4195390000000  0.5313890000000  0.5286890000000 1.0
C      1  0.4187450000000  0.5086110000000  0.4761750000000 1.0
C      1  0.5827890000000  0.4705440000000  0.4946260000000 1.0
C      1  0.5808970000000  0.5313080000000  0.4713080000000 1.0
C      1  0.5816980000000  0.5084720000000  0.5238140000000 1.0
C      1  0.4154240000000  0.4809020000000  0.5346710000000 1.0
C      1  0.4125710000000  0.5334040000000  0.5017870000000 1.0
C      1  0.4157410000000  0.4799280000000  0.4665730000000 1.0
C      1  0.5849490000000  0.4808110000000  0.4653400000000 1.0
C      1  0.5878410000000  0.5332850000000  0.4982230000000 1.0
C      1  0.5846300000000  0.4797910000000  0.5334510000000 1.0
C      1  0.5023020000000  0.5133860000000  0.4745560000000 1.0
C      1  0.4981160000000  0.5133790000000  0.5254480000000 1.0
C      1  0.5001800000000  0.4714950000000  0.5000050000000 1.0
END
