TITL C-3289324-3781-219 -0.00141488493466166 125000 -514.217704799536 0 0 90 (C1) n - 1
REM
REM in /nfs/bkarasulu/CARBON/AIRSS/Generating-Clusters/AIREBO/with-SteepDescent/Higher-Symm/SD-CG/HFTN-CG
REM
REM
REM
REM
REM
REM ./C.cell (b20cbc046b6831c77cfcea5457e17084)
REM
REM compiler GCC version 9.2.1 20190827 (Red Hat 9.2.1-1)
REM options -cpp -mtune=generic -march=x86-64 -g -O0 -fpre-include=/usr/include/finclude/math-vector-fortran.h
REM seed -893569288 31738452 1585806375 -870895699 -277261752 -176965982 -449430137 -1571473912 399090440 1165075240 369535604 -1680885119 763662239 -189007344 -1984374949 1096768219 -230632435 2003449076 1831378608 -2040857202 -1737611070 1367465959 -1508753899 1467196264 -1137836929 -1093476304 -228080178 175706961 -216231553 -852822072 6303546 -1140948999 -1796326728
REM
CELL 1.54180   50.00000   50.00000   50.00000   90.00000   90.00000   90.00000
LATT -1
SFAC C  
C      1  0.4314690000000  0.4984390000000  0.5004790000000 1.0
C      1  0.5042280000000  0.5015680000000  0.5709750000000 1.0
C      1  0.5674470000000  0.4984560000000  0.4999930000000 1.0
C      1  0.4946550000000  0.5018620000000  0.4295880000000 1.0
C      1  0.5206870000000  0.5419220000000  0.5347780000000 1.0
C      1  0.5312060000000  0.4582610000000  0.4796710000000 1.0
C      1  0.4781150000000  0.5420390000000  0.4659680000000 1.0
C      1  0.4675570000000  0.4582290000000  0.5211580000000 1.0
C      1  0.4052370000000  0.5433920000000  0.5056850000000 1.0
C      1  0.5058260000000  0.4553510000000  0.5952070000000 1.0
C      1  0.5935780000000  0.5434810000000  0.4949800000000 1.0
C      1  0.4935480000000  0.4555900000000  0.4054480000000 1.0
C      1  0.5068250000000  0.4142780000000  0.4709000000000 1.0
C      1  0.4690840000000  0.5895640000000  0.4882820000000 1.0
C      1  0.4918450000000  0.4149220000000  0.5313800000000 1.0
C      1  0.5297430000000  0.5895230000000  0.5126380000000 1.0
C      1  0.4370800000000  0.4485030000000  0.4716160000000 1.0
C      1  0.4769920000000  0.5517580000000  0.5580080000000 1.0
C      1  0.5619190000000  0.4483900000000  0.5287170000000 1.0
C      1  0.5218310000000  0.5519730000000  0.4427780000000 1.0
C      1  0.4828590000000  0.4733970000000  0.4270220000000 1.0
C      1  0.4280300000000  0.5260420000000  0.5146060000000 1.0
C      1  0.5161910000000  0.4731540000000  0.5734610000000 1.0
C      1  0.5708150000000  0.5261220000000  0.4860030000000 1.0
C      1  0.5498970000000  0.4389080000000  0.4991980000000 1.0
C      1  0.4940610000000  0.5511890000000  0.4402430000000 1.0
C      1  0.4491170000000  0.4390390000000  0.5011510000000 1.0
C      1  0.5047630000000  0.5509720000000  0.5605510000000 1.0
C      1  0.5256130000000  0.5052510000000  0.4256370000000 1.0
C      1  0.4243470000000  0.4965600000000  0.4706550000000 1.0
C      1  0.4732210000000  0.5049270000000  0.5748930000000 1.0
C      1  0.5745930000000  0.4964710000000  0.5297970000000 1.0
C      1  0.4627690000000  0.5289010000000  0.5646410000000 1.0
C      1  0.5668480000000  0.4718170000000  0.5410120000000 1.0
C      1  0.5360690000000  0.5291680000000  0.4360080000000 1.0
C      1  0.4321150000000  0.4719470000000  0.4593590000000 1.0
C      1  0.4463160000000  0.5076820000000  0.4284590000000 1.0
C      1  0.4341010000000  0.4918110000000  0.5506350000000 1.0
C      1  0.5525990000000  0.5074650000000  0.5720250000000 1.0
C      1  0.5646730000000  0.4919900000000  0.4498520000000 1.0
C      1  0.5457370000000  0.4850420000000  0.4291170000000 1.0
C      1  0.4278350000000  0.5162200000000  0.4495320000000 1.0
C      1  0.4530320000000  0.4847800000000  0.5713690000000 1.0
C      1  0.5710680000000  0.5160790000000  0.5509650000000 1.0
C      1  0.4572330000000  0.5368910000000  0.5258590000000 1.0
C      1  0.5278710000000  0.4636710000000  0.5444750000000 1.0
C      1  0.5415710000000  0.5369720000000  0.4748340000000 1.0
C      1  0.4711110000000  0.4638770000000  0.4559200000000 1.0
C      1  0.5187690000000  0.5148280000000  0.5140560000000 1.0
C      1  0.5107500000000  0.4855080000000  0.4804520000000 1.0
C      1  0.4800220000000  0.5148750000000  0.4866020000000 1.0
C      1  0.4880710000000  0.4854390000000  0.5200840000000 1.0
C      1  0.5241300000000  0.4379670000000  0.4595390000000 1.0
C      1  0.4592760000000  0.5623640000000  0.4730880000000 1.0
C      1  0.4744410000000  0.4387700000000  0.5420780000000 1.0
C      1  0.5395370000000  0.5622620000000  0.5277310000000 1.0
C      1  0.5494280000000  0.4766900000000  0.5674630000000 1.0
C      1  0.5633630000000  0.5231150000000  0.4531420000000 1.0
C      1  0.4495680000000  0.4769020000000  0.4329270000000 1.0
C      1  0.4354440000000  0.5229490000000  0.5474810000000 1.0
C      1  0.5710670000000  0.4791700000000  0.4736900000000 1.0
C      1  0.4703110000000  0.5181330000000  0.4182770000000 1.0
C      1  0.4277550000000  0.4790880000000  0.5267140000000 1.0
C      1  0.5286030000000  0.5178280000000  0.5823000000000 1.0
C      1  0.4707610000000  0.4164330000000  0.4876230000000 1.0
C      1  0.4735880000000  0.5881100000000  0.5206530000000 1.0
C      1  0.5284480000000  0.4160760000000  0.5126090000000 1.0
C      1  0.5252390000000  0.5881910000000  0.4802630000000 1.0
C      1  0.4663150000000  0.5658530000000  0.5346950000000 1.0
C      1  0.5354180000000  0.4340800000000  0.5358610000000 1.0
C      1  0.5325130000000  0.5659890000000  0.4661380000000 1.0
C      1  0.4636570000000  0.4343630000000  0.4644890000000 1.0
C      1  0.4592610000000  0.4848640000000  0.5027620000000 1.0
C      1  0.5011380000000  0.5152980000000  0.5428570000000 1.0
C      1  0.5396330000000  0.4850020000000  0.4977180000000 1.0
C      1  0.4976530000000  0.5154370000000  0.4577890000000 1.0
C      1  0.5201150000000  0.5446970000000  0.5834070000000 1.0
C      1  0.5707300000000  0.4525350000000  0.4784500000000 1.0
C      1  0.4787460000000  0.5450200000000  0.4173360000000 1.0
C      1  0.4280280000000  0.4524670000000  0.5218130000000 1.0
C      1  0.4802870000000  0.4821520000000  0.4773580000000 1.0
C      1  0.4790320000000  0.5181060000000  0.5171700000000 1.0
C      1  0.5185710000000  0.4820560000000  0.5231250000000 1.0
C      1  0.5197600000000  0.5181720000000  0.4834830000000 1.0
C      1  0.4369680000000  0.5845160000000  0.4781790000000 1.0
C      1  0.4861080000000  0.4172550000000  0.5631970000000 1.0
C      1  0.5618570000000  0.5844180000000  0.5227170000000 1.0
C      1  0.5129660000000  0.4156850000000  0.4390550000000 1.0
C      1  0.4994130000000  0.5867090000000  0.5004550000000 1.0
C      1  0.4990800000000  0.4167810000000  0.5013480000000 1.0
END
