TITL C-3289331-6719-172 0.00147937224724356 125000 -216.292701394168 0 0 39 (C1) n - 1
REM
REM in /nfs/bkarasulu/CARBON/AIRSS/Generating-Clusters/AIREBO/with-SteepDescent/Higher-Symm/SD-CG/HFTN-CG
REM
REM
REM
REM
REM
REM ./C.cell (b20cbc046b6831c77cfcea5457e17084)
REM
REM compiler GCC version 9.2.1 20190827 (Red Hat 9.2.1-1)
REM options -cpp -mtune=generic -march=x86-64 -g -O0 -fpre-include=/usr/include/finclude/math-vector-fortran.h
REM seed -1120340778 -509049806 -1587761160 1358822146 -579575147 -1149337537 115457129 -1270128122 -2094517937 -1306242256 1583292108 1897048361 194198661 -872282627 541005781 1015866662 68918149 1109051903 1030355425 -1061225059 1165487718 -688980659 906807446 -1717009742 1914944032 -2132941231 2090347890 -1716186248 -1658597736 841670840 -1066298583 -278976608 1382646446
REM
CELL 1.54180   50.00000   50.00000   50.00000   90.00000   90.00000   90.00000
LATT -1
SFAC C  
C      1  0.4890480000000  0.4890580000000  0.4535410000000 1.0
C      1  0.4806550000000  0.5141890000000  0.5439850000000 1.0
C      1  0.5161110000000  0.4890110000000  0.4479760000000 1.0
C      1  0.5085820000000  0.5090320000000  0.5410560000000 1.0
C      1  0.4721320000000  0.5124520000000  0.4512890000000 1.0
C      1  0.4612930000000  0.4968520000000  0.5631730000000 1.0
C      1  0.5305590000000  0.5136390000000  0.4468470000000 1.0
C      1  0.5255170000000  0.4851260000000  0.5556860000000 1.0
C      1  0.5126440000000  0.5527540000000  0.5024400000000 1.0
C      1  0.5370360000000  0.4512700000000  0.4905600000000 1.0
C      1  0.4855060000000  0.5559720000000  0.5032370000000 1.0
C      1  0.4928500000000  0.4545860000000  0.5036360000000 1.0
C      1  0.5159410000000  0.4379790000000  0.4595490000000 1.0
C      1  0.5147350000000  0.5485380000000  0.5420420000000 1.0
C      1  0.4893980000000  0.4394160000000  0.4670770000000 1.0
C      1  0.4875220000000  0.5535340000000  0.5429600000000 1.0
C      1  0.5262390000000  0.5265020000000  0.5187780000000 1.0
C      1  0.5332920000000  0.4662420000000  0.4602460000000 1.0
C      1  0.4680530000000  0.5343460000000  0.5226550000000 1.0
C      1  0.4784970000000  0.4698590000000  0.4775810000000 1.0
C      1  0.5234070000000  0.5326410000000  0.4277030000000 1.0
C      1  0.5193050000000  0.4769550000000  0.5799850000000 1.0
C      1  0.4756200000000  0.5300940000000  0.4299990000000 1.0
C      1  0.4712960000000  0.4869390000000  0.5866480000000 1.0
C      1  0.5546940000000  0.4846380000000  0.4786900000000 1.0
C      1  0.5387460000000  0.5054130000000  0.4996060000000 1.0
C      1  0.4563720000000  0.4877680000000  0.4900320000000 1.0
C      1  0.4475110000000  0.5168910000000  0.5057300000000 1.0
C      1  0.5388850000000  0.4231890000000  0.4755650000000 1.0
C      1  0.5343240000000  0.5653760000000  0.5226960000000 1.0
C      1  0.4798280000000  0.4271540000000  0.4948720000000 1.0
C      1  0.4704490000000  0.5741260000000  0.5250410000000 1.0
C      1  0.5252340000000  0.4867100000000  0.5217850000000 1.0
C      1  0.5478540000000  0.5144720000000  0.4687140000000 1.0
C      1  0.4459600000000  0.5053020000000  0.5374570000000 1.0
C      1  0.4604480000000  0.5147860000000  0.4757210000000 1.0
C      1  0.4948750000000  0.4740240000000  0.5921080000000 1.0
C      1  0.4986000000000  0.5433820000000  0.4229830000000 1.0
C      1  0.5190170000000  0.4604690000000  0.5094220000000 1.0
END
