TITL C-3289323-3850-702 0.002147937085422 125000 -913.533540116014 0 0 163 (C1) n - 1
REM
REM in /nfs/bkarasulu/CARBON/AIRSS/Generating-Clusters/AIREBO/with-SteepDescent/Higher-Symm/SD-CG/HFTN-CG
REM
REM
REM
REM
REM
REM ./C.cell (b20cbc046b6831c77cfcea5457e17084)
REM
REM compiler GCC version 9.2.1 20190827 (Red Hat 9.2.1-1)
REM options -cpp -mtune=generic -march=x86-64 -g -O0 -fpre-include=/usr/include/finclude/math-vector-fortran.h
REM seed -451694030 -933519015 -1007010576 1021828400 1195151605 -1155273139 1719491555 -972520551 -1403747857 -464874516 929383956 -1447373455 952085369 -202453036 -10766536 370917884 -2036466276 -429463078 -1284168205 387430324 -229396610 2139521973 -1656465861 -837781982 127197088 59004129 1687699129 2126635905 -1461611856 -695998411 1564288365 1680972945 -568255611
REM
CELL 1.54180   50.00000   50.00000   50.00000   90.00000   90.00000   90.00000
LATT -1
SFAC C  
C      1  0.4872590000000  0.5942390000000  0.4424600000000 1.0
C      1  0.4838280000000  0.6088710000000  0.5156200000000 1.0
C      1  0.4891690000000  0.5713360000000  0.5777670000000 1.0
C      1  0.4824010000000  0.5047150000000  0.6082800000000 1.0
C      1  0.4928900000000  0.4362380000000  0.5838210000000 1.0
C      1  0.4877110000000  0.3933630000000  0.5183390000000 1.0
C      1  0.4839750000000  0.4033460000000  0.4431790000000 1.0
C      1  0.4750810000000  0.4648420000000  0.3923600000000 1.0
C      1  0.4881220000000  0.5347860000000  0.3977970000000 1.0
C      1  0.4182230000000  0.5741210000000  0.4799070000000 1.0
C      1  0.4156050000000  0.5711100000000  0.5367330000000 1.0
C      1  0.4172100000000  0.5310750000000  0.5709090000000 1.0
C      1  0.4195670000000  0.4741510000000  0.5715010000000 1.0
C      1  0.4221370000000  0.4387090000000  0.5379070000000 1.0
C      1  0.4182120000000  0.4291280000000  0.4901530000000 1.0
C      1  0.4205720000000  0.4572720000000  0.4471720000000 1.0
C      1  0.4146400000000  0.4975830000000  0.4253690000000 1.0
C      1  0.4219690000000  0.5403930000000  0.4446680000000 1.0
C      1  0.5019360000000  0.4898010000000  0.4244780000000 1.0
C      1  0.5014000000000  0.5379570000000  0.4373600000000 1.0
C      1  0.5036950000000  0.5670180000000  0.4787200000000 1.0
C      1  0.4983950000000  0.5681470000000  0.5280210000000 1.0
C      1  0.5070090000000  0.5314470000000  0.5616870000000 1.0
C      1  0.5034230000000  0.4829930000000  0.5701380000000 1.0
C      1  0.4973350000000  0.4408260000000  0.5443790000000 1.0
C      1  0.4967600000000  0.4250000000000  0.4957380000000 1.0
C      1  0.5069730000000  0.4482570000000  0.4534780000000 1.0
C      1  0.5844750000000  0.5406900000000  0.5458030000000 1.0
C      1  0.5806220000000  0.5171680000000  0.5874180000000 1.0
C      1  0.5829630000000  0.4594570000000  0.5681430000000 1.0
C      1  0.5886550000000  0.4316640000000  0.5194090000000 1.0
C      1  0.5789110000000  0.4387760000000  0.4610020000000 1.0
C      1  0.5669930000000  0.4711130000000  0.4295120000000 1.0
C      1  0.5834160000000  0.5266250000000  0.4285680000000 1.0
C      1  0.5844130000000  0.5710980000000  0.4642950000000 1.0
C      1  0.5787880000000  0.5768930000000  0.5097660000000 1.0
C      1  0.4381410000000  0.5175820000000  0.5398410000000 1.0
C      1  0.4327940000000  0.4876040000000  0.5363470000000 1.0
C      1  0.4316120000000  0.4615700000000  0.5212060000000 1.0
C      1  0.4196540000000  0.4607120000000  0.4955620000000 1.0
C      1  0.4264020000000  0.4770250000000  0.4717150000000 1.0
C      1  0.4446220000000  0.4993540000000  0.4681130000000 1.0
C      1  0.4298420000000  0.5235940000000  0.4704020000000 1.0
C      1  0.4378940000000  0.5418460000000  0.4927990000000 1.0
C      1  0.4289310000000  0.5375570000000  0.5206570000000 1.0
C      1  0.6059250000000  0.4938300000000  0.4646640000000 1.0
C      1  0.5962630000000  0.5245310000000  0.4601470000000 1.0
C      1  0.5945700000000  0.5495950000000  0.4790760000000 1.0
C      1  0.5916140000000  0.5464250000000  0.5129450000000 1.0
C      1  0.5903070000000  0.5162080000000  0.5612480000000 1.0
C      1  0.5903370000000  0.4878850000000  0.5510030000000 1.0
C      1  0.5995840000000  0.4571760000000  0.5389230000000 1.0
C      1  0.5943160000000  0.4619670000000  0.5063190000000 1.0
C      1  0.5923300000000  0.4657670000000  0.4751170000000 1.0
C      1  0.5207280000000  0.4328410000000  0.4085630000000 1.0
C      1  0.5306280000000  0.5133520000000  0.3923370000000 1.0
C      1  0.5342610000000  0.5638770000000  0.4343850000000 1.0
C      1  0.5302120000000  0.5992100000000  0.4899280000000 1.0
C      1  0.5344360000000  0.5750740000000  0.5566250000000 1.0
C      1  0.5264110000000  0.5396570000000  0.6005270000000 1.0
C      1  0.5357470000000  0.4619440000000  0.5862430000000 1.0
C      1  0.5365550000000  0.4143840000000  0.5428830000000 1.0
C      1  0.5266240000000  0.4095530000000  0.4742440000000 1.0
C      1  0.5101840000000  0.5539850000000  0.4116230000000 1.0
C      1  0.4997050000000  0.5987470000000  0.4687450000000 1.0
C      1  0.4963940000000  0.5978290000000  0.5384100000000 1.0
C      1  0.4976390000000  0.5570740000000  0.5995420000000 1.0
C      1  0.4962720000000  0.4807540000000  0.6033050000000 1.0
C      1  0.5099530000000  0.4178690000000  0.5649210000000 1.0
C      1  0.5027970000000  0.3925740000000  0.4916480000000 1.0
C      1  0.4947360000000  0.4130900000000  0.4193740000000 1.0
C      1  0.4921010000000  0.4871380000000  0.3920380000000 1.0
C      1  0.5424050000000  0.4580300000000  0.4170440000000 1.0
C      1  0.5529150000000  0.5164230000000  0.4175410000000 1.0
C      1  0.5592450000000  0.5755090000000  0.4543300000000 1.0
C      1  0.5497290000000  0.5771330000000  0.5079960000000 1.0
C      1  0.5633850000000  0.5572850000000  0.5592100000000 1.0
C      1  0.5495830000000  0.5158460000000  0.5919000000000 1.0
C      1  0.5561040000000  0.4493500000000  0.5717560000000 1.0
C      1  0.5586830000000  0.4244530000000  0.5181000000000 1.0
C      1  0.5526710000000  0.4243970000000  0.4579100000000 1.0
C      1  0.4467180000000  0.4255180000000  0.5466150000000 1.0
C      1  0.4429860000000  0.4136080000000  0.4877570000000 1.0
C      1  0.4440280000000  0.4424050000000  0.4371870000000 1.0
C      1  0.4404920000000  0.4972920000000  0.4154290000000 1.0
C      1  0.4435400000000  0.5514550000000  0.4293970000000 1.0
C      1  0.4451330000000  0.5817080000000  0.4780370000000 1.0
C      1  0.4437910000000  0.5761580000000  0.5371700000000 1.0
C      1  0.4448800000000  0.5337040000000  0.5757910000000 1.0
C      1  0.4470310000000  0.4734220000000  0.5781810000000 1.0
C      1  0.5374700000000  0.5372940000000  0.5684510000000 1.0
C      1  0.5356880000000  0.4921000000000  0.5758650000000 1.0
C      1  0.5472830000000  0.4466250000000  0.5412270000000 1.0
C      1  0.5459310000000  0.4325330000000  0.4902430000000 1.0
C      1  0.5311800000000  0.4367660000000  0.4391360000000 1.0
C      1  0.5342960000000  0.4880850000000  0.4141780000000 1.0
C      1  0.5450180000000  0.5335750000000  0.4455630000000 1.0
C      1  0.5376480000000  0.5684580000000  0.4774130000000 1.0
C      1  0.5373760000000  0.5597060000000  0.5290590000000 1.0
C      1  0.4009770000000  0.4818920000000  0.5441000000000 1.0
C      1  0.3933610000000  0.4534240000000  0.5271070000000 1.0
C      1  0.3894250000000  0.4479490000000  0.4935490000000 1.0
C      1  0.3941130000000  0.4681360000000  0.4658330000000 1.0
C      1  0.4003080000000  0.4970900000000  0.4490480000000 1.0
C      1  0.3967410000000  0.5270610000000  0.4634460000000 1.0
C      1  0.4042170000000  0.5461770000000  0.4907670000000 1.0
C      1  0.3981300000000  0.5445700000000  0.5245250000000 1.0
C      1  0.4043370000000  0.5160680000000  0.5432440000000 1.0
C      1  0.4848790000000  0.5563990000000  0.4547460000000 1.0
C      1  0.4811660000000  0.5685790000000  0.5019900000000 1.0
C      1  0.4848490000000  0.5472990000000  0.5461460000000 1.0
C      1  0.4860590000000  0.5094490000000  0.5687460000000 1.0
C      1  0.4808590000000  0.4636370000000  0.5574950000000 1.0
C      1  0.4799730000000  0.4324060000000  0.5210480000000 1.0
C      1  0.4836020000000  0.4364530000000  0.4707010000000 1.0
C      1  0.4828350000000  0.4638220000000  0.4352680000000 1.0
C      1  0.4828940000000  0.5142430000000  0.4315750000000 1.0
C      1  0.4967740000000  0.5275460000000  0.6109320000000 1.0
C      1  0.5101160000000  0.4549140000000  0.5976890000000 1.0
C      1  0.5052820000000  0.4024730000000  0.5368410000000 1.0
C      1  0.5025080000000  0.3904790000000  0.4597240000000 1.0
C      1  0.4885270000000  0.4424280000000  0.4094560000000 1.0
C      1  0.5027840000000  0.5134330000000  0.3859990000000 1.0
C      1  0.5081800000000  0.5835780000000  0.4249960000000 1.0
C      1  0.5019330000000  0.6149130000000  0.4953970000000 1.0
C      1  0.5088340000000  0.5859520000000  0.5622710000000 1.0
C      1  0.4594580000000  0.4210370000000  0.4587280000000 1.0
C      1  0.4541750000000  0.4678490000000  0.4169280000000 1.0
C      1  0.4593890000000  0.5256770000000  0.4139510000000 1.0
C      1  0.4603400000000  0.5741140000000  0.4484790000000 1.0
C      1  0.4576950000000  0.5892050000000  0.5088100000000 1.0
C      1  0.4610550000000  0.5603860000000  0.5620490000000 1.0
C      1  0.4587500000000  0.5044420000000  0.5861620000000 1.0
C      1  0.4614900000000  0.4431810000000  0.5718780000000 1.0
C      1  0.4576190000000  0.4095230000000  0.5184860000000 1.0
C      1  0.4665260000000  0.5064130000000  0.5458310000000 1.0
C      1  0.4651630000000  0.4771680000000  0.5347680000000 1.0
C      1  0.4720610000000  0.4602110000000  0.5109550000000 1.0
C      1  0.4733530000000  0.4615550000000  0.4856010000000 1.0
C      1  0.4690680000000  0.4782610000000  0.4620440000000 1.0
C      1  0.4744060000000  0.5092780000000  0.4603240000000 1.0
C      1  0.4828500000000  0.5325180000000  0.4752430000000 1.0
C      1  0.4667620000000  0.5414070000000  0.4986850000000 1.0
C      1  0.4737080000000  0.5274130000000  0.5230480000000 1.0
C      1  0.5613890000000  0.5348960000000  0.5090930000000 1.0
C      1  0.5468450000000  0.5280520000000  0.5370940000000 1.0
C      1  0.5496350000000  0.4982640000000  0.5483020000000 1.0
C      1  0.5638880000000  0.4744090000000  0.5344040000000 1.0
C      1  0.5662040000000  0.4764610000000  0.5034310000000 1.0
C      1  0.5525280000000  0.4636620000000  0.4778640000000 1.0
C      1  0.5687270000000  0.4816490000000  0.4564850000000 1.0
C      1  0.5665300000000  0.5126340000000  0.4615430000000 1.0
C      1  0.5537280000000  0.5385590000000  0.4794730000000 1.0
C      1  0.5133020000000  0.4856950000000  0.5377150000000 1.0
C      1  0.5192820000000  0.4563510000000  0.5295890000000 1.0
C      1  0.5176550000000  0.4473270000000  0.5003340000000 1.0
C      1  0.5211730000000  0.4683430000000  0.4738370000000 1.0
C      1  0.5147260000000  0.4923130000000  0.4558830000000 1.0
C      1  0.5182210000000  0.5218830000000  0.4592340000000 1.0
C      1  0.5121300000000  0.5352000000000  0.4876260000000 1.0
C      1  0.5139190000000  0.5398380000000  0.5176050000000 1.0
C      1  0.5034820000000  0.5144390000000  0.5331050000000 1.0
C      1  0.5397220000000  0.4936280000000  0.5001960000000 1.0
END
