TITL C-3289321-8710-133 0.00146450718910533 125000 -678.902737537459 0 0 120 (C1) n - 1
REM
REM in /nfs/bkarasulu/CARBON/AIRSS/Generating-Clusters/AIREBO/with-SteepDescent/Higher-Symm/SD-CG/HFTN-CG
REM
REM
REM
REM
REM
REM ./C.cell (b20cbc046b6831c77cfcea5457e17084)
REM
REM compiler GCC version 9.2.1 20190827 (Red Hat 9.2.1-1)
REM options -cpp -mtune=generic -march=x86-64 -g -O0 -fpre-include=/usr/include/finclude/math-vector-fortran.h
REM seed -486682236 -642370403 2133017540 -731262595 1834263602 2030740693 1083853489 1584873940 512100321 699738287 752655658 1307731805 -72537567 794053813 536416439 381716274 2070316146 864083870 1677049171 633915047 68802575 1536547916 1136913206 -1740444010 -2000078723 -663166030 337007704 857075839 624588945 -1868039893 905637977 -1603028895 -737797566
REM
CELL 1.54180   50.00000   50.00000   50.00000   90.00000   90.00000   90.00000
LATT -1
SFAC C  
C      1  0.4804550000000  0.4282790000000  0.4817610000000 1.0
C      1  0.4860260000000  0.5606420000000  0.4838320000000 1.0
C      1  0.5048730000000  0.5151740000000  0.4728500000000 1.0
C      1  0.4974550000000  0.4787130000000  0.4574640000000 1.0
C      1  0.5365490000000  0.4329510000000  0.4654620000000 1.0
C      1  0.5382660000000  0.5646020000000  0.4683050000000 1.0
C      1  0.5209220000000  0.5161670000000  0.4352980000000 1.0
C      1  0.5303240000000  0.4799910000000  0.4195940000000 1.0
C      1  0.4719960000000  0.4643240000000  0.4190500000000 1.0
C      1  0.4678040000000  0.5392100000000  0.4228830000000 1.0
C      1  0.5190070000000  0.4417040000000  0.4190180000000 1.0
C      1  0.5184000000000  0.5576730000000  0.4185110000000 1.0
C      1  0.5046330000000  0.4072090000000  0.4879890000000 1.0
C      1  0.5047520000000  0.5876890000000  0.4893210000000 1.0
C      1  0.5288320000000  0.4064840000000  0.5345300000000 1.0
C      1  0.5224300000000  0.5817390000000  0.5420300000000 1.0
C      1  0.4383000000000  0.5386260000000  0.4331520000000 1.0
C      1  0.4402230000000  0.4574270000000  0.4280640000000 1.0
C      1  0.4610450000000  0.4407130000000  0.4493250000000 1.0
C      1  0.4605670000000  0.5655530000000  0.4520530000000 1.0
C      1  0.5237000000000  0.4495100000000  0.5672810000000 1.0
C      1  0.5123760000000  0.5662020000000  0.5876370000000 1.0
C      1  0.5861080000000  0.5273190000000  0.5003520000000 1.0
C      1  0.5906740000000  0.4802480000000  0.4901550000000 1.0
C      1  0.4807090000000  0.4936300000000  0.4326730000000 1.0
C      1  0.4904900000000  0.5243740000000  0.4434250000000 1.0
C      1  0.5455470000000  0.4096250000000  0.5112680000000 1.0
C      1  0.5417110000000  0.5803170000000  0.5199120000000 1.0
C      1  0.5316530000000  0.4139580000000  0.4864920000000 1.0
C      1  0.5322470000000  0.5809020000000  0.4917450000000 1.0
C      1  0.4629800000000  0.5290080000000  0.5785760000000 1.0
C      1  0.4393220000000  0.4372040000000  0.5692210000000 1.0
C      1  0.4783490000000  0.4456700000000  0.5273490000000 1.0
C      1  0.4758530000000  0.5587200000000  0.5152220000000 1.0
C      1  0.4658160000000  0.5318310000000  0.5466560000000 1.0
C      1  0.4864490000000  0.4909490000000  0.5648980000000 1.0
C      1  0.4902880000000  0.5554230000000  0.4103770000000 1.0
C      1  0.4927780000000  0.4492840000000  0.4089010000000 1.0
C      1  0.4105920000000  0.5249440000000  0.5339170000000 1.0
C      1  0.4001330000000  0.4796360000000  0.5489990000000 1.0
C      1  0.5248620000000  0.4621950000000  0.5041070000000 1.0
C      1  0.5152210000000  0.5322880000000  0.4993830000000 1.0
C      1  0.4919110000000  0.5303420000000  0.5248790000000 1.0
C      1  0.5008680000000  0.4681670000000  0.5263630000000 1.0
C      1  0.5095650000000  0.5711020000000  0.6132290000000 1.0
C      1  0.5141330000000  0.4499230000000  0.5930730000000 1.0
C      1  0.5023490000000  0.3982820000000  0.5293360000000 1.0
C      1  0.4998620000000  0.5976840000000  0.5358540000000 1.0
C      1  0.5162760000000  0.4341850000000  0.4457610000000 1.0
C      1  0.5206870000000  0.5682830000000  0.4462180000000 1.0
C      1  0.5610200000000  0.5255860000000  0.4153910000000 1.0
C      1  0.5697410000000  0.4753390000000  0.4226880000000 1.0
C      1  0.4873660000000  0.5883090000000  0.5126780000000 1.0
C      1  0.4859250000000  0.4198370000000  0.5131530000000 1.0
C      1  0.4155930000000  0.4567790000000  0.4513400000000 1.0
C      1  0.4117950000000  0.5384280000000  0.4421560000000 1.0
C      1  0.4607370000000  0.4539920000000  0.4815580000000 1.0
C      1  0.4710450000000  0.5303480000000  0.4875600000000 1.0
C      1  0.4252270000000  0.5645570000000  0.5130680000000 1.0
C      1  0.4276500000000  0.4507320000000  0.5237610000000 1.0
C      1  0.5394610000000  0.4628400000000  0.4732050000000 1.0
C      1  0.5392390000000  0.5351670000000  0.4753330000000 1.0
C      1  0.4499370000000  0.5767440000000  0.5201940000000 1.0
C      1  0.4503310000000  0.4393040000000  0.5424670000000 1.0
C      1  0.4519330000000  0.4727710000000  0.4560550000000 1.0
C      1  0.4553050000000  0.5329740000000  0.4602420000000 1.0
C      1  0.5821790000000  0.4453120000000  0.5357680000000 1.0
C      1  0.5612210000000  0.5405470000000  0.5379710000000 1.0
C      1  0.4927250000000  0.5568950000000  0.4531000000000 1.0
C      1  0.4923400000000  0.4481650000000  0.4578130000000 1.0
C      1  0.5608700000000  0.4750700000000  0.4931560000000 1.0
C      1  0.5545590000000  0.5255950000000  0.5015200000000 1.0
C      1  0.4065270000000  0.5312310000000  0.4734590000000 1.0
C      1  0.4092170000000  0.4688980000000  0.4748250000000 1.0
C      1  0.5318610000000  0.5309390000000  0.5259070000000 1.0
C      1  0.5553590000000  0.4570040000000  0.5182160000000 1.0
C      1  0.5318160000000  0.4252380000000  0.5556450000000 1.0
C      1  0.5179760000000  0.5607200000000  0.5612730000000 1.0
C      1  0.3996030000000  0.5209000000000  0.5051520000000 1.0
C      1  0.3989860000000  0.4782920000000  0.5215110000000 1.0
C      1  0.4369820000000  0.5404550000000  0.5307020000000 1.0
C      1  0.4218440000000  0.4610090000000  0.5597130000000 1.0
C      1  0.5651120000000  0.5665120000000  0.5276430000000 1.0
C      1  0.5665020000000  0.4266700000000  0.5159950000000 1.0
C      1  0.4551740000000  0.4615070000000  0.5100200000000 1.0
C      1  0.4536710000000  0.5242010000000  0.5097970000000 1.0
C      1  0.6082890000000  0.4774050000000  0.5122520000000 1.0
C      1  0.6072820000000  0.5233170000000  0.5188210000000 1.0
C      1  0.4332750000000  0.4914980000000  0.5676730000000 1.0
C      1  0.4488390000000  0.5104010000000  0.5883550000000 1.0
C      1  0.4060150000000  0.4573380000000  0.5008700000000 1.0
C      1  0.4083710000000  0.5578670000000  0.4934360000000 1.0
C      1  0.5140250000000  0.5321310000000  0.5506530000000 1.0
C      1  0.5203680000000  0.4744400000000  0.5501860000000 1.0
C      1  0.5336230000000  0.5329010000000  0.4167610000000 1.0
C      1  0.5470710000000  0.4553900000000  0.4131470000000 1.0
C      1  0.5121850000000  0.4927300000000  0.4969900000000 1.0
C      1  0.5426790000000  0.4941870000000  0.5372710000000 1.0
C      1  0.5555770000000  0.5080640000000  0.4625620000000 1.0
C      1  0.4225380000000  0.4960920000000  0.5089880000000 1.0
C      1  0.5427720000000  0.5045080000000  0.6131200000000 1.0
C      1  0.6087360000000  0.4978890000000  0.5324270000000 1.0
C      1  0.5297830000000  0.4882490000000  0.4525750000000 1.0
C      1  0.6001290000000  0.4961700000000  0.5600640000000 1.0
C      1  0.4899410000000  0.4954710000000  0.4017270000000 1.0
C      1  0.5581830000000  0.5132390000000  0.5499450000000 1.0
C      1  0.4177700000000  0.5000770000000  0.4767530000000 1.0
C      1  0.5174550000000  0.4964120000000  0.4007540000000 1.0
C      1  0.4880140000000  0.4974960000000  0.5172780000000 1.0
C      1  0.4070200000000  0.5081190000000  0.5557540000000 1.0
C      1  0.5664180000000  0.5025210000000  0.4318640000000 1.0
C      1  0.4757030000000  0.5006040000000  0.4717350000000 1.0
C      1  0.4444400000000  0.5014030000000  0.4624270000000 1.0
C      1  0.5819900000000  0.5062790000000  0.4798270000000 1.0
C      1  0.5433180000000  0.4971990000000  0.5077500000000 1.0
C      1  0.5744860000000  0.5020370000000  0.5716770000000 1.0
C      1  0.4607060000000  0.4986520000000  0.5520450000000 1.0
C      1  0.5177810000000  0.5040100000000  0.5668060000000 1.0
C      1  0.5449600000000  0.5022980000000  0.5858300000000 1.0
C      1  0.4548700000000  0.4925810000000  0.5190970000000 1.0
END
