TITL C-3289320-4661-608 -0.00162977174655203 125000 -930.52145119486 0 0 169 (C1) n - 1
REM
REM in /nfs/bkarasulu/CARBON/AIRSS/Generating-Clusters/AIREBO/with-SteepDescent/Higher-Symm/SD-CG/HFTN-CG
REM
REM
REM
REM
REM
REM ./C.cell (b20cbc046b6831c77cfcea5457e17084)
REM
REM compiler GCC version 9.2.1 20190827 (Red Hat 9.2.1-1)
REM options -cpp -mtune=generic -march=x86-64 -g -O0 -fpre-include=/usr/include/finclude/math-vector-fortran.h
REM seed 19695562 -1271788603 -391785663 -805843339 1109711440 2050268015 -1735864650 867147408 518286090 1517598468 1165430444 2068455765 931555872 1530172807 589536415 1182176306 1717849114 -1794270979 1091474797 1693320054 656289122 -1465614775 -1145758141 -968494300 58814896 563931665 -860332753 1269046180 1467515295 26644424 2058784906 -665669790 489663905
REM
CELL 1.54180   50.00000   50.00000   50.00000   90.00000   90.00000   90.00000
LATT -1
SFAC C  
C      1  0.4166490000000  0.4698960000000  0.4491710000000 1.0
C      1  0.5821410000000  0.5584910000000  0.4693830000000 1.0
C      1  0.4070660000000  0.5253350000000  0.5557800000000 1.0
C      1  0.5886620000000  0.4374380000000  0.5324020000000 1.0
C      1  0.4383680000000  0.5986210000000  0.4724550000000 1.0
C      1  0.5561280000000  0.5315670000000  0.5851390000000 1.0
C      1  0.4394870000000  0.4072860000000  0.5360360000000 1.0
C      1  0.5619660000000  0.4709600000000  0.4074630000000 1.0
C      1  0.4977330000000  0.5161610000000  0.5397940000000 1.0
C      1  0.5072060000000  0.4516330000000  0.5203550000000 1.0
C      1  0.4916770000000  0.4679580000000  0.4493980000000 1.0
C      1  0.5060540000000  0.5500600000000  0.4785080000000 1.0
C      1  0.4562320000000  0.5698450000000  0.4692620000000 1.0
C      1  0.5308200000000  0.5299440000000  0.5627550000000 1.0
C      1  0.4620360000000  0.4323980000000  0.5317140000000 1.0
C      1  0.5404120000000  0.4767520000000  0.4331120000000 1.0
C      1  0.4682150000000  0.5942040000000  0.5415740000000 1.0
C      1  0.5334240000000  0.4672050000000  0.5921480000000 1.0
C      1  0.4669310000000  0.4031190000000  0.4650300000000 1.0
C      1  0.5371410000000  0.5386490000000  0.4121840000000 1.0
C      1  0.4727220000000  0.4570580000000  0.4162320000000 1.0
C      1  0.5321670000000  0.5841870000000  0.4599900000000 1.0
C      1  0.4662350000000  0.5443020000000  0.5868850000000 1.0
C      1  0.5242990000000  0.4152430000000  0.5361310000000 1.0
C      1  0.5295130000000  0.4937550000000  0.4056030000000 1.0
C      1  0.4704840000000  0.5895640000000  0.4930330000000 1.0
C      1  0.5202080000000  0.5145950000000  0.5912930000000 1.0
C      1  0.4677030000000  0.4075990000000  0.5091010000000 1.0
C      1  0.4042940000000  0.4772040000000  0.5651600000000 1.0
C      1  0.5908830000000  0.4375630000000  0.4841480000000 1.0
C      1  0.4108640000000  0.5183040000000  0.4346210000000 1.0
C      1  0.5838240000000  0.5633420000000  0.5187340000000 1.0
C      1  0.4796890000000  0.4870420000000  0.5403620000000 1.0
C      1  0.5060860000000  0.4540220000000  0.4871460000000 1.0
C      1  0.4893600000000  0.5232550000000  0.4547630000000 1.0
C      1  0.5062540000000  0.5429110000000  0.5114170000000 1.0
C      1  0.4323140000000  0.5792510000000  0.4997790000000 1.0
C      1  0.5704520000000  0.5030830000000  0.5746090000000 1.0
C      1  0.4306140000000  0.4217320000000  0.5065430000000 1.0
C      1  0.5732780000000  0.4976000000000  0.4253170000000 1.0
C      1  0.4326420000000  0.4687740000000  0.5570730000000 1.0
C      1  0.5657580000000  0.4457150000000  0.4689700000000 1.0
C      1  0.4361930000000  0.5292930000000  0.4465070000000 1.0
C      1  0.5550030000000  0.5552770000000  0.5325440000000 1.0
C      1  0.5031480000000  0.5701330000000  0.5767990000000 1.0
C      1  0.5002660000000  0.4289020000000  0.5768890000000 1.0
C      1  0.5035030000000  0.4181420000000  0.4263380000000 1.0
C      1  0.4921010000000  0.5885350000000  0.4338120000000 1.0
C      1  0.4717060000000  0.4402250000000  0.5638600000000 1.0
C      1  0.5257280000000  0.4331110000000  0.4440040000000 1.0
C      1  0.4678690000000  0.5701150000000  0.4372830000000 1.0
C      1  0.5277730000000  0.5616670000000  0.5615110000000 1.0
C      1  0.4878370000000  0.5459660000000  0.5488880000000 1.0
C      1  0.5290900000000  0.4535770000000  0.5463070000000 1.0
C      1  0.4710380000000  0.4411940000000  0.4535150000000 1.0
C      1  0.5230580000000  0.5431380000000  0.4498840000000 1.0
C      1  0.5124270000000  0.5977540000000  0.5250060000000 1.0
C      1  0.4876980000000  0.4804960000000  0.5968540000000 1.0
C      1  0.5125840000000  0.3983540000000  0.4808760000000 1.0
C      1  0.4930040000000  0.5249970000000  0.3931480000000 1.0
C      1  0.5589860000000  0.4538800000000  0.5301030000000 1.0
C      1  0.4379190000000  0.4436750000000  0.4531950000000 1.0
C      1  0.5555860000000  0.5417110000000  0.4589270000000 1.0
C      1  0.4552610000000  0.5517570000000  0.5466510000000 1.0
C      1  0.5237890000000  0.4638380000000  0.4598220000000 1.0
C      1  0.4731500000000  0.5413920000000  0.4785260000000 1.0
C      1  0.5308160000000  0.5199060000000  0.5328680000000 1.0
C      1  0.4747770000000  0.4619150000000  0.5197100000000 1.0
C      1  0.5517610000000  0.4592520000000  0.4969480000000 1.0
C      1  0.4551920000000  0.5050030000000  0.4608280000000 1.0
C      1  0.5452330000000  0.5360140000000  0.5062670000000 1.0
C      1  0.4493900000000  0.4937730000000  0.5450380000000 1.0
C      1  0.5477490000000  0.5022190000000  0.5092530000000 1.0
C      1  0.4519600000000  0.4872130000000  0.5117280000000 1.0
C      1  0.5390010000000  0.4861760000000  0.4805310000000 1.0
C      1  0.4563410000000  0.5156260000000  0.4931220000000 1.0
C      1  0.5314710000000  0.5637370000000  0.4256960000000 1.0
C      1  0.4827630000000  0.5782660000000  0.5582850000000 1.0
C      1  0.5219930000000  0.4466410000000  0.5757960000000 1.0
C      1  0.4798170000000  0.4140430000000  0.4404850000000 1.0
C      1  0.4204680000000  0.4541140000000  0.4192730000000 1.0
C      1  0.5781700000000  0.5762950000000  0.4431370000000 1.0
C      1  0.4118630000000  0.5500820000000  0.5690950000000 1.0
C      1  0.5784210000000  0.4152220000000  0.5560170000000 1.0
C      1  0.5529120000000  0.4821710000000  0.5751980000000 1.0
C      1  0.4463140000000  0.4240100000000  0.4797000000000 1.0
C      1  0.5545340000000  0.5209360000000  0.4319290000000 1.0
C      1  0.4504190000000  0.5738500000000  0.5234550000000 1.0
C      1  0.4207100000000  0.4759140000000  0.5042590000000 1.0
C      1  0.5663810000000  0.5020330000000  0.4684150000000 1.0
C      1  0.4244500000000  0.5266140000000  0.4993460000000 1.0
C      1  0.5810210000000  0.4968430000000  0.5155370000000 1.0
C      1  0.5217560000000  0.5650860000000  0.5290020000000 1.0
C      1  0.4888220000000  0.4693300000000  0.5658500000000 1.0
C      1  0.5147120000000  0.4272260000000  0.4729900000000 1.0
C      1  0.4662360000000  0.5361670000000  0.4383470000000 1.0
C      1  0.4850250000000  0.6037210000000  0.5203320000000 1.0
C      1  0.5145550000000  0.4856130000000  0.6039260000000 1.0
C      1  0.4852290000000  0.3917460000000  0.4846480000000 1.0
C      1  0.5193690000000  0.5221850000000  0.3991000000000 1.0
C      1  0.6038290000000  0.5440210000000  0.5185790000000 1.0
C      1  0.3874290000000  0.4785310000000  0.5427230000000 1.0
C      1  0.6070950000000  0.4591500000000  0.4869610000000 1.0
C      1  0.3918170000000  0.5196730000000  0.4553850000000 1.0
C      1  0.5383530000000  0.5597830000000  0.4828630000000 1.0
C      1  0.4566610000000  0.5218770000000  0.5628390000000 1.0
C      1  0.5333270000000  0.4332070000000  0.5087120000000 1.0
C      1  0.4651550000000  0.4840620000000  0.4354900000000 1.0
C      1  0.4001270000000  0.4920750000000  0.5215550000000 1.0
C      1  0.5912370000000  0.4858290000000  0.4850170000000 1.0
C      1  0.4034800000000  0.5097010000000  0.4789740000000 1.0
C      1  0.5982570000000  0.5220860000000  0.5024190000000 1.0
C      1  0.4103810000000  0.4820510000000  0.4766840000000 1.0
C      1  0.5880270000000  0.5270360000000  0.4763100000000 1.0
C      1  0.4074540000000  0.5190860000000  0.5267030000000 1.0
C      1  0.5956600000000  0.4691000000000  0.5286690000000 1.0
C      1  0.4776990000000  0.4366930000000  0.4838670000000 1.0
C      1  0.5228760000000  0.5117980000000  0.4403890000000 1.0
C      1  0.4827710000000  0.5638540000000  0.5202730000000 1.0
C      1  0.5313740000000  0.4848730000000  0.5518730000000 1.0
C      1  0.5513260000000  0.5826920000000  0.4369060000000 1.0
C      1  0.4388880000000  0.5557620000000  0.5738510000000 1.0
C      1  0.5531000000000  0.4224120000000  0.5417170000000 1.0
C      1  0.4481230000000  0.4424840000000  0.4207790000000 1.0
C      1  0.5044370000000  0.4453600000000  0.4124160000000 1.0
C      1  0.5076580000000  0.5961590000000  0.4549870000000 1.0
C      1  0.4918760000000  0.5528830000000  0.5958120000000 1.0
C      1  0.4969480000000  0.4121770000000  0.5510460000000 1.0
C      1  0.5689850000000  0.5370550000000  0.5542640000000 1.0
C      1  0.4321410000000  0.4464070000000  0.5378910000000 1.0
C      1  0.5684690000000  0.4669340000000  0.4477690000000 1.0
C      1  0.4287970000000  0.5540190000000  0.4611890000000 1.0
C      1  0.5780070000000  0.5753780000000  0.4946320000000 1.0
C      1  0.4143590000000  0.5028810000000  0.5739660000000 1.0
C      1  0.5832030000000  0.4221830000000  0.5058730000000 1.0
C      1  0.4202730000000  0.4934810000000  0.4249100000000 1.0
C      1  0.4638620000000  0.5257780000000  0.4060860000000 1.0
C      1  0.5429000000000  0.5982320000000  0.5226780000000 1.0
C      1  0.4580690000000  0.4809560000000  0.5932160000000 1.0
C      1  0.5447160000000  0.4016590000000  0.4784810000000 1.0
C      1  0.5812360000000  0.5105210000000  0.5465330000000 1.0
C      1  0.4180710000000  0.4475870000000  0.5127410000000 1.0
C      1  0.5928350000000  0.4904280000000  0.4509920000000 1.0
C      1  0.4223980000000  0.5550880000000  0.4894600000000 1.0
C      1  0.4809750000000  0.4878170000000  0.4733140000000 1.0
C      1  0.5149460000000  0.5084960000000  0.4716010000000 1.0
C      1  0.4866420000000  0.5172600000000  0.5084650000000 1.0
C      1  0.5221860000000  0.4821630000000  0.5192930000000 1.0
C      1  0.4595820000000  0.6189740000000  0.4689150000000 1.0
C      1  0.5412410000000  0.5424710000000  0.6106220000000 1.0
C      1  0.4673240000000  0.3959660000000  0.5470590000000 1.0
C      1  0.5348780000000  0.4548850000000  0.4002160000000 1.0
C      1  0.5033870000000  0.4889440000000  0.4255370000000 1.0
C      1  0.4990900000000  0.5778180000000  0.4936430000000 1.0
C      1  0.5073440000000  0.4978390000000  0.5667120000000 1.0
C      1  0.4958460000000  0.4218830000000  0.5085560000000 1.0
C      1  0.4911370000000  0.6084300000000  0.4771300000000 1.0
C      1  0.5117450000000  0.5382520000000  0.6093040000000 1.0
C      1  0.4932070000000  0.3915390000000  0.5248380000000 1.0
C      1  0.5065880000000  0.4729980000000  0.3949040000000 1.0
C      1  0.5518910000000  0.5871150000000  0.4979040000000 1.0
C      1  0.4417950000000  0.5028050000000  0.5832320000000 1.0
C      1  0.5572070000000  0.4113900000000  0.5032600000000 1.0
C      1  0.4471750000000  0.4980410000000  0.4149110000000 1.0
C      1  0.4537640000000  0.5582340000000  0.4087000000000 1.0
C      1  0.5500710000000  0.5843490000000  0.5494760000000 1.0
C      1  0.4501430000000  0.4576940000000  0.5790820000000 1.0
C      1  0.5511310000000  0.4210830000000  0.4581080000000 1.0
C      1  0.5026600000000  0.4932890000000  0.4972070000000 1.0
END
