TITL C-3289328-6581-355 -0.000369303519444902 125000 -522.650079424157 0 0 97 (C1) n - 1
REM
REM in /nfs/bkarasulu/CARBON/AIRSS/Generating-Clusters/AIREBO/with-SteepDescent/Higher-Symm/SD-CG/HFTN-CG
REM
REM
REM
REM
REM
REM ./C.cell (b20cbc046b6831c77cfcea5457e17084)
REM
REM compiler GCC version 9.2.1 20190827 (Red Hat 9.2.1-1)
REM options -cpp -mtune=generic -march=x86-64 -g -O0 -fpre-include=/usr/include/finclude/math-vector-fortran.h
REM seed 1738065513 1739782645 -1832175397 975701475 -2104274668 -405153071 -454555118 -1546134732 -975056928 2018771930 -574217519 -1909735179 1133308755 -572961629 -671642789 896068295 739065611 -67255480 287478558 -471267061 -1378079245 -1611302836 -1448345062 1465140645 870070914 1688832775 1693209483 854330988 -611896213 -821391886 1176535196 -851502250 -23897127
REM
CELL 1.54180   50.00000   50.00000   50.00000   90.00000   90.00000   90.00000
LATT -1
SFAC C  
C      1  0.5306360000000  0.5378420000000  0.5792550000000 1.0
C      1  0.4800420000000  0.5364390000000  0.5806910000000 1.0
C      1  0.4580050000000  0.4853610000000  0.5810370000000 1.0
C      1  0.4944850000000  0.4547950000000  0.5813280000000 1.0
C      1  0.5528490000000  0.4940390000000  0.5790360000000 1.0
C      1  0.5143390000000  0.5408320000000  0.3993440000000 1.0
C      1  0.4650250000000  0.5410750000000  0.4080750000000 1.0
C      1  0.4600130000000  0.4847780000000  0.4167570000000 1.0
C      1  0.5003260000000  0.4570700000000  0.4202220000000 1.0
C      1  0.5421420000000  0.4811700000000  0.4246430000000 1.0
C      1  0.5574580000000  0.5222760000000  0.5764330000000 1.0
C      1  0.5061470000000  0.5530190000000  0.5817760000000 1.0
C      1  0.4521860000000  0.5190240000000  0.5785590000000 1.0
C      1  0.4648920000000  0.4584560000000  0.5776960000000 1.0
C      1  0.5234250000000  0.4541500000000  0.5722850000000 1.0
C      1  0.5647570000000  0.4975370000000  0.4266260000000 1.0
C      1  0.4946410000000  0.5458660000000  0.4185510000000 1.0
C      1  0.4495970000000  0.5171700000000  0.4212140000000 1.0
C      1  0.4696780000000  0.4583590000000  0.4184510000000 1.0
C      1  0.5287230000000  0.4547540000000  0.4217610000000 1.0
C      1  0.4563130000000  0.4416240000000  0.4374470000000 1.0
C      1  0.5393390000000  0.4353950000000  0.4403160000000 1.0
C      1  0.5711170000000  0.5164780000000  0.4457500000000 1.0
C      1  0.5018650000000  0.5697580000000  0.4400450000000 1.0
C      1  0.4248840000000  0.5253280000000  0.4387590000000 1.0
C      1  0.4539930000000  0.4448190000000  0.5550570000000 1.0
C      1  0.5361740000000  0.4348300000000  0.5576850000000 1.0
C      1  0.5767010000000  0.5288100000000  0.5557130000000 1.0
C      1  0.5049480000000  0.5766370000000  0.5650190000000 1.0
C      1  0.4280690000000  0.5246640000000  0.5590290000000 1.0
C      1  0.5388610000000  0.5287950000000  0.5296640000000 1.0
C      1  0.4866590000000  0.5465130000000  0.5288630000000 1.0
C      1  0.4616060000000  0.5034870000000  0.5267620000000 1.0
C      1  0.4899310000000  0.4671380000000  0.5301170000000 1.0
C      1  0.5385350000000  0.4734140000000  0.5283890000000 1.0
C      1  0.5332480000000  0.5255970000000  0.4755430000000 1.0
C      1  0.4861880000000  0.5470930000000  0.4688780000000 1.0
C      1  0.4526520000000  0.5042330000000  0.4698370000000 1.0
C      1  0.4832520000000  0.4564110000000  0.4677790000000 1.0
C      1  0.5375730000000  0.4737000000000  0.4735430000000 1.0
C      1  0.4230630000000  0.4663680000000  0.4701050000000 1.0
C      1  0.5052810000000  0.4307240000000  0.4711020000000 1.0
C      1  0.5672550000000  0.4843790000000  0.4711040000000 1.0
C      1  0.5407290000000  0.5573250000000  0.4767550000000 1.0
C      1  0.4532990000000  0.5558580000000  0.4690490000000 1.0
C      1  0.4047090000000  0.4484080000000  0.5147870000000 1.0
C      1  0.5028700000000  0.4359950000000  0.5273570000000 1.0
C      1  0.5693530000000  0.4668990000000  0.5286180000000 1.0
C      1  0.5376290000000  0.5621660000000  0.5288630000000 1.0
C      1  0.4540010000000  0.5544060000000  0.5286820000000 1.0
C      1  0.4507460000000  0.4494760000000  0.4686820000000 1.0
C      1  0.5370520000000  0.4417780000000  0.4722570000000 1.0
C      1  0.5640900000000  0.5241680000000  0.4706280000000 1.0
C      1  0.5101320000000  0.5702980000000  0.4695500000000 1.0
C      1  0.4329580000000  0.5291860000000  0.4667320000000 1.0
C      1  0.4630590000000  0.4501330000000  0.5299820000000 1.0
C      1  0.5351350000000  0.4401440000000  0.5256830000000 1.0
C      1  0.5688940000000  0.5254750000000  0.5294670000000 1.0
C      1  0.5062410000000  0.5718030000000  0.5336630000000 1.0
C      1  0.4367920000000  0.5252170000000  0.5311160000000 1.0
C      1  0.4924850000000  0.4761200000000  0.4459570000000 1.0
C      1  0.5223750000000  0.4859220000000  0.4489160000000 1.0
C      1  0.5192630000000  0.5153980000000  0.4523540000000 1.0
C      1  0.4931670000000  0.5280760000000  0.4452900000000 1.0
C      1  0.4722600000000  0.5033510000000  0.4424850000000 1.0
C      1  0.4960150000000  0.4794760000000  0.5579910000000 1.0
C      1  0.5287350000000  0.4851740000000  0.5580830000000 1.0
C      1  0.5246280000000  0.5183990000000  0.5539360000000 1.0
C      1  0.4950690000000  0.5283590000000  0.5523330000000 1.0
C      1  0.4748920000000  0.5038960000000  0.5580570000000 1.0
C      1  0.4530910000000  0.5728170000000  0.4992820000000 1.0
C      1  0.3950130000000  0.4640680000000  0.4894600000000 1.0
C      1  0.5643340000000  0.5726670000000  0.5158970000000 1.0
C      1  0.5917320000000  0.4759740000000  0.5083310000000 1.0
C      1  0.4923470000000  0.4042790000000  0.4809770000000 1.0
C      1  0.4549800000000  0.5388690000000  0.4984560000000 1.0
C      1  0.5078640000000  0.4495110000000  0.4980790000000 1.0
C      1  0.5206270000000  0.5516410000000  0.5028200000000 1.0
C      1  0.4325950000000  0.4636030000000  0.5026300000000 1.0
C      1  0.5842090000000  0.4952670000000  0.4894640000000 1.0
C      1  0.5177510000000  0.5178360000000  0.5052020000000 1.0
C      1  0.4942190000000  0.4769870000000  0.4916970000000 1.0
C      1  0.4869630000000  0.5306590000000  0.4985420000000 1.0
C      1  0.5257000000000  0.4849380000000  0.5018480000000 1.0
C      1  0.4542940000000  0.4886890000000  0.5001870000000 1.0
C      1  0.5510560000000  0.4339160000000  0.4993290000000 1.0
C      1  0.5790620000000  0.5262230000000  0.4997190000000 1.0
C      1  0.5011520000000  0.5799990000000  0.5009000000000 1.0
C      1  0.4563520000000  0.4393840000000  0.5000550000000 1.0
C      1  0.4276470000000  0.5184740000000  0.4986500000000 1.0
C      1  0.5769710000000  0.4462060000000  0.5051280000000 1.0
C      1  0.5688300000000  0.5576570000000  0.4917740000000 1.0
C      1  0.4746740000000  0.5916710000000  0.4993800000000 1.0
C      1  0.4150870000000  0.4913990000000  0.4938130000000 1.0
C      1  0.4831750000000  0.4238680000000  0.5035870000000 1.0
C      1  0.4801440000000  0.5027990000000  0.4864180000000 1.0
C      1  0.4953560000000  0.5003220000000  0.5238970000000 1.0
END
