TITL C-3289333-7213-134 0.00419450207188455 125000 -250.479089300422 0 0 49 (C1) n - 1
REM
REM in /nfs/bkarasulu/CARBON/AIRSS/Generating-Clusters/AIREBO/with-SteepDescent/Higher-Symm/SD-CG/HFTN-CG
REM
REM
REM
REM
REM
REM ./C.cell (b20cbc046b6831c77cfcea5457e17084)
REM
REM compiler GCC version 9.2.1 20190827 (Red Hat 9.2.1-1)
REM options -cpp -mtune=generic -march=x86-64 -g -O0 -fpre-include=/usr/include/finclude/math-vector-fortran.h
REM seed -2080314800 -60524275 -1039548561 2092572935 -724204243 -1513124462 1863114064 695506324 793314020 770830922 -938984187 677849956 410689889 1162145244 -1647038320 -1736536681 1199444083 1920399704 1470638986 -1162713545 -612310626 -984639211 321837567 -750655603 427763466 -1236493547 -1094408760 -411802710 -675154070 -1548923621 -628369006 -1833119087 500182497
REM
CELL 1.54180   50.00000   50.00000   50.00000   90.00000   90.00000   90.00000
LATT -1
SFAC C  
C      1  0.5107460000000  0.4724280000000  0.5394580000000 1.0
C      1  0.5081690000000  0.4752160000000  0.4617240000000 1.0
C      1  0.4345040000000  0.4980860000000  0.4693160000000 1.0
C      1  0.4381940000000  0.4928280000000  0.5279670000000 1.0
C      1  0.5404730000000  0.4942390000000  0.5176740000000 1.0
C      1  0.5351700000000  0.4966170000000  0.4852650000000 1.0
C      1  0.5268150000000  0.5651630000000  0.4723590000000 1.0
C      1  0.5230320000000  0.5590470000000  0.5276320000000 1.0
C      1  0.5249890000000  0.4997760000000  0.5541070000000 1.0
C      1  0.5221090000000  0.5029300000000  0.4481350000000 1.0
C      1  0.4959040000000  0.5528980000000  0.4800570000000 1.0
C      1  0.5102480000000  0.5653660000000  0.5071520000000 1.0
C      1  0.5024330000000  0.5059840000000  0.4864980000000 1.0
C      1  0.5100780000000  0.5056760000000  0.5177250000000 1.0
C      1  0.4668320000000  0.4271290000000  0.4851970000000 1.0
C      1  0.4694890000000  0.4278200000000  0.5132050000000 1.0
C      1  0.4638270000000  0.4486830000000  0.4667800000000 1.0
C      1  0.4674730000000  0.4511750000000  0.5295320000000 1.0
C      1  0.5346720000000  0.5318970000000  0.5399240000000 1.0
C      1  0.5267170000000  0.5317450000000  0.4660830000000 1.0
C      1  0.4496440000000  0.5485880000000  0.4850080000000 1.0
C      1  0.4546040000000  0.5515060000000  0.5117140000000 1.0
C      1  0.5587930000000  0.4690770000000  0.5313910000000 1.0
C      1  0.5552140000000  0.4729690000000  0.4712610000000 1.0
C      1  0.4947490000000  0.5441710000000  0.5680730000000 1.0
C      1  0.4939200000000  0.5339020000000  0.4257170000000 1.0
C      1  0.4733630000000  0.4926460000000  0.5589650000000 1.0
C      1  0.4758910000000  0.4928420000000  0.4441590000000 1.0
C      1  0.5009330000000  0.5277730000000  0.5389310000000 1.0
C      1  0.5042890000000  0.5493310000000  0.4475400000000 1.0
C      1  0.4760240000000  0.5273490000000  0.4881420000000 1.0
C      1  0.4718280000000  0.5282150000000  0.5236420000000 1.0
C      1  0.5591990000000  0.5226030000000  0.5192360000000 1.0
C      1  0.5531730000000  0.5254390000000  0.4864990000000 1.0
C      1  0.4554820000000  0.4737840000000  0.5117180000000 1.0
C      1  0.4495610000000  0.4726990000000  0.4812970000000 1.0
C      1  0.5574570000000  0.4999520000000  0.5465760000000 1.0
C      1  0.5544730000000  0.5046080000000  0.4584290000000 1.0
C      1  0.4887230000000  0.4818660000000  0.5153010000000 1.0
C      1  0.4825900000000  0.4797840000000  0.4832440000000 1.0
C      1  0.4614900000000  0.5078770000000  0.4641540000000 1.0
C      1  0.4566790000000  0.5078430000000  0.5416310000000 1.0
C      1  0.5295230000000  0.4583370000000  0.4753680000000 1.0
C      1  0.5322190000000  0.4560540000000  0.5261410000000 1.0
C      1  0.4814500000000  0.4652440000000  0.5506930000000 1.0
C      1  0.4804460000000  0.4621090000000  0.4477010000000 1.0
C      1  0.4972210000000  0.5097450000000  0.5675300000000 1.0
C      1  0.4966470000000  0.5068150000000  0.4311070000000 1.0
C      1  0.5276930000000  0.4454640000000  0.5003490000000 1.0
END
