TITL C-3289323-3850-323 -0.0014001134176636 125000 -186.664321239723 0 0 35 (C1) n - 1
REM
REM in /nfs/bkarasulu/CARBON/AIRSS/Generating-Clusters/AIREBO/with-SteepDescent/Higher-Symm/SD-CG/HFTN-CG
REM
REM
REM
REM
REM
REM ./C.cell (b20cbc046b6831c77cfcea5457e17084)
REM
REM compiler GCC version 9.2.1 20190827 (Red Hat 9.2.1-1)
REM options -cpp -mtune=generic -march=x86-64 -g -O0 -fpre-include=/usr/include/finclude/math-vector-fortran.h
REM seed -525614327 -719333074 -1343239208 -1084845506 -1839562981 -1915287438 1226724209 -922118498 -2095962284 1565654563 -1231157809 -917572277 -2003500720 1045669225 -1839924128 26168162 -1511264612 849577946 -1415746854 -1608042666 -965452726 1766638621 -1547495645 -1752155916 1136401726 -1825832653 165385408 -67503836 1835708891 -373943879 1933909835 154838288 -174192336
REM
CELL 1.54180   50.00000   50.00000   50.00000   90.00000   90.00000   90.00000
LATT -1
SFAC C  
C      1  0.4935830000000  0.4163530000000  0.5450830000000 1.0
C      1  0.5287910000000  0.5169220000000  0.4500360000000 1.0
C      1  0.5185020000000  0.4738160000000  0.5293100000000 1.0
C      1  0.4901620000000  0.5617880000000  0.4805810000000 1.0
C      1  0.4925550000000  0.4366440000000  0.4879720000000 1.0
C      1  0.4305220000000  0.6051720000000  0.4877780000000 1.0
C      1  0.5036630000000  0.5320650000000  0.5379660000000 1.0
C      1  0.4895440000000  0.4853290000000  0.4385340000000 1.0
C      1  0.4787190000000  0.4358970000000  0.5580990000000 1.0
C      1  0.4923010000000  0.5098970000000  0.5507220000000 1.0
C      1  0.4725710000000  0.4613480000000  0.5382510000000 1.0
C      1  0.5120900000000  0.4863120000000  0.4804100000000 1.0
C      1  0.4919570000000  0.4320890000000  0.4548000000000 1.0
C      1  0.5220790000000  0.5710320000000  0.5149240000000 1.0
C      1  0.5081030000000  0.4987600000000  0.4547820000000 1.0
C      1  0.4908830000000  0.4388550000000  0.5202860000000 1.0
C      1  0.4798330000000  0.4603850000000  0.4444970000000 1.0
C      1  0.5087630000000  0.4955240000000  0.5063710000000 1.0
C      1  0.4915940000000  0.4846820000000  0.5412820000000 1.0
C      1  0.4539070000000  0.5941550000000  0.4921120000000 1.0
C      1  0.5582170000000  0.4811880000000  0.4733690000000 1.0
C      1  0.4385080000000  0.4421480000000  0.4771350000000 1.0
C      1  0.4930950000000  0.5836280000000  0.5211410000000 1.0
C      1  0.5048110000000  0.5597960000000  0.5398070000000 1.0
C      1  0.5367830000000  0.5417720000000  0.4679330000000 1.0
C      1  0.4644850000000  0.4446100000000  0.4705150000000 1.0
C      1  0.5356580000000  0.4677380000000  0.4806960000000 1.0
C      1  0.5400090000000  0.4696160000000  0.5460010000000 1.0
C      1  0.5543480000000  0.5126530000000  0.4720520000000 1.0
C      1  0.4461200000000  0.4666770000000  0.5316950000000 1.0
C      1  0.5186490000000  0.5494740000000  0.4904150000000 1.0
C      1  0.5164370000000  0.4537190000000  0.5029960000000 1.0
C      1  0.5171760000000  0.5237430000000  0.5122660000000 1.0
C      1  0.5484810000000  0.5256540000000  0.5023320000000 1.0
C      1  0.4770990000000  0.5805610000000  0.4978530000000 1.0
END
