TITL C-3289322-3858-606 0.00394208887202525 125000 -683.260165884116 0 0 130 (C1) n - 1
REM
REM in /nfs/bkarasulu/CARBON/AIRSS/Generating-Clusters/AIREBO/with-SteepDescent/Higher-Symm/SD-CG/HFTN-CG
REM
REM
REM
REM
REM
REM ./C.cell (b20cbc046b6831c77cfcea5457e17084)
REM
REM compiler GCC version 9.2.1 20190827 (Red Hat 9.2.1-1)
REM options -cpp -mtune=generic -march=x86-64 -g -O0 -fpre-include=/usr/include/finclude/math-vector-fortran.h
REM seed -50181977 -1647823693 -1776980786 -2125967117 -688230261 2146954929 168811622 1274719947 -1856849455 1172017806 -1007566714 -300656868 -147413810 -32074663 1477988818 298798080 1537483687 -1516466123 296459666 -626028548 -46434145 671849112 -776833888 -1735111880 606985010 -937773731 1381137874 -495764611 1983465740 -1583356998 -462677631 -489794029 1897149413
REM
CELL 1.54180   50.00000   50.00000   50.00000   90.00000   90.00000   90.00000
LATT -1
SFAC C  
C      1  0.5723310000000  0.5398500000000  0.4809070000000 1.0
C      1  0.3928470000000  0.5043880000000  0.4826640000000 1.0
C      1  0.4939110000000  0.4098090000000  0.5129150000000 1.0
C      1  0.4668110000000  0.4149100000000  0.5126900000000 1.0
C      1  0.4672830000000  0.5036470000000  0.5196360000000 1.0
C      1  0.5583040000000  0.4475060000000  0.4767440000000 1.0
C      1  0.5102610000000  0.4403280000000  0.4749100000000 1.0
C      1  0.4963030000000  0.4645300000000  0.5036720000000 1.0
C      1  0.5362320000000  0.5399460000000  0.5658420000000 1.0
C      1  0.4520200000000  0.4475600000000  0.5648630000000 1.0
C      1  0.5888690000000  0.5037530000000  0.4997030000000 1.0
C      1  0.5429230000000  0.5569030000000  0.4796880000000 1.0
C      1  0.5656450000000  0.4811750000000  0.4569920000000 1.0
C      1  0.4631770000000  0.5081400000000  0.4220190000000 1.0
C      1  0.5108340000000  0.4986190000000  0.4692950000000 1.0
C      1  0.4112010000000  0.5283670000000  0.5111290000000 1.0
C      1  0.4504270000000  0.4584720000000  0.4344200000000 1.0
C      1  0.5124600000000  0.4347060000000  0.5070040000000 1.0
C      1  0.5180830000000  0.5581730000000  0.5844020000000 1.0
C      1  0.5169210000000  0.5684650000000  0.4487450000000 1.0
C      1  0.4236130000000  0.5644270000000  0.5252820000000 1.0
C      1  0.5535180000000  0.4424710000000  0.5603170000000 1.0
C      1  0.4734510000000  0.5758780000000  0.5433000000000 1.0
C      1  0.4896870000000  0.5079430000000  0.5583180000000 1.0
C      1  0.5325810000000  0.5871090000000  0.4724860000000 1.0
C      1  0.4896990000000  0.5078180000000  0.4434390000000 1.0
C      1  0.4360910000000  0.5057450000000  0.5321570000000 1.0
C      1  0.3985570000000  0.4742810000000  0.4973130000000 1.0
C      1  0.5457780000000  0.5911510000000  0.5035590000000 1.0
C      1  0.4478840000000  0.5408390000000  0.4775310000000 1.0
C      1  0.4177680000000  0.4334420000000  0.5299510000000 1.0
C      1  0.4706660000000  0.4598030000000  0.4846810000000 1.0
C      1  0.5372670000000  0.5139310000000  0.4186290000000 1.0
C      1  0.4948810000000  0.5288800000000  0.4900040000000 1.0
C      1  0.5473320000000  0.4060540000000  0.4877610000000 1.0
C      1  0.4700990000000  0.5417230000000  0.5184820000000 1.0
C      1  0.5699250000000  0.4718340000000  0.5656160000000 1.0
C      1  0.4731720000000  0.5369990000000  0.5520210000000 1.0
C      1  0.5002680000000  0.4658940000000  0.5352280000000 1.0
C      1  0.5496890000000  0.4634130000000  0.4368700000000 1.0
C      1  0.4966280000000  0.5207050000000  0.5217270000000 1.0
C      1  0.4575270000000  0.4290680000000  0.4832370000000 1.0
C      1  0.4561360000000  0.4610730000000  0.5274930000000 1.0
C      1  0.5305250000000  0.4747360000000  0.5415630000000 1.0
C      1  0.4914830000000  0.4722020000000  0.4608170000000 1.0
C      1  0.5725720000000  0.5845460000000  0.5033370000000 1.0
C      1  0.5207300000000  0.5825700000000  0.5608600000000 1.0
C      1  0.5572780000000  0.5109230000000  0.4712580000000 1.0
C      1  0.5849850000000  0.4654420000000  0.4801240000000 1.0
C      1  0.5310740000000  0.5184060000000  0.4578590000000 1.0
C      1  0.5029200000000  0.5893550000000  0.4797780000000 1.0
C      1  0.4208830000000  0.4799350000000  0.5403950000000 1.0
C      1  0.5724620000000  0.4151260000000  0.5537980000000 1.0
C      1  0.4863040000000  0.4193970000000  0.4675040000000 1.0
C      1  0.4374480000000  0.4274650000000  0.4558400000000 1.0
C      1  0.5105280000000  0.4546750000000  0.4439060000000 1.0
C      1  0.5405420000000  0.5157490000000  0.5426350000000 1.0
C      1  0.4862830000000  0.4957450000000  0.4926460000000 1.0
C      1  0.4339390000000  0.5090540000000  0.4983860000000 1.0
C      1  0.4986800000000  0.5394450000000  0.5964490000000 1.0
C      1  0.5837280000000  0.5050390000000  0.4423060000000 1.0
C      1  0.4596940000000  0.4311810000000  0.5358830000000 1.0
C      1  0.5213300000000  0.5380000000000  0.4366010000000 1.0
C      1  0.5618310000000  0.5195920000000  0.5759570000000 1.0
C      1  0.5998680000000  0.5183120000000  0.5287020000000 1.0
C      1  0.4810880000000  0.4650740000000  0.3997660000000 1.0
C      1  0.4727480000000  0.4831900000000  0.5452230000000 1.0
C      1  0.4978910000000  0.4657800000000  0.5857850000000 1.0
C      1  0.5335930000000  0.5866650000000  0.5295440000000 1.0
C      1  0.5185090000000  0.4996060000000  0.5240040000000 1.0
C      1  0.4601530000000  0.4751920000000  0.4140200000000 1.0
C      1  0.4276450000000  0.4665850000000  0.5098570000000 1.0
C      1  0.4272280000000  0.4348650000000  0.4981650000000 1.0
C      1  0.5604990000000  0.4727940000000  0.5354240000000 1.0
C      1  0.4550770000000  0.5638020000000  0.5007180000000 1.0
C      1  0.4991740000000  0.5587840000000  0.5497020000000 1.0
C      1  0.4344740000000  0.4703280000000  0.4572800000000 1.0
C      1  0.5048250000000  0.5040070000000  0.4158600000000 1.0
C      1  0.5602380000000  0.4335030000000  0.5279340000000 1.0
C      1  0.4684390000000  0.4319730000000  0.4426640000000 1.0
C      1  0.5343710000000  0.4594280000000  0.4849980000000 1.0
C      1  0.5398910000000  0.4207100000000  0.5101130000000 1.0
C      1  0.4764430000000  0.5807830000000  0.5157500000000 1.0
C      1  0.5997420000000  0.4947760000000  0.4704960000000 1.0
C      1  0.3958990000000  0.4764110000000  0.4634860000000 1.0
C      1  0.4460400000000  0.4825350000000  0.4868400000000 1.0
C      1  0.5295150000000  0.5533940000000  0.5353110000000 1.0
C      1  0.5623800000000  0.5275300000000  0.5204650000000 1.0
C      1  0.5783840000000  0.5574500000000  0.5162510000000 1.0
C      1  0.5594190000000  0.5457740000000  0.4517630000000 1.0
C      1  0.5364980000000  0.4804060000000  0.4201950000000 1.0
C      1  0.4674470000000  0.4943520000000  0.4640760000000 1.0
C      1  0.5321810000000  0.4900580000000  0.4943610000000 1.0
C      1  0.5961370000000  0.5360680000000  0.5007830000000 1.0
C      1  0.4822580000000  0.5795040000000  0.4652980000000 1.0
C      1  0.5639950000000  0.4873300000000  0.5060760000000 1.0
C      1  0.4243860000000  0.4516900000000  0.5495900000000 1.0
C      1  0.4127890000000  0.5569300000000  0.4687070000000 1.0
C      1  0.5620310000000  0.5592900000000  0.5433860000000 1.0
C      1  0.5638510000000  0.5244250000000  0.4338010000000 1.0
C      1  0.4630550000000  0.5048560000000  0.5900540000000 1.0
C      1  0.5758460000000  0.4559020000000  0.5114680000000 1.0
C      1  0.5569990000000  0.4923710000000  0.5809610000000 1.0
C      1  0.5243830000000  0.4549960000000  0.5674030000000 1.0
C      1  0.4779980000000  0.5470610000000  0.4726140000000 1.0
C      1  0.4835780000000  0.5151030000000  0.3957170000000 1.0
C      1  0.4188260000000  0.5236420000000  0.4721500000000 1.0
C      1  0.4142210000000  0.4480920000000  0.4696710000000 1.0
C      1  0.4838620000000  0.4456570000000  0.5530830000000 1.0
C      1  0.4293110000000  0.5082360000000  0.4250500000000 1.0
C      1  0.5419540000000  0.5221770000000  0.4994490000000 1.0
C      1  0.5134260000000  0.5144520000000  0.5980930000000 1.0
C      1  0.5013740000000  0.4229280000000  0.4372280000000 1.0
C      1  0.4379680000000  0.5485700000000  0.4474320000000 1.0
C      1  0.5777070000000  0.5300230000000  0.5507150000000 1.0
C      1  0.4599860000000  0.5411300000000  0.4296300000000 1.0
C      1  0.5190080000000  0.5040290000000  0.5662110000000 1.0
C      1  0.5526340000000  0.4220980000000  0.4646050000000 1.0
C      1  0.5284760000000  0.4805790000000  0.5889400000000 1.0
C      1  0.4695120000000  0.4738910000000  0.5774630000000 1.0
C      1  0.4251700000000  0.5348600000000  0.5414010000000 1.0
C      1  0.4226660000000  0.5667190000000  0.4946830000000 1.0
C      1  0.4181780000000  0.4981810000000  0.4496190000000 1.0
C      1  0.4724020000000  0.5314580000000  0.5855590000000 1.0
C      1  0.5357890000000  0.4322020000000  0.4403210000000 1.0
C      1  0.4896010000000  0.5494800000000  0.4408020000000 1.0
C      1  0.5076200000000  0.4704670000000  0.4138940000000 1.0
C      1  0.4469370000000  0.5589000000000  0.5498390000000 1.0
C      1  0.5200440000000  0.5476660000000  0.5031260000000 1.0
C      1  0.5020870000000  0.5766570000000  0.5048850000000 1.0
END
