TITL C-3289328-6581-657 -0.00144491225180957 125000 -862.807106939769 0 0 167 (C1) n - 1
REM
REM in /nfs/bkarasulu/CARBON/AIRSS/Generating-Clusters/AIREBO/with-SteepDescent/Higher-Symm/SD-CG/HFTN-CG
REM
REM
REM
REM
REM
REM ./C.cell (b20cbc046b6831c77cfcea5457e17084)
REM
REM compiler GCC version 9.2.1 20190827 (Red Hat 9.2.1-1)
REM options -cpp -mtune=generic -march=x86-64 -g -O0 -fpre-include=/usr/include/finclude/math-vector-fortran.h
REM seed -1348493587 -402253889 1748127490 1553889054 -1100337564 349655655 2109617239 1422023324 1868352324 1977867626 2092916114 -816779876 -1024805351 -1558397447 -911987211 1763984736 150348668 -1668681531 1637029507 1535450556 1705682824 1013289254 -1643349501 2087085646 590071897 -1330882062 369762115 -1618745300 -1573450174 99064168 -1679810496 -978113332 1107821128
REM
CELL 1.54180   50.00000   50.00000   50.00000   90.00000   90.00000   90.00000
LATT -1
SFAC C  
C      1  0.4034210000000  0.5296740000000  0.5278130000000 1.0
C      1  0.5903310000000  0.5204710000000  0.4797870000000 1.0
C      1  0.4132100000000  0.4791840000000  0.5141620000000 1.0
C      1  0.5856470000000  0.4772900000000  0.4836190000000 1.0
C      1  0.4035720000000  0.5265350000000  0.4986530000000 1.0
C      1  0.5847760000000  0.5181500000000  0.5118590000000 1.0
C      1  0.4039520000000  0.4970110000000  0.4888700000000 1.0
C      1  0.5840770000000  0.4845160000000  0.5168080000000 1.0
C      1  0.4452530000000  0.4048110000000  0.5097330000000 1.0
C      1  0.5521480000000  0.4099430000000  0.4830920000000 1.0
C      1  0.4520990000000  0.5952150000000  0.5195710000000 1.0
C      1  0.5392850000000  0.5972980000000  0.4747030000000 1.0
C      1  0.4498770000000  0.3884320000000  0.4848080000000 1.0
C      1  0.5396700000000  0.4026180000000  0.5140980000000 1.0
C      1  0.4487350000000  0.5885420000000  0.4864020000000 1.0
C      1  0.5401370000000  0.5944280000000  0.5145220000000 1.0
C      1  0.5117480000000  0.5450610000000  0.4803240000000 1.0
C      1  0.4810960000000  0.5381160000000  0.5121220000000 1.0
C      1  0.5088260000000  0.4487380000000  0.4809670000000 1.0
C      1  0.4778610000000  0.4521300000000  0.5125850000000 1.0
C      1  0.5140910000000  0.5461300000000  0.5139060000000 1.0
C      1  0.4803290000000  0.5353990000000  0.4780730000000 1.0
C      1  0.5098880000000  0.4604450000000  0.5128800000000 1.0
C      1  0.4786960000000  0.4646400000000  0.4813140000000 1.0
C      1  0.4387560000000  0.4524300000000  0.4477550000000 1.0
C      1  0.5489580000000  0.4535910000000  0.5510710000000 1.0
C      1  0.4556170000000  0.5443490000000  0.4361070000000 1.0
C      1  0.5569850000000  0.5598820000000  0.5444580000000 1.0
C      1  0.4565830000000  0.4512260000000  0.5544840000000 1.0
C      1  0.5422290000000  0.4404250000000  0.4586330000000 1.0
C      1  0.4544660000000  0.5432600000000  0.5609430000000 1.0
C      1  0.5541470000000  0.5450570000000  0.4441980000000 1.0
C      1  0.4719330000000  0.4413720000000  0.5955580000000 1.0
C      1  0.5391330000000  0.4453470000000  0.4035320000000 1.0
C      1  0.4675310000000  0.5573490000000  0.6012390000000 1.0
C      1  0.5307760000000  0.5564580000000  0.4042790000000 1.0
C      1  0.4701910000000  0.4582590000000  0.4039940000000 1.0
C      1  0.5360540000000  0.4451710000000  0.6020510000000 1.0
C      1  0.4775470000000  0.5522460000000  0.3985790000000 1.0
C      1  0.5471260000000  0.5559550000000  0.5892860000000 1.0
C      1  0.5414870000000  0.5758880000000  0.4374080000000 1.0
C      1  0.4599460000000  0.5741350000000  0.5657870000000 1.0
C      1  0.5292510000000  0.4183760000000  0.4401520000000 1.0
C      1  0.4703680000000  0.4231090000000  0.5679590000000 1.0
C      1  0.5368300000000  0.5745800000000  0.5626140000000 1.0
C      1  0.4617070000000  0.5770900000000  0.4393090000000 1.0
C      1  0.5405100000000  0.4223050000000  0.5614170000000 1.0
C      1  0.4612180000000  0.4387890000000  0.4302530000000 1.0
C      1  0.4781360000000  0.5191920000000  0.4064530000000 1.0
C      1  0.5309130000000  0.5280210000000  0.5742460000000 1.0
C      1  0.4603810000000  0.4903230000000  0.4116310000000 1.0
C      1  0.5353630000000  0.4720380000000  0.5838330000000 1.0
C      1  0.4739470000000  0.5312260000000  0.5931710000000 1.0
C      1  0.5366360000000  0.5252740000000  0.4142060000000 1.0
C      1  0.4654960000000  0.4682980000000  0.5947970000000 1.0
C      1  0.5382990000000  0.4726100000000  0.4185670000000 1.0
C      1  0.5133790000000  0.5798180000000  0.5204910000000 1.0
C      1  0.4711220000000  0.5681340000000  0.4782100000000 1.0
C      1  0.5171110000000  0.4280770000000  0.5136100000000 1.0
C      1  0.4683220000000  0.4165980000000  0.4798650000000 1.0
C      1  0.5162250000000  0.5765710000000  0.4881960000000 1.0
C      1  0.4705920000000  0.5675900000000  0.5122310000000 1.0
C      1  0.5203300000000  0.4167070000000  0.4821780000000 1.0
C      1  0.4751110000000  0.4206240000000  0.5136370000000 1.0
C      1  0.5149940000000  0.5829030000000  0.4558270000000 1.0
C      1  0.4757580000000  0.5836220000000  0.5406750000000 1.0
C      1  0.5070050000000  0.4071820000000  0.4556510000000 1.0
C      1  0.4895840000000  0.4203630000000  0.5412900000000 1.0
C      1  0.5051650000000  0.5778440000000  0.5504380000000 1.0
C      1  0.4903280000000  0.5650230000000  0.4531450000000 1.0
C      1  0.5215730000000  0.4102270000000  0.5410190000000 1.0
C      1  0.4825410000000  0.4258070000000  0.4531770000000 1.0
C      1  0.3975710000000  0.4646850000000  0.4804350000000 1.0
C      1  0.5865670000000  0.4552500000000  0.5340610000000 1.0
C      1  0.4091850000000  0.5461830000000  0.4714470000000 1.0
C      1  0.5899860000000  0.5496160000000  0.5065430000000 1.0
C      1  0.3940170000000  0.4521300000000  0.5074220000000 1.0
C      1  0.5870880000000  0.4480150000000  0.5008420000000 1.0
C      1  0.4181340000000  0.5531310000000  0.5416720000000 1.0
C      1  0.5917090000000  0.5537900000000  0.4728810000000 1.0
C      1  0.4750340000000  0.4829220000000  0.4528780000000 1.0
C      1  0.5231380000000  0.4838810000000  0.5337170000000 1.0
C      1  0.4880470000000  0.5111300000000  0.4555240000000 1.0
C      1  0.5181360000000  0.5152040000000  0.5245080000000 1.0
C      1  0.4767770000000  0.4792060000000  0.5331220000000 1.0
C      1  0.5226040000000  0.4925290000000  0.4632080000000 1.0
C      1  0.4850760000000  0.5121850000000  0.5337500000000 1.0
C      1  0.5285720000000  0.5239910000000  0.4676210000000 1.0
C      1  0.4102000000000  0.4422870000000  0.5292100000000 1.0
C      1  0.5712580000000  0.4358790000000  0.4738660000000 1.0
C      1  0.4271610000000  0.5721750000000  0.5586760000000 1.0
C      1  0.5732610000000  0.5724100000000  0.4507590000000 1.0
C      1  0.4082240000000  0.4525720000000  0.4585040000000 1.0
C      1  0.5737280000000  0.4304170000000  0.5534420000000 1.0
C      1  0.4377000000000  0.5612120000000  0.4576850000000 1.0
C      1  0.5835760000000  0.5662070000000  0.5274130000000 1.0
C      1  0.5507870000000  0.4490470000000  0.5174170000000 1.0
C      1  0.4514720000000  0.4450370000000  0.4757790000000 1.0
C      1  0.5460790000000  0.5551340000000  0.5156830000000 1.0
C      1  0.4389450000000  0.5450070000000  0.4875700000000 1.0
C      1  0.5408800000000  0.4577390000000  0.4878680000000 1.0
C      1  0.4411500000000  0.4520990000000  0.5285090000000 1.0
C      1  0.5599010000000  0.5460420000000  0.4777010000000 1.0
C      1  0.4411670000000  0.5408440000000  0.5212480000000 1.0
C      1  0.5248670000000  0.4638890000000  0.4465920000000 1.0
C      1  0.4897360000000  0.4530720000000  0.5505790000000 1.0
C      1  0.5207590000000  0.5399760000000  0.4404360000000 1.0
C      1  0.4834170000000  0.5287340000000  0.5616840000000 1.0
C      1  0.5166060000000  0.4607840000000  0.5577980000000 1.0
C      1  0.4934580000000  0.4571310000000  0.4450440000000 1.0
C      1  0.5077130000000  0.5464240000000  0.5620340000000 1.0
C      1  0.4875240000000  0.5367460000000  0.4340290000000 1.0
C      1  0.5170920000000  0.4914000000000  0.4059580000000 1.0
C      1  0.4849000000000  0.4847360000000  0.6051010000000 1.0
C      1  0.5276650000000  0.5145010000000  0.3843010000000 1.0
C      1  0.4888030000000  0.5148600000000  0.6093520000000 1.0
C      1  0.5166240000000  0.4870190000000  0.6053340000000 1.0
C      1  0.4881650000000  0.4830990000000  0.3934120000000 1.0
C      1  0.5196540000000  0.5178610000000  0.6046940000000 1.0
C      1  0.4968130000000  0.5122320000000  0.3789050000000 1.0
C      1  0.4425930000000  0.4775170000000  0.5708970000000 1.0
C      1  0.5582280000000  0.4870440000000  0.4393440000000 1.0
C      1  0.4480100000000  0.5106480000000  0.5654450000000 1.0
C      1  0.5674780000000  0.5179480000000  0.4285930000000 1.0
C      1  0.4440280000000  0.4853480000000  0.4410580000000 1.0
C      1  0.5662940000000  0.4759630000000  0.5702600000000 1.0
C      1  0.4416770000000  0.5190600000000  0.4448300000000 1.0
C      1  0.5576050000000  0.5292670000000  0.5531840000000 1.0
C      1  0.4023600000000  0.5075110000000  0.5468460000000 1.0
C      1  0.5948440000000  0.5216530000000  0.4494580000000 1.0
C      1  0.4189300000000  0.4799890000000  0.5465610000000 1.0
C      1  0.5888230000000  0.4885080000000  0.4541020000000 1.0
C      1  0.4027150000000  0.5234160000000  0.4523430000000 1.0
C      1  0.5882880000000  0.5152190000000  0.5573850000000 1.0
C      1  0.4146950000000  0.4919330000000  0.4570010000000 1.0
C      1  0.5906310000000  0.4859960000000  0.5501420000000 1.0
C      1  0.4973910000000  0.4216040000000  0.5888550000000 1.0
C      1  0.5212210000000  0.4276100000000  0.4146700000000 1.0
C      1  0.4843220000000  0.5779120000000  0.5892280000000 1.0
C      1  0.5146710000000  0.5778300000000  0.4164870000000 1.0
C      1  0.4936960000000  0.4390260000000  0.4172320000000 1.0
C      1  0.5251430000000  0.4241680000000  0.5880150000000 1.0
C      1  0.4851080000000  0.5734400000000  0.4147890000000 1.0
C      1  0.5150270000000  0.5670610000000  0.5876010000000 1.0
C      1  0.4572000000000  0.4897410000000  0.4893370000000 1.0
C      1  0.5519640000000  0.4803240000000  0.5207700000000 1.0
C      1  0.4523980000000  0.5167130000000  0.4758420000000 1.0
C      1  0.5526670000000  0.5142430000000  0.5230270000000 1.0
C      1  0.4466390000000  0.4840090000000  0.5181220000000 1.0
C      1  0.5541640000000  0.4856530000000  0.4738610000000 1.0
C      1  0.4510640000000  0.5145360000000  0.5324260000000 1.0
C      1  0.5516780000000  0.5163970000000  0.4891000000000 1.0
C      1  0.5691220000000  0.5302200000000  0.5851730000000 1.0
C      1  0.4152370000000  0.5143110000000  0.4243930000000 1.0
C      1  0.5725030000000  0.4999880000000  0.5907750000000 1.0
C      1  0.4079970000000  0.4850810000000  0.4237110000000 1.0
C      1  0.5909580000000  0.5063770000000  0.4078970000000 1.0
C      1  0.4170470000000  0.5079750000000  0.5745970000000 1.0
C      1  0.6045980000000  0.4908600000000  0.4245110000000 1.0
C      1  0.4160320000000  0.4844060000000  0.5928690000000 1.0
C      1  0.5672210000000  0.4222940000000  0.5109530000000 1.0
C      1  0.4311280000000  0.5707600000000  0.5085520000000 1.0
C      1  0.5559470000000  0.5745440000000  0.4919210000000 1.0
C      1  0.4391310000000  0.4338040000000  0.5031900000000 1.0
C      1  0.5117340000000  0.5037010000000  0.4329860000000 1.0
C      1  0.5269340000000  0.4986070000000  0.5641280000000 1.0
C      1  0.5025980000000  0.4878580000000  0.4844890000000 1.0
END
