TITL C-3289332-8317-653 -0.00335936523101392 125000 -1045.6288466512 0 0 188 (C1) n - 1
REM
REM in /nfs/bkarasulu/CARBON/AIRSS/Generating-Clusters/AIREBO/with-SteepDescent/Higher-Symm/SD-CG/HFTN-CG
REM
REM
REM
REM
REM
REM ./C.cell (b20cbc046b6831c77cfcea5457e17084)
REM
REM compiler GCC version 9.2.1 20190827 (Red Hat 9.2.1-1)
REM options -cpp -mtune=generic -march=x86-64 -g -O0 -fpre-include=/usr/include/finclude/math-vector-fortran.h
REM seed 1458026934 -1888205560 384903070 -2044524378 -539835446 189831498 1434047530 766783049 -386296796 -986492001 1646701547 302661486 -1770134632 -1252439319 2094228382 -422337303 621127735 -1926800881 329817247 2044314268 555775367 -1918011539 -1169085949 -2075664627 -638208166 1333958926 -849782876 -47193041 -903473566 -1707720917 1500155254 -530848096 1265482117
REM
CELL 1.54180   50.00000   50.00000   50.00000   90.00000   90.00000   90.00000
LATT -1
SFAC C  
C      1  0.4422280000000  0.5343310000000  0.4466610000000 1.0
C      1  0.4734500000000  0.4314990000000  0.4326300000000 1.0
C      1  0.5595240000000  0.4594400000000  0.4389270000000 1.0
C      1  0.5421160000000  0.5584730000000  0.4415330000000 1.0
C      1  0.4345320000000  0.4664130000000  0.4506060000000 1.0
C      1  0.4501190000000  0.5657130000000  0.4569670000000 1.0
C      1  0.5612370000000  0.5324490000000  0.4308140000000 1.0
C      1  0.5511640000000  0.4320000000000  0.4492940000000 1.0
C      1  0.4522820000000  0.3818850000000  0.5086410000000 1.0
C      1  0.6111990000000  0.4528610000000  0.5270700000000 1.0
C      1  0.5460220000000  0.6107940000000  0.5197830000000 1.0
C      1  0.3859210000000  0.5493620000000  0.5365670000000 1.0
C      1  0.4527320000000  0.6160910000000  0.5188920000000 1.0
C      1  0.6078760000000  0.5415080000000  0.5231090000000 1.0
C      1  0.5464780000000  0.3904830000000  0.5285240000000 1.0
C      1  0.3821140000000  0.4584570000000  0.5109400000000 1.0
C      1  0.5382780000000  0.5184330000000  0.5898280000000 1.0
C      1  0.4841010000000  0.5382400000000  0.5867140000000 1.0
C      1  0.4588330000000  0.4842410000000  0.5837930000000 1.0
C      1  0.5122020000000  0.4627910000000  0.5898170000000 1.0
C      1  0.5362190000000  0.4855220000000  0.5820650000000 1.0
C      1  0.4806580000000  0.4583680000000  0.5804590000000 1.0
C      1  0.4599110000000  0.5173490000000  0.5915900000000 1.0
C      1  0.5158560000000  0.5417800000000  0.5923110000000 1.0
C      1  0.4660870000000  0.4862620000000  0.5098360000000 1.0
C      1  0.5152880000000  0.4659250000000  0.5065990000000 1.0
C      1  0.5347130000000  0.5134400000000  0.5082400000000 1.0
C      1  0.4848240000000  0.5319790000000  0.5107450000000 1.0
C      1  0.4623070000000  0.5133930000000  0.5161300000000 1.0
C      1  0.5130430000000  0.5325680000000  0.5178780000000 1.0
C      1  0.5353740000000  0.4854000000000  0.5173150000000 1.0
C      1  0.4881490000000  0.4675510000000  0.5167280000000 1.0
C      1  0.5339860000000  0.5117530000000  0.3846740000000 1.0
C      1  0.4891960000000  0.5276210000000  0.3910290000000 1.0
C      1  0.4679480000000  0.4817240000000  0.4012470000000 1.0
C      1  0.5131690000000  0.4676420000000  0.4017720000000 1.0
C      1  0.5353810000000  0.4856580000000  0.3945940000000 1.0
C      1  0.4879650000000  0.4660670000000  0.3899520000000 1.0
C      1  0.4717310000000  0.5101760000000  0.4042290000000 1.0
C      1  0.5165920000000  0.5297140000000  0.3977720000000 1.0
C      1  0.5445710000000  0.5718680000000  0.4729820000000 1.0
C      1  0.4052740000000  0.5714210000000  0.4913980000000 1.0
C      1  0.4368570000000  0.4190250000000  0.4835010000000 1.0
C      1  0.5772830000000  0.4422410000000  0.4880970000000 1.0
C      1  0.5645200000000  0.4160280000000  0.4750590000000 1.0
C      1  0.4226990000000  0.4494100000000  0.4775860000000 1.0
C      1  0.4330280000000  0.5828730000000  0.4808370000000 1.0
C      1  0.5714240000000  0.5526400000000  0.4811000000000 1.0
C      1  0.4569880000000  0.6058520000000  0.4734480000000 1.0
C      1  0.3988560000000  0.4727120000000  0.4701340000000 1.0
C      1  0.5476700000000  0.3882480000000  0.4802590000000 1.0
C      1  0.5920000000000  0.5354010000000  0.4665880000000 1.0
C      1  0.4560220000000  0.4078240000000  0.4676720000000 1.0
C      1  0.3901950000000  0.5540030000000  0.4753080000000 1.0
C      1  0.5425730000000  0.6057580000000  0.4676130000000 1.0
C      1  0.6036060000000  0.4523520000000  0.4780570000000 1.0
C      1  0.5375870000000  0.5170430000000  0.5575640000000 1.0
C      1  0.4867680000000  0.5402070000000  0.5548520000000 1.0
C      1  0.4584950000000  0.4837880000000  0.5502080000000 1.0
C      1  0.5140500000000  0.4648180000000  0.5560310000000 1.0
C      1  0.5411780000000  0.4828300000000  0.5478260000000 1.0
C      1  0.4819540000000  0.4589460000000  0.5464690000000 1.0
C      1  0.4678610000000  0.5163930000000  0.5475050000000 1.0
C      1  0.5179540000000  0.5361820000000  0.5472820000000 1.0
C      1  0.4868970000000  0.4251740000000  0.5024850000000 1.0
C      1  0.5800480000000  0.4936430000000  0.5017620000000 1.0
C      1  0.5141860000000  0.5726240000000  0.5126600000000 1.0
C      1  0.4235170000000  0.5203080000000  0.5224810000000 1.0
C      1  0.4881050000000  0.5817390000000  0.5008050000000 1.0
C      1  0.5728620000000  0.5220930000000  0.5163330000000 1.0
C      1  0.5157870000000  0.4273320000000  0.5166910000000 1.0
C      1  0.4218520000000  0.4908140000000  0.5064040000000 1.0
C      1  0.4509110000000  0.5691900000000  0.5602980000000 1.0
C      1  0.4295880000000  0.4457240000000  0.5630250000000 1.0
C      1  0.5529420000000  0.4260010000000  0.5538170000000 1.0
C      1  0.5685590000000  0.5537750000000  0.5647520000000 1.0
C      1  0.4468860000000  0.4226630000000  0.5665950000000 1.0
C      1  0.4280360000000  0.5520440000000  0.5670150000000 1.0
C      1  0.5501240000000  0.5748950000000  0.5706230000000 1.0
C      1  0.5736820000000  0.4473000000000  0.5616580000000 1.0
C      1  0.4122470000000  0.5155610000000  0.5714160000000 1.0
C      1  0.4912850000000  0.4083070000000  0.5646500000000 1.0
C      1  0.5867800000000  0.4856810000000  0.5908170000000 1.0
C      1  0.5159180000000  0.5948820000000  0.5677590000000 1.0
C      1  0.4068740000000  0.4850490000000  0.5728450000000 1.0
C      1  0.4882890000000  0.5901970000000  0.5831310000000 1.0
C      1  0.5896620000000  0.5102210000000  0.5704770000000 1.0
C      1  0.5218600000000  0.4138390000000  0.5729380000000 1.0
C      1  0.5892640000000  0.4341440000000  0.5182550000000 1.0
C      1  0.5558540000000  0.5827630000000  0.5031880000000 1.0
C      1  0.4024770000000  0.5666710000000  0.5185140000000 1.0
C      1  0.4368020000000  0.4060210000000  0.5088200000000 1.0
C      1  0.5857810000000  0.5620070000000  0.5073660000000 1.0
C      1  0.5660250000000  0.4098470000000  0.5084710000000 1.0
C      1  0.4062980000000  0.4465750000000  0.5072480000000 1.0
C      1  0.4427310000000  0.5922120000000  0.5109330000000 1.0
C      1  0.5119680000000  0.5804590000000  0.4684500000000 1.0
C      1  0.4247470000000  0.5198430000000  0.4660260000000 1.0
C      1  0.4935640000000  0.4125860000000  0.4458560000000 1.0
C      1  0.5638650000000  0.4841600000000  0.4586540000000 1.0
C      1  0.5214880000000  0.4224180000000  0.4625840000000 1.0
C      1  0.4158510000000  0.4937420000000  0.4526050000000 1.0
C      1  0.4837040000000  0.5710890000000  0.4576780000000 1.0
C      1  0.5837670000000  0.5063580000000  0.4532450000000 1.0
C      1  0.5395490000000  0.4835060000000  0.4269820000000 1.0
C      1  0.5214370000000  0.5349490000000  0.4280210000000 1.0
C      1  0.4659390000000  0.5166730000000  0.4342410000000 1.0
C      1  0.4827180000000  0.4589010000000  0.4400430000000 1.0
C      1  0.5395950000000  0.5109030000000  0.4395350000000 1.0
C      1  0.5128550000000  0.4654160000000  0.4336940000000 1.0
C      1  0.4592430000000  0.4829990000000  0.4340980000000 1.0
C      1  0.4928760000000  0.5312600000000  0.4407240000000 1.0
C      1  0.4429320000000  0.4229770000000  0.5331490000000 1.0
C      1  0.5651950000000  0.4552900000000  0.5296490000000 1.0
C      1  0.5507130000000  0.5749370000000  0.5359570000000 1.0
C      1  0.4256790000000  0.5510280000000  0.5331080000000 1.0
C      1  0.4551200000000  0.5667410000000  0.5266000000000 1.0
C      1  0.5713390000000  0.5510450000000  0.5341170000000 1.0
C      1  0.5459610000000  0.4298560000000  0.5239000000000 1.0
C      1  0.4235650000000  0.4483960000000  0.5313350000000 1.0
C      1  0.5589700000000  0.4690370000000  0.4991780000000 1.0
C      1  0.5286700000000  0.5522170000000  0.4952130000000 1.0
C      1  0.4388690000000  0.5249280000000  0.4949010000000 1.0
C      1  0.4705160000000  0.4496850000000  0.4951000000000 1.0
C      1  0.5569240000000  0.5249470000000  0.4876670000000 1.0
C      1  0.5192280000000  0.4416430000000  0.4860370000000 1.0
C      1  0.4449000000000  0.4720420000000  0.4898790000000 1.0
C      1  0.4710940000000  0.5570640000000  0.4981750000000 1.0
C      1  0.4291890000000  0.4690180000000  0.5775980000000 1.0
C      1  0.5381380000000  0.4430470000000  0.5792540000000 1.0
C      1  0.5683600000000  0.5313410000000  0.5813400000000 1.0
C      1  0.4721440000000  0.5688280000000  0.5785570000000 1.0
C      1  0.4347000000000  0.5309590000000  0.5876050000000 1.0
C      1  0.5255060000000  0.5672660000000  0.5851240000000 1.0
C      1  0.5631240000000  0.4657960000000  0.5839240000000 1.0
C      1  0.4725980000000  0.4265380000000  0.5753200000000 1.0
C      1  0.4173350000000  0.5134260000000  0.4071820000000 1.0
C      1  0.5188410000000  0.4027690000000  0.4270320000000 1.0
C      1  0.5905910000000  0.4822130000000  0.4084040000000 1.0
C      1  0.4980640000000  0.5816440000000  0.4124570000000 1.0
C      1  0.4189590000000  0.4877100000000  0.4209290000000 1.0
C      1  0.4751660000000  0.5748510000000  0.4272750000000 1.0
C      1  0.5854390000000  0.5097690000000  0.4222290000000 1.0
C      1  0.5425270000000  0.4149700000000  0.4236370000000 1.0
C      1  0.4632690000000  0.5179110000000  0.4764160000000 1.0
C      1  0.4798040000000  0.4663500000000  0.4710800000000 1.0
C      1  0.5367260000000  0.4805320000000  0.4761740000000 1.0
C      1  0.5145820000000  0.5306060000000  0.4782540000000 1.0
C      1  0.4613040000000  0.4911600000000  0.4670400000000 1.0
C      1  0.4844450000000  0.5403290000000  0.4717450000000 1.0
C      1  0.5353430000000  0.5102560000000  0.4685880000000 1.0
C      1  0.5116800000000  0.4662420000000  0.4663830000000 1.0
C      1  0.4746450000000  0.4281010000000  0.5340720000000 1.0
C      1  0.5750400000000  0.4834840000000  0.5446840000000 1.0
C      1  0.5191010000000  0.5693600000000  0.5455140000000 1.0
C      1  0.4360680000000  0.5167200000000  0.5503270000000 1.0
C      1  0.4855310000000  0.5712970000000  0.5404540000000 1.0
C      1  0.5664600000000  0.5135120000000  0.5458360000000 1.0
C      1  0.5146100000000  0.4353680000000  0.5476290000000 1.0
C      1  0.4301200000000  0.4793940000000  0.5372940000000 1.0
C      1  0.6076170000000  0.5089590000000  0.4775360000000 1.0
C      1  0.4867240000000  0.6096130000000  0.4858460000000 1.0
C      1  0.3942500000000  0.4997750000000  0.4892770000000 1.0
C      1  0.5203680000000  0.3921510000000  0.4748550000000 1.0
C      1  0.6079600000000  0.4790380000000  0.4908890000000 1.0
C      1  0.4878770000000  0.4017140000000  0.4778920000000 1.0
C      1  0.3949470000000  0.5276950000000  0.4742170000000 1.0
C      1  0.5132560000000  0.6124000000000  0.4692890000000 1.0
C      1  0.4472750000000  0.5644220000000  0.4219470000000 1.0
C      1  0.4328510000000  0.4566500000000  0.4197040000000 1.0
C      1  0.5664080000000  0.4304190000000  0.4123560000000 1.0
C      1  0.5813710000000  0.5396110000000  0.4064520000000 1.0
C      1  0.4502380000000  0.4334070000000  0.4174760000000 1.0
C      1  0.4312410000000  0.5371180000000  0.4156200000000 1.0
C      1  0.5232600000000  0.5740330000000  0.4197470000000 1.0
C      1  0.5793170000000  0.4582850000000  0.4141820000000 1.0
C      1  0.6060580000000  0.5138470000000  0.5408890000000 1.0
C      1  0.4960660000000  0.6024740000000  0.5340540000000 1.0
C      1  0.3994590000000  0.4937570000000  0.5407090000000 1.0
C      1  0.5231600000000  0.3967450000000  0.5435320000000 1.0
C      1  0.6049110000000  0.4809910000000  0.5307130000000 1.0
C      1  0.4919280000000  0.3988880000000  0.5320360000000 1.0
C      1  0.3921130000000  0.5261980000000  0.5477540000000 1.0
C      1  0.5252620000000  0.6080710000000  0.5378080000000 1.0
C      1  0.4809410000000  0.6178200000000  0.5160850000000 1.0
C      1  0.3834110000000  0.4854400000000  0.5157290000000 1.0
C      1  0.6173500000000  0.5049800000000  0.5100680000000 1.0
C      1  0.4797900000000  0.3851200000000  0.5064600000000 1.0
END
