TITL C-3289326-3776-497 -0.177705016972568 125000 -81.504360911088 0 0 15 (C1) n - 1
REM
REM in /nfs/bkarasulu/CARBON/AIRSS/Generating-Clusters/AIREBO/with-SteepDescent/Higher-Symm/SD-CG/HFTN-CG
REM
REM
REM
REM
REM
REM ./C.cell (b20cbc046b6831c77cfcea5457e17084)
REM
REM compiler GCC version 9.2.1 20190827 (Red Hat 9.2.1-1)
REM options -cpp -mtune=generic -march=x86-64 -g -O0 -fpre-include=/usr/include/finclude/math-vector-fortran.h
REM seed 1306961148 -1140217304 403887992 -1214991859 -998698944 -749971579 -727509937 -1700630404 -1094248231 692582890 1372877883 1371655071 -204848702 1784044333 70543265 -658760405 331977249 925611308 657293778 132099002 -760997580 -511519046 878704803 451626143 873183986 2111322926 816181618 -1795029658 -1726014592 1572498193 1652688436 574397419 1031499427
REM
CELL 1.54180   50.00000   50.00000   50.00000   90.00000   90.00000   90.00000
LATT -1
SFAC C  
C      1  0.4458080000000  0.5383900000000  0.5311200000000 1.0
C      1  0.4605590000000  0.5277090000000  0.5102070000000 1.0
C      1  0.4279470000000  0.5358100000000  0.4085770000000 1.0
C      1  0.4305810000000  0.5462420000000  0.5509580000000 1.0
C      1  0.4430640000000  0.5330810000000  0.4590800000000 1.0
C      1  0.5282490000000  0.4855600000000  0.5238480000000 1.0
C      1  0.6004980000000  0.4291830000000  0.4762680000000 1.0
C      1  0.5727130000000  0.4593340000000  0.5474610000000 1.0
C      1  0.5056130000000  0.4992000000000  0.5205090000000 1.0
C      1  0.4523150000000  0.5316080000000  0.4840170000000 1.0
C      1  0.4361710000000  0.5355090000000  0.4334630000000 1.0
C      1  0.5495580000000  0.4696240000000  0.5274110000000 1.0
C      1  0.5752880000000  0.4540670000000  0.5156850000000 1.0
C      1  0.5873660000000  0.4403840000000  0.4959950000000 1.0
C      1  0.4842710000000  0.5142990000000  0.5154000000000 1.0
END
