TITL C-3289325-7307-690 -0.00297137176450652 125000 -936.434218180495 0 0 191 (C1) n - 1
REM
REM in /nfs/bkarasulu/CARBON/AIRSS/Generating-Clusters/AIREBO/with-SteepDescent/Higher-Symm/SD-CG/HFTN-CG
REM
REM
REM
REM
REM
REM ./C.cell (b20cbc046b6831c77cfcea5457e17084)
REM
REM compiler GCC version 9.2.1 20190827 (Red Hat 9.2.1-1)
REM options -cpp -mtune=generic -march=x86-64 -g -O0 -fpre-include=/usr/include/finclude/math-vector-fortran.h
REM seed 1444867912 1194789986 -817437950 -449185723 626143498 471846759 1342372111 731354835 -1297918810 528662663 -2095026598 1400371686 1396186890 1445899640 2077090191 1542616052 269158336 -2142594130 1466717089 -1300189202 -1300418736 1303811116 -135276522 -82986663 -618468640 -584658058 1931331687 -1295104883 -306518657 -2000640894 -608393543 917277133 576824502
REM
CELL 1.54180   50.00000   50.00000   50.00000   90.00000   90.00000   90.00000
LATT -1
SFAC C  
C      1  0.4923680000000  0.5519420000000  0.5933050000000 1.0
C      1  0.5814580000000  0.4898500000000  0.5556980000000 1.0
C      1  0.5485920000000  0.5769770000000  0.4844560000000 1.0
C      1  0.5089860000000  0.4488330000000  0.5864350000000 1.0
C      1  0.5098450000000  0.5515780000000  0.4193410000000 1.0
C      1  0.4889650000000  0.4422840000000  0.4139170000000 1.0
C      1  0.4176390000000  0.5075210000000  0.5576890000000 1.0
C      1  0.4153910000000  0.4893710000000  0.4434330000000 1.0
C      1  0.5924880000000  0.5145750000000  0.4476690000000 1.0
C      1  0.4433030000000  0.4138700000000  0.4850660000000 1.0
C      1  0.4471470000000  0.5849000000000  0.5195330000000 1.0
C      1  0.5472260000000  0.4111500000000  0.5120490000000 1.0
C      1  0.5466440000000  0.4338930000000  0.5382150000000 1.0
C      1  0.5351250000000  0.5453170000000  0.4301370000000 1.0
C      1  0.4339610000000  0.5375860000000  0.5633600000000 1.0
C      1  0.4498570000000  0.5615350000000  0.5451400000000 1.0
C      1  0.4461850000000  0.4296290000000  0.4541990000000 1.0
C      1  0.5703210000000  0.5662420000000  0.4608760000000 1.0
C      1  0.4635430000000  0.4522890000000  0.4342850000000 1.0
C      1  0.4642990000000  0.5492660000000  0.5737700000000 1.0
C      1  0.5360900000000  0.4508410000000  0.5657490000000 1.0
C      1  0.5627750000000  0.4624960000000  0.5471670000000 1.0
C      1  0.5655500000000  0.5388750000000  0.4440130000000 1.0
C      1  0.4341300000000  0.4610590000000  0.4489990000000 1.0
C      1  0.5121550000000  0.5741460000000  0.5847120000000 1.0
C      1  0.5760870000000  0.5215860000000  0.5667440000000 1.0
C      1  0.5733230000000  0.5688710000000  0.5063790000000 1.0
C      1  0.4877820000000  0.4248460000000  0.5794980000000 1.0
C      1  0.4888870000000  0.5777840000000  0.4264930000000 1.0
C      1  0.5180640000000  0.4197050000000  0.4125360000000 1.0
C      1  0.4208410000000  0.4793750000000  0.5765860000000 1.0
C      1  0.4192740000000  0.5216360000000  0.4251940000000 1.0
C      1  0.5770000000000  0.4930950000000  0.4263430000000 1.0
C      1  0.4261940000000  0.4348190000000  0.5033920000000 1.0
C      1  0.4260380000000  0.5814180000000  0.4958080000000 1.0
C      1  0.5707470000000  0.4156110000000  0.4876130000000 1.0
C      1  0.4864140000000  0.5001150000000  0.5359030000000 1.0
C      1  0.5341100000000  0.4880700000000  0.4921390000000 1.0
C      1  0.4887680000000  0.5367900000000  0.4839590000000 1.0
C      1  0.5128510000000  0.5036570000000  0.5235130000000 1.0
C      1  0.5205620000000  0.5020500000000  0.4568260000000 1.0
C      1  0.4911230000000  0.5017400000000  0.4653050000000 1.0
C      1  0.4563760000000  0.5167010000000  0.4960520000000 1.0
C      1  0.4669360000000  0.4876810000000  0.5037260000000 1.0
C      1  0.5409110000000  0.5195520000000  0.5000780000000 1.0
C      1  0.5064960000000  0.4570050000000  0.4867200000000 1.0
C      1  0.5052490000000  0.5408790000000  0.5126530000000 1.0
C      1  0.4880600000000  0.4548880000000  0.5121750000000 1.0
C      1  0.5379490000000  0.4588370000000  0.4226590000000 1.0
C      1  0.4233310000000  0.5287300000000  0.4641450000000 1.0
C      1  0.4577080000000  0.4138590000000  0.5367460000000 1.0
C      1  0.4707110000000  0.5319450000000  0.4250080000000 1.0
C      1  0.4727380000000  0.4644090000000  0.5800300000000 1.0
C      1  0.5349560000000  0.5317070000000  0.5725790000000 1.0
C      1  0.5818340000000  0.4630220000000  0.4648360000000 1.0
C      1  0.5855420000000  0.5421980000000  0.5338000000000 1.0
C      1  0.4226610000000  0.4736770000000  0.5371150000000 1.0
C      1  0.5366130000000  0.5817380000000  0.5364110000000 1.0
C      1  0.5380590000000  0.4187410000000  0.4644570000000 1.0
C      1  0.4648510000000  0.5804030000000  0.4643230000000 1.0
C      1  0.5052430000000  0.6044380000000  0.5264600000000 1.0
C      1  0.5330280000000  0.5167970000000  0.6095370000000 1.0
C      1  0.6101950000000  0.5250960000000  0.5073790000000 1.0
C      1  0.4930000000000  0.3973870000000  0.5283620000000 1.0
C      1  0.4842690000000  0.6165500000000  0.4742390000000 1.0
C      1  0.5058860000000  0.3949450000000  0.4656490000000 1.0
C      1  0.4706030000000  0.4982330000000  0.6012730000000 1.0
C      1  0.4732960000000  0.5016830000000  0.3990720000000 1.0
C      1  0.5242560000000  0.4839780000000  0.3826170000000 1.0
C      1  0.3833190000000  0.4858210000000  0.5034100000000 1.0
C      1  0.3884380000000  0.5190500000000  0.4983410000000 1.0
C      1  0.6031450000000  0.4700960000000  0.4978860000000 1.0
C      1  0.5607120000000  0.4711480000000  0.4061120000000 1.0
C      1  0.3952680000000  0.5457370000000  0.4552230000000 1.0
C      1  0.4696680000000  0.4036570000000  0.5600190000000 1.0
C      1  0.4445450000000  0.5280270000000  0.4079730000000 1.0
C      1  0.4450590000000  0.4681520000000  0.5974930000000 1.0
C      1  0.5594540000000  0.5284250000000  0.5959330000000 1.0
C      1  0.5925980000000  0.4386850000000  0.4754810000000 1.0
C      1  0.6023970000000  0.5650870000000  0.5224190000000 1.0
C      1  0.4056030000000  0.4553940000000  0.5209680000000 1.0
C      1  0.5290690000000  0.5928410000000  0.5618750000000 1.0
C      1  0.5323940000000  0.4064690000000  0.4376970000000 1.0
C      1  0.4636390000000  0.5984200000000  0.4367640000000 1.0
C      1  0.4592070000000  0.5616010000000  0.4226770000000 1.0
C      1  0.4302980000000  0.4506600000000  0.5609480000000 1.0
C      1  0.5674930000000  0.4168480000000  0.4537660000000 1.0
C      1  0.5647740000000  0.4389260000000  0.4293780000000 1.0
C      1  0.5441590000000  0.5627610000000  0.5829770000000 1.0
C      1  0.4557070000000  0.4361490000000  0.5785770000000 1.0
C      1  0.5653060000000  0.5527880000000  0.5585200000000 1.0
C      1  0.5881960000000  0.4618250000000  0.4336180000000 1.0
C      1  0.4315250000000  0.5501950000000  0.4390670000000 1.0
C      1  0.4314050000000  0.5744370000000  0.4629430000000 1.0
C      1  0.4291650000000  0.4270830000000  0.5363850000000 1.0
C      1  0.5674670000000  0.5777540000000  0.5365920000000 1.0
C      1  0.5502380000000  0.4609970000000  0.5049880000000 1.0
C      1  0.4976150000000  0.5730120000000  0.4590100000000 1.0
C      1  0.4570000000000  0.5072160000000  0.5514120000000 1.0
C      1  0.4342480000000  0.5404510000000  0.4911670000000 1.0
C      1  0.4487850000000  0.4595890000000  0.4976030000000 1.0
C      1  0.5653070000000  0.5418950000000  0.4921800000000 1.0
C      1  0.4974670000000  0.4509740000000  0.4553350000000 1.0
C      1  0.4968270000000  0.5572160000000  0.5412660000000 1.0
C      1  0.5092590000000  0.4571480000000  0.5368580000000 1.0
C      1  0.5477070000000  0.5105880000000  0.5515680000000 1.0
C      1  0.5514590000000  0.4992940000000  0.4470760000000 1.0
C      1  0.4638230000000  0.4918700000000  0.4476030000000 1.0
C      1  0.4821870000000  0.5246050000000  0.5662660000000 1.0
C      1  0.5595750000000  0.4856120000000  0.5225250000000 1.0
C      1  0.5185090000000  0.5623910000000  0.4782510000000 1.0
C      1  0.5269110000000  0.4819640000000  0.5735830000000 1.0
C      1  0.5354860000000  0.5142130000000  0.4214350000000 1.0
C      1  0.4879710000000  0.4759590000000  0.4348880000000 1.0
C      1  0.4337060000000  0.5232760000000  0.5325180000000 1.0
C      1  0.4270020000000  0.4753550000000  0.4789910000000 1.0
C      1  0.5678410000000  0.5180770000000  0.4708320000000 1.0
C      1  0.4751040000000  0.4213850000000  0.4701310000000 1.0
C      1  0.4725260000000  0.5622660000000  0.5197960000000 1.0
C      1  0.5216740000000  0.4333930000000  0.5151120000000 1.0
C      1  0.4280060000000  0.4924380000000  0.4150130000000 1.0
C      1  0.3977920000000  0.4392320000000  0.4852250000000 1.0
C      1  0.4873880000000  0.4091580000000  0.4135930000000 1.0
C      1  0.5684050000000  0.5101470000000  0.3982100000000 1.0
C      1  0.5717950000000  0.4911780000000  0.5882760000000 1.0
C      1  0.4230720000000  0.5058170000000  0.5978550000000 1.0
C      1  0.5959500000000  0.5647990000000  0.4716300000000 1.0
C      1  0.5887660000000  0.4280780000000  0.5136180000000 1.0
C      1  0.4045820000000  0.5663110000000  0.5088270000000 1.0
C      1  0.5072200000000  0.6068810000000  0.4256320000000 1.0
C      1  0.5135360000000  0.4042580000000  0.5711870000000 1.0
C      1  0.4908870000000  0.5957370000000  0.5720110000000 1.0
C      1  0.4074110000000  0.4062370000000  0.5431340000000 1.0
C      1  0.5489950000000  0.4245040000000  0.4061820000000 1.0
C      1  0.3997370000000  0.5619830000000  0.4330530000000 1.0
C      1  0.5841220000000  0.6015380000000  0.5454690000000 1.0
C      1  0.5838740000000  0.3903060000000  0.4673010000000 1.0
C      1  0.4144460000000  0.6014520000000  0.4678060000000 1.0
C      1  0.4711590000000  0.5767670000000  0.3955560000000 1.0
C      1  0.4643440000000  0.4153010000000  0.6040090000000 1.0
C      1  0.5595400000000  0.5726620000000  0.6073340000000 1.0
C      1  0.6168290000000  0.4699510000000  0.4470730000000 1.0
C      1  0.6053510000000  0.5282170000000  0.5721940000000 1.0
C      1  0.4002810000000  0.4506030000000  0.5769440000000 1.0
C      1  0.5250440000000  0.4039880000000  0.4884670000000 1.0
C      1  0.4962930000000  0.5249090000000  0.4075910000000 1.0
C      1  0.4033710000000  0.4975290000000  0.5284750000000 1.0
C      1  0.4677440000000  0.5955220000000  0.4946410000000 1.0
C      1  0.4685380000000  0.4071960000000  0.5068680000000 1.0
C      1  0.5257370000000  0.5896650000000  0.5058460000000 1.0
C      1  0.5113130000000  0.4629820000000  0.4052670000000 1.0
C      1  0.5064530000000  0.5279840000000  0.6002100000000 1.0
C      1  0.4961330000000  0.4759700000000  0.5982410000000 1.0
C      1  0.5904940000000  0.5093080000000  0.5292770000000 1.0
C      1  0.5969490000000  0.4911570000000  0.4719550000000 1.0
C      1  0.4011690000000  0.5043100000000  0.4704680000000 1.0
C      1  0.4605110000000  0.5489610000000  0.4731180000000 1.0
C      1  0.4813450000000  0.4702260000000  0.5512520000000 1.0
C      1  0.5527730000000  0.4736870000000  0.4676040000000 1.0
C      1  0.5343460000000  0.4427070000000  0.4849580000000 1.0
C      1  0.5321940000000  0.5509680000000  0.5283010000000 1.0
C      1  0.4613350000000  0.4429110000000  0.5236460000000 1.0
C      1  0.5116570000000  0.5277700000000  0.5495800000000 1.0
C      1  0.5257530000000  0.4689120000000  0.4494750000000 1.0
C      1  0.4763220000000  0.5290710000000  0.4536680000000 1.0
C      1  0.4444420000000  0.5022580000000  0.4676730000000 1.0
C      1  0.4532410000000  0.4785390000000  0.5334900000000 1.0
C      1  0.5546310000000  0.5291720000000  0.5282510000000 1.0
C      1  0.4930630000000  0.5888690000000  0.5450040000000 1.0
C      1  0.5448740000000  0.4914790000000  0.5958620000000 1.0
C      1  0.5988210000000  0.5420890000000  0.4900900000000 1.0
C      1  0.5069660000000  0.4240280000000  0.5443160000000 1.0
C      1  0.4988530000000  0.6047160000000  0.4543080000000 1.0
C      1  0.4950640000000  0.4183910000000  0.4451520000000 1.0
C      1  0.4498600000000  0.5056420000000  0.5846580000000 1.0
C      1  0.4557570000000  0.4906560000000  0.4165300000000 1.0
C      1  0.5407420000000  0.5035980000000  0.3912610000000 1.0
C      1  0.3948930000000  0.4674060000000  0.4844560000000 1.0
C      1  0.4113730000000  0.5380010000000  0.5132070000000 1.0
C      1  0.5834340000000  0.4558070000000  0.5103070000000 1.0
C      1  0.5035450000000  0.5030920000000  0.5799700000000 1.0
C      1  0.5782520000000  0.5010500000000  0.4986070000000 1.0
C      1  0.4951080000000  0.5767090000000  0.4987240000000 1.0
C      1  0.5079650000000  0.4945400000000  0.4175020000000 1.0
C      1  0.4194180000000  0.5017440000000  0.4990470000000 1.0
C      1  0.4970970000000  0.4194400000000  0.4960030000000 1.0
C      1  0.4747290000000  0.5276720000000  0.5197710000000 1.0
C      1  0.5199230000000  0.5287070000000  0.4776440000000 1.0
C      1  0.5303110000000  0.4838450000000  0.5397990000000 1.0
C      1  0.4691290000000  0.4546580000000  0.4737790000000 1.0
C      1  0.5002690000000  0.4890190000000  0.4955010000000 1.0
END
