TITL C-3289321-8710-728 0.00102662733882885 125000 -355.822419711615 0 0 63 (C1) n - 1
REM
REM in /nfs/bkarasulu/CARBON/AIRSS/Generating-Clusters/AIREBO/with-SteepDescent/Higher-Symm/SD-CG/HFTN-CG
REM
REM
REM
REM
REM
REM ./C.cell (b20cbc046b6831c77cfcea5457e17084)
REM
REM compiler GCC version 9.2.1 20190827 (Red Hat 9.2.1-1)
REM options -cpp -mtune=generic -march=x86-64 -g -O0 -fpre-include=/usr/include/finclude/math-vector-fortran.h
REM seed 1347934767 333646755 1116440443 -1661194219 -1126101886 2138266150 -202092299 369352639 -480376119 1848843640 484841496 1456739775 -1791178857 654071550 -1555693913 1093538367 -325808812 -57931894 1384581215 1839706026 473453322 554435720 2108151494 -922121821 1107558534 1588550942 466154678 552418818 -1962530880 -69258484 1554023540 -824638528 -246179305
REM
CELL 1.54180   50.00000   50.00000   50.00000   90.00000   90.00000   90.00000
LATT -1
SFAC C  
C      1  0.5270160000000  0.4593800000000  0.4805700000000 1.0
C      1  0.4780620000000  0.4596960000000  0.5220530000000 1.0
C      1  0.5248790000000  0.5358330000000  0.4778620000000 1.0
C      1  0.4753830000000  0.5397220000000  0.5241120000000 1.0
C      1  0.5012260000000  0.5225490000000  0.5251860000000 1.0
C      1  0.5094450000000  0.5083740000000  0.4743650000000 1.0
C      1  0.5016930000000  0.4831420000000  0.5204480000000 1.0
C      1  0.4991990000000  0.4493450000000  0.4772470000000 1.0
C      1  0.4582560000000  0.4246210000000  0.5046910000000 1.0
C      1  0.5148740000000  0.4196040000000  0.4988890000000 1.0
C      1  0.4624190000000  0.5801650000000  0.5014440000000 1.0
C      1  0.5124280000000  0.5729830000000  0.5037260000000 1.0
C      1  0.4740570000000  0.4352730000000  0.4601300000000 1.0
C      1  0.5180910000000  0.4312270000000  0.5301130000000 1.0
C      1  0.4870750000000  0.5649760000000  0.4626890000000 1.0
C      1  0.5102860000000  0.5730920000000  0.5430460000000 1.0
C      1  0.5199500000000  0.4707160000000  0.5584700000000 1.0
C      1  0.4791580000000  0.4851840000000  0.4415830000000 1.0
C      1  0.5154750000000  0.5257670000000  0.5624200000000 1.0
C      1  0.4842820000000  0.5187430000000  0.4396040000000 1.0
C      1  0.4667540000000  0.5157090000000  0.4661580000000 1.0
C      1  0.5377190000000  0.5174870000000  0.5397480000000 1.0
C      1  0.4614100000000  0.4847580000000  0.4692660000000 1.0
C      1  0.5390850000000  0.4852140000000  0.5366920000000 1.0
C      1  0.4618130000000  0.5654900000000  0.4770060000000 1.0
C      1  0.5359040000000  0.5686730000000  0.5246360000000 1.0
C      1  0.4514730000000  0.4380360000000  0.4814650000000 1.0
C      1  0.5396950000000  0.4424860000000  0.5063940000000 1.0
C      1  0.5346120000000  0.4700560000000  0.4523260000000 1.0
C      1  0.4684330000000  0.4683860000000  0.5497460000000 1.0
C      1  0.5346060000000  0.5271970000000  0.4496370000000 1.0
C      1  0.4648220000000  0.5332530000000  0.5522120000000 1.0
C      1  0.5278440000000  0.5253770000000  0.5081610000000 1.0
C      1  0.4675250000000  0.5205960000000  0.5002880000000 1.0
C      1  0.5297660000000  0.4809710000000  0.5042590000000 1.0
C      1  0.4793100000000  0.4685150000000  0.4911120000000 1.0
C      1  0.4723210000000  0.4545460000000  0.4351870000000 1.0
C      1  0.5229430000000  0.4394670000000  0.5561790000000 1.0
C      1  0.4857350000000  0.5515790000000  0.4375100000000 1.0
C      1  0.5086690000000  0.5579640000000  0.5659340000000 1.0
C      1  0.5602740000000  0.4629890000000  0.5210640000000 1.0
C      1  0.4408040000000  0.4635480000000  0.4816840000000 1.0
C      1  0.5533250000000  0.5464050000000  0.5296950000000 1.0
C      1  0.4468160000000  0.5417170000000  0.4737890000000 1.0
C      1  0.5605050000000  0.4873160000000  0.4537600000000 1.0
C      1  0.4467890000000  0.4858170000000  0.5529400000000 1.0
C      1  0.5588850000000  0.5137960000000  0.4470960000000 1.0
C      1  0.4455940000000  0.5131630000000  0.5547910000000 1.0
C      1  0.4848270000000  0.5379130000000  0.5708450000000 1.0
C      1  0.5147860000000  0.5252870000000  0.4314200000000 1.0
C      1  0.4882830000000  0.4679300000000  0.5685610000000 1.0
C      1  0.5357380000000  0.4505130000000  0.4321140000000 1.0
C      1  0.5616030000000  0.5213080000000  0.5083280000000 1.0
C      1  0.4353720000000  0.5157100000000  0.4903710000000 1.0
C      1  0.5616050000000  0.4929060000000  0.5049580000000 1.0
C      1  0.4262070000000  0.4893200000000  0.4877000000000 1.0
C      1  0.4876010000000  0.4294980000000  0.5171300000000 1.0
C      1  0.4992870000000  0.4157960000000  0.4709760000000 1.0
C      1  0.4846030000000  0.5696910000000  0.5210030000000 1.0
C      1  0.5107240000000  0.5620610000000  0.4785020000000 1.0
C      1  0.5035790000000  0.4988080000000  0.5485130000000 1.0
C      1  0.5102160000000  0.4901300000000  0.4499390000000 1.0
C      1  0.4898030000000  0.4997590000000  0.4944920000000 1.0
END
