TITL C-3289326-3776-581 0.000650341244826292 125000 -405.718530155326 0 0 81 (C1) n - 1
REM
REM in /nfs/bkarasulu/CARBON/AIRSS/Generating-Clusters/AIREBO/with-SteepDescent/Higher-Symm/SD-CG/HFTN-CG
REM
REM
REM
REM
REM
REM ./C.cell (b20cbc046b6831c77cfcea5457e17084)
REM
REM compiler GCC version 9.2.1 20190827 (Red Hat 9.2.1-1)
REM options -cpp -mtune=generic -march=x86-64 -g -O0 -fpre-include=/usr/include/finclude/math-vector-fortran.h
REM seed 1287506019 -1790735451 419964265 130873843 -1126043252 -1830446802 1570859753 910989158 -1782670545 861479120 1261688217 -602196727 1709298600 372883619 326095259 1224967169 -1203944253 1652141665 1544984047 -1247210960 -356924702 714727463 2055713769 -701523355 1653679475 -932593694 317055882 661874200 -645067034 909183754 1365554355 -1414891576 290285759
REM
CELL 1.54180   50.00000   50.00000   50.00000   90.00000   90.00000   90.00000
LATT -1
SFAC C  
C      1  0.4496450000000  0.4878640000000  0.4750800000000 1.0
C      1  0.4504710000000  0.4843910000000  0.5234030000000 1.0
C      1  0.4501460000000  0.5275650000000  0.5017810000000 1.0
C      1  0.5561890000000  0.4857270000000  0.4765060000000 1.0
C      1  0.5423880000000  0.4849250000000  0.5252150000000 1.0
C      1  0.5570810000000  0.5263190000000  0.4994430000000 1.0
C      1  0.4429980000000  0.5147050000000  0.4770030000000 1.0
C      1  0.4436510000000  0.5123640000000  0.5242890000000 1.0
C      1  0.4432990000000  0.4726820000000  0.4988000000000 1.0
C      1  0.5497160000000  0.5125760000000  0.4751080000000 1.0
C      1  0.5500530000000  0.5156550000000  0.5247670000000 1.0
C      1  0.5480620000000  0.4717440000000  0.4997630000000 1.0
C      1  0.5200540000000  0.5158700000000  0.4707430000000 1.0
C      1  0.5168520000000  0.4687010000000  0.4990680000000 1.0
C      1  0.5186730000000  0.5182420000000  0.5286980000000 1.0
C      1  0.4867190000000  0.5169330000000  0.4723170000000 1.0
C      1  0.4848700000000  0.4684840000000  0.4980150000000 1.0
C      1  0.4884280000000  0.5135220000000  0.5275900000000 1.0
C      1  0.5117370000000  0.4837830000000  0.4719030000000 1.0
C      1  0.5130610000000  0.5315710000000  0.4988390000000 1.0
C      1  0.5120520000000  0.4789630000000  0.5312030000000 1.0
C      1  0.4790310000000  0.4847420000000  0.4705780000000 1.0
C      1  0.4799910000000  0.5319150000000  0.5004780000000 1.0
C      1  0.4807420000000  0.4825750000000  0.5273300000000 1.0
C      1  0.4443770000000  0.5668140000000  0.5040100000000 1.0
C      1  0.4435710000000  0.4695710000000  0.4403490000000 1.0
C      1  0.4441920000000  0.4632510000000  0.5564670000000 1.0
C      1  0.5561850000000  0.5657870000000  0.5031750000000 1.0
C      1  0.5561610000000  0.4716860000000  0.4412300000000 1.0
C      1  0.5569330000000  0.4629390000000  0.5550010000000 1.0
C      1  0.4430760000000  0.4345900000000  0.5039950000000 1.0
C      1  0.4433550000000  0.5281830000000  0.4408320000000 1.0
C      1  0.4447030000000  0.5365200000000  0.5540420000000 1.0
C      1  0.5557870000000  0.4332130000000  0.5041480000000 1.0
C      1  0.5558090000000  0.5306330000000  0.4402100000000 1.0
C      1  0.5571780000000  0.5365990000000  0.5577810000000 1.0
C      1  0.4734300000000  0.5402860000000  0.5389360000000 1.0
C      1  0.4724160000000  0.5137310000000  0.4439190000000 1.0
C      1  0.4713810000000  0.4457920000000  0.5149350000000 1.0
C      1  0.5273990000000  0.5440710000000  0.5472300000000 1.0
C      1  0.5243280000000  0.5195090000000  0.4372070000000 1.0
C      1  0.5245430000000  0.4398310000000  0.5153070000000 1.0
C      1  0.4748500000000  0.4550950000000  0.5465600000000 1.0
C      1  0.4750720000000  0.4804910000000  0.4370760000000 1.0
C      1  0.4761940000000  0.5628500000000  0.5141010000000 1.0
C      1  0.5270600000000  0.4544080000000  0.5463380000000 1.0
C      1  0.5271370000000  0.4864300000000  0.4446380000000 1.0
C      1  0.5281000000000  0.5546390000000  0.5153670000000 1.0
C      1  0.5295450000000  0.5496730000000  0.4520360000000 1.0
C      1  0.5293040000000  0.4351140000000  0.4819560000000 1.0
C      1  0.5305340000000  0.5162360000000  0.5665280000000 1.0
C      1  0.4705450000000  0.5468240000000  0.4515550000000 1.0
C      1  0.4706460000000  0.4345320000000  0.4828490000000 1.0
C      1  0.4716930000000  0.5170510000000  0.5637100000000 1.0
C      1  0.5288250000000  0.4534260000000  0.4527120000000 1.0
C      1  0.5282890000000  0.5647850000000  0.4829000000000 1.0
C      1  0.5298740000000  0.4817220000000  0.5664250000000 1.0
C      1  0.4698960000000  0.4505670000000  0.4524000000000 1.0
C      1  0.4698440000000  0.5649860000000  0.4807550000000 1.0
C      1  0.4711180000000  0.4827970000000  0.5659390000000 1.0
C      1  0.4219650000000  0.5441400000000  0.4924250000000 1.0
C      1  0.4214320000000  0.4712260000000  0.4659440000000 1.0
C      1  0.4222340000000  0.4845820000000  0.5423480000000 1.0
C      1  0.5825660000000  0.5455370000000  0.4961020000000 1.0
C      1  0.5826210000000  0.4734470000000  0.4625150000000 1.0
C      1  0.5736030000000  0.4867110000000  0.5384030000000 1.0
C      1  0.4167060000000  0.4543920000000  0.4957080000000 1.0
C      1  0.4171930000000  0.5271720000000  0.4625290000000 1.0
C      1  0.4179080000000  0.5188940000000  0.5427480000000 1.0
C      1  0.5775530000000  0.4565280000000  0.4923610000000 1.0
C      1  0.5778410000000  0.5293320000000  0.4659190000000 1.0
C      1  0.5793830000000  0.5177370000000  0.5418800000000 1.0
C      1  0.5747370000000  0.5020450000000  0.4458370000000 1.0
C      1  0.4247430000000  0.4984820000000  0.4458530000000 1.0
C      1  0.5726430000000  0.5482860000000  0.5285330000000 1.0
C      1  0.5725920000000  0.4546180000000  0.5259600000000 1.0
C      1  0.4256460000000  0.5475290000000  0.5260850000000 1.0
C      1  0.4255940000000  0.4536670000000  0.5285470000000 1.0
C      1  0.4996440000000  0.4453780000000  0.4684910000000 1.0
C      1  0.5009010000000  0.4994640000000  0.5635330000000 1.0
C      1  0.4995850000000  0.5543830000000  0.4677470000000 1.0
END
