TITL C-3289322-3858-511 6.61583219491894e-05 125000 -1128.90421595709 0 0 200 (C1) n - 1
REM
REM in /nfs/bkarasulu/CARBON/AIRSS/Generating-Clusters/AIREBO/with-SteepDescent/Higher-Symm/SD-CG/HFTN-CG
REM
REM
REM
REM
REM
REM ./C.cell (b20cbc046b6831c77cfcea5457e17084)
REM
REM compiler GCC version 9.2.1 20190827 (Red Hat 9.2.1-1)
REM options -cpp -mtune=generic -march=x86-64 -g -O0 -fpre-include=/usr/include/finclude/math-vector-fortran.h
REM seed -465689366 1092770752 -690749722 1423608547 -1325863994 -506692714 -1065181047 948343002 -1377720741 -586817546 -1676476543 -302213357 2060885955 -1824927301 2135178394 1388871500 -2100799416 78904652 59364439 -1385904107 288810805 -1500080217 707377009 -1049776023 134701360 -1311673151 -554409756 715279940 463945358 -1383048562 1362840593 -164325426 -1458628511
REM
CELL 1.54180   50.00000   50.00000   50.00000   90.00000   90.00000   90.00000
LATT -1
SFAC C  
C      1  0.5818670000000  0.5314420000000  0.5576140000000 1.0
C      1  0.5179350000000  0.5930860000000  0.4394810000000 1.0
C      1  0.4268830000000  0.5580590000000  0.5659130000000 1.0
C      1  0.4167850000000  0.4726240000000  0.4379120000000 1.0
C      1  0.4870980000000  0.4101760000000  0.5636360000000 1.0
C      1  0.5694420000000  0.4417670000000  0.4386590000000 1.0
C      1  0.5115830000000  0.5306340000000  0.3770920000000 1.0
C      1  0.4845770000000  0.5406750000000  0.6047150000000 1.0
C      1  0.4466880000000  0.4941490000000  0.3970920000000 1.0
C      1  0.4760900000000  0.4685810000000  0.6087210000000 1.0
C      1  0.5227940000000  0.4610350000000  0.3903690000000 1.0
C      1  0.5340730000000  0.4970530000000  0.6064190000000 1.0
C      1  0.4942780000000  0.5154150000000  0.3623680000000 1.0
C      1  0.4827400000000  0.5271580000000  0.6290520000000 1.0
C      1  0.4581730000000  0.4848570000000  0.3739550000000 1.0
C      1  0.4857620000000  0.4794230000000  0.6327170000000 1.0
C      1  0.5031890000000  0.4703700000000  0.3737480000000 1.0
C      1  0.5251550000000  0.5056390000000  0.6318440000000 1.0
C      1  0.5404560000000  0.5351750000000  0.3785110000000 1.0
C      1  0.5034470000000  0.5607240000000  0.6024330000000 1.0
C      1  0.4379960000000  0.5223430000000  0.3995160000000 1.0
C      1  0.4487320000000  0.4702390000000  0.6048100000000 1.0
C      1  0.5428360000000  0.4445050000000  0.3812590000000 1.0
C      1  0.5370730000000  0.4690390000000  0.6034000000000 1.0
C      1  0.4378650000000  0.5302340000000  0.5823870000000 1.0
C      1  0.4469400000000  0.4714240000000  0.4314230000000 1.0
C      1  0.5041770000000  0.4323610000000  0.5832710000000 1.0
C      1  0.5554960000000  0.4669890000000  0.4206190000000 1.0
C      1  0.5549890000000  0.5365840000000  0.5784580000000 1.0
C      1  0.5134800000000  0.5653070000000  0.4203470000000 1.0
C      1  0.4583720000000  0.4528660000000  0.4560080000000 1.0
C      1  0.4923920000000  0.4411490000000  0.5532260000000 1.0
C      1  0.5507260000000  0.4745710000000  0.4508190000000 1.0
C      1  0.5537700000000  0.5159060000000  0.5521420000000 1.0
C      1  0.5181290000000  0.5546940000000  0.4498730000000 1.0
C      1  0.4457730000000  0.5351050000000  0.5504220000000 1.0
C      1  0.6127320000000  0.5633320000000  0.4731570000000 1.0
C      1  0.4944010000000  0.6162090000000  0.5069300000000 1.0
C      1  0.3975130000000  0.5544930000000  0.4892950000000 1.0
C      1  0.3886750000000  0.4396340000000  0.5168250000000 1.0
C      1  0.4998700000000  0.3700440000000  0.4837600000000 1.0
C      1  0.6007340000000  0.4521940000000  0.5097570000000 1.0
C      1  0.5052800000000  0.4195870000000  0.4275030000000 1.0
C      1  0.5832550000000  0.4470480000000  0.5800770000000 1.0
C      1  0.5682580000000  0.5426560000000  0.4254290000000 1.0
C      1  0.5133320000000  0.5993400000000  0.5775820000000 1.0
C      1  0.4355810000000  0.5393030000000  0.4254900000000 1.0
C      1  0.4110540000000  0.4599750000000  0.5771420000000 1.0
C      1  0.5107470000000  0.5850390000000  0.4883910000000 1.0
C      1  0.4314780000000  0.5563230000000  0.5197550000000 1.0
C      1  0.4164210000000  0.4703070000000  0.4881310000000 1.0
C      1  0.4961550000000  0.4060520000000  0.5130290000000 1.0
C      1  0.5614190000000  0.4539340000000  0.4900880000000 1.0
C      1  0.5816090000000  0.5373860000000  0.5026960000000 1.0
C      1  0.5017640000000  0.5083100000000  0.4715230000000 1.0
C      1  0.4825960000000  0.5055840000000  0.5233300000000 1.0
C      1  0.4755420000000  0.4939150000000  0.4798250000000 1.0
C      1  0.4926330000000  0.4732030000000  0.5259960000000 1.0
C      1  0.5237100000000  0.4879770000000  0.4765070000000 1.0
C      1  0.5143340000000  0.5063160000000  0.5213590000000 1.0
C      1  0.5872220000000  0.4835140000000  0.5101640000000 1.0
C      1  0.5680840000000  0.5667910000000  0.4953240000000 1.0
C      1  0.4802320000000  0.5772600000000  0.5128340000000 1.0
C      1  0.4070160000000  0.5218650000000  0.4913300000000 1.0
C      1  0.4313270000000  0.4363880000000  0.5030100000000 1.0
C      1  0.5116220000000  0.4186450000000  0.4854900000000 1.0
C      1  0.5231650000000  0.5757120000000  0.5898060000000 1.0
C      1  0.4669130000000  0.5332250000000  0.4137090000000 1.0
C      1  0.4260570000000  0.4789820000000  0.5918930000000 1.0
C      1  0.4955270000000  0.4446200000000  0.4218470000000 1.0
C      1  0.5524960000000  0.4407700000000  0.5678510000000 1.0
C      1  0.5500180000000  0.5243790000000  0.4075970000000 1.0
C      1  0.4699790000000  0.5783790000000  0.4279370000000 1.0
C      1  0.3993090000000  0.5065230000000  0.5646670000000 1.0
C      1  0.4415430000000  0.4296370000000  0.4282000000000 1.0
C      1  0.5477160000000  0.3899140000000  0.5524790000000 1.0
C      1  0.5855870000000  0.4930820000000  0.4236220000000 1.0
C      1  0.5665880000000  0.5815490000000  0.5641260000000 1.0
C      1  0.5082100000000  0.5582570000000  0.5091930000000 1.0
C      1  0.4702460000000  0.5433390000000  0.4878850000000 1.0
C      1  0.4381650000000  0.4844610000000  0.5102900000000 1.0
C      1  0.4863420000000  0.4413200000000  0.4874830000000 1.0
C      1  0.5453920000000  0.4561020000000  0.5209610000000 1.0
C      1  0.5592850000000  0.5147100000000  0.4902850000000 1.0
C      1  0.5390960000000  0.5579920000000  0.4941800000000 1.0
C      1  0.4628460000000  0.5518930000000  0.5186070000000 1.0
C      1  0.4329910000000  0.5070410000000  0.4853580000000 1.0
C      1  0.4639350000000  0.4354370000000  0.5125930000000 1.0
C      1  0.5357410000000  0.4383250000000  0.4742600000000 1.0
C      1  0.5588410000000  0.4926410000000  0.5145570000000 1.0
C      1  0.4752370000000  0.3916950000000  0.4928260000000 1.0
C      1  0.5813760000000  0.4286460000000  0.5009950000000 1.0
C      1  0.6116020000000  0.5351940000000  0.4902190000000 1.0
C      1  0.5269270000000  0.6061450000000  0.5045660000000 1.0
C      1  0.4214380000000  0.5725760000000  0.4951230000000 1.0
C      1  0.3912850000000  0.4677490000000  0.5073790000000 1.0
C      1  0.4088690000000  0.5468210000000  0.5407780000000 1.0
C      1  0.4135490000000  0.4552530000000  0.4597310000000 1.0
C      1  0.5008530000000  0.3937590000000  0.5421470000000 1.0
C      1  0.5812560000000  0.4500600000000  0.4627210000000 1.0
C      1  0.5842220000000  0.5493140000000  0.5331190000000 1.0
C      1  0.4995300000000  0.5999550000000  0.4601260000000 1.0
C      1  0.5018440000000  0.4818810000000  0.5654990000000 1.0
C      1  0.5208360000000  0.4974510000000  0.4379680000000 1.0
C      1  0.5077400000000  0.5152210000000  0.5619260000000 1.0
C      1  0.4988910000000  0.5203690000000  0.4335870000000 1.0
C      1  0.4761870000000  0.5025520000000  0.5624680000000 1.0
C      1  0.4876710000000  0.4886840000000  0.4387360000000 1.0
C      1  0.4474260000000  0.4571580000000  0.4834260000000 1.0
C      1  0.5125670000000  0.4303060000000  0.5309970000000 1.0
C      1  0.5663700000000  0.4845810000000  0.4761820000000 1.0
C      1  0.5401030000000  0.5424500000000  0.5379700000000 1.0
C      1  0.4942050000000  0.5610830000000  0.4715290000000 1.0
C      1  0.4360070000000  0.5228100000000  0.5232830000000 1.0
C      1  0.4375230000000  0.5870400000000  0.5608120000000 1.0
C      1  0.3963050000000  0.4917410000000  0.4367490000000 1.0
C      1  0.4567910000000  0.4041230000000  0.5586770000000 1.0
C      1  0.5584840000000  0.4166980000000  0.4392830000000 1.0
C      1  0.6070660000000  0.5143170000000  0.5590670000000 1.0
C      1  0.5446650000000  0.6006710000000  0.4460760000000 1.0
C      1  0.5511150000000  0.4871110000000  0.5449920000000 1.0
C      1  0.5413160000000  0.5430170000000  0.4648200000000 1.0
C      1  0.4768440000000  0.5419880000000  0.5479740000000 1.0
C      1  0.4464970000000  0.5163590000000  0.4563610000000 1.0
C      1  0.4678200000000  0.4553050000000  0.5399450000000 1.0
C      1  0.5202680000000  0.4610180000000  0.4574500000000 1.0
C      1  0.4267320000000  0.5003780000000  0.5455250000000 1.0
C      1  0.4621920000000  0.4218290000000  0.4510770000000 1.0
C      1  0.5415820000000  0.4224610000000  0.5469750000000 1.0
C      1  0.5845470000000  0.4957880000000  0.4499900000000 1.0
C      1  0.5432430000000  0.5729160000000  0.5435650000000 1.0
C      1  0.4681030000000  0.5735880000000  0.4544200000000 1.0
C      1  0.4204020000000  0.5056030000000  0.5853430000000 1.0
C      1  0.4679720000000  0.4482920000000  0.4177160000000 1.0
C      1  0.5323900000000  0.4464060000000  0.5895030000000 1.0
C      1  0.5623240000000  0.4960870000000  0.4065090000000 1.0
C      1  0.5484930000000  0.5655480000000  0.5824790000000 1.0
C      1  0.4825540000000  0.5589320000000  0.4127790000000 1.0
C      1  0.5353180000000  0.4042370000000  0.5051910000000 1.0
C      1  0.6033890000000  0.4968050000000  0.4847390000000 1.0
C      1  0.5704390000000  0.5904060000000  0.5165270000000 1.0
C      1  0.4576230000000  0.5882610000000  0.4899100000000 1.0
C      1  0.3911360000000  0.5070680000000  0.5146210000000 1.0
C      1  0.4330340000000  0.4167930000000  0.4779670000000 1.0
C      1  0.5209900000000  0.3826920000000  0.4695140000000 1.0
C      1  0.5983780000000  0.4699220000000  0.5380690000000 1.0
C      1  0.5824000000000  0.5721360000000  0.4665780000000 1.0
C      1  0.4814190000000  0.6022180000000  0.5343180000000 1.0
C      1  0.3980920000000  0.5362750000000  0.4618560000000 1.0
C      1  0.4166510000000  0.4301870000000  0.5323920000000 1.0
C      1  0.5905680000000  0.5226020000000  0.4666540000000 1.0
C      1  0.5279750000000  0.5946310000000  0.5342590000000 1.0
C      1  0.4405980000000  0.5682680000000  0.4682900000000 1.0
C      1  0.4029600000000  0.4815060000000  0.5336850000000 1.0
C      1  0.4775520000000  0.4032820000000  0.4635260000000 1.0
C      1  0.5544010000000  0.4267250000000  0.5184370000000 1.0
C      1  0.5723550000000  0.4656500000000  0.5554340000000 1.0
C      1  0.5710760000000  0.5448840000000  0.4542790000000 1.0
C      1  0.5068610000000  0.6017990000000  0.5506990000000 1.0
C      1  0.4278580000000  0.5433800000000  0.4543240000000 1.0
C      1  0.4084660000000  0.4557260000000  0.5507470000000 1.0
C      1  0.5063490000000  0.4059570000000  0.4543840000000 1.0
C      1  0.5214930000000  0.4664940000000  0.4239030000000 1.0
C      1  0.5313210000000  0.5153960000000  0.5847380000000 1.0
C      1  0.5169990000000  0.5338160000000  0.4105260000000 1.0
C      1  0.4713990000000  0.5302330000000  0.5802130000000 1.0
C      1  0.4589210000000  0.5030180000000  0.4275620000000 1.0
C      1  0.4933350000000  0.4621930000000  0.5871910000000 1.0
C      1  0.4614450000000  0.5155820000000  0.5019040000000 1.0
C      1  0.4682350000000  0.4736700000000  0.5023150000000 1.0
C      1  0.5089800000000  0.4529250000000  0.5058620000000 1.0
C      1  0.5283710000000  0.4808700000000  0.5050370000000 1.0
C      1  0.5345810000000  0.5284660000000  0.5074670000000 1.0
C      1  0.5087340000000  0.5334540000000  0.4859370000000 1.0
C      1  0.6172790000000  0.5097800000000  0.5121600000000 1.0
C      1  0.5564750000000  0.6050050000000  0.4943450000000 1.0
C      1  0.4368850000000  0.5956880000000  0.5142410000000 1.0
C      1  0.3848900000000  0.4914420000000  0.4849980000000 1.0
C      1  0.4466630000000  0.3996180000000  0.5002540000000 1.0
C      1  0.5658010000000  0.4014950000000  0.4903290000000 1.0
C      1  0.4575020000000  0.4879760000000  0.5380640000000 1.0
C      1  0.4873230000000  0.4661120000000  0.4641900000000 1.0
C      1  0.5221030000000  0.4694700000000  0.5425510000000 1.0
C      1  0.5404760000000  0.5115010000000  0.4621170000000 1.0
C      1  0.5073370000000  0.5366060000000  0.5354650000000 1.0
C      1  0.4768970000000  0.5275110000000  0.4585190000000 1.0
C      1  0.4500060000000  0.5981770000000  0.5391940000000 1.0
C      1  0.3892440000000  0.5059090000000  0.4592870000000 1.0
C      1  0.4456750000000  0.4125390000000  0.5308510000000 1.0
C      1  0.5444640000000  0.4062400000000  0.4663850000000 1.0
C      1  0.6122640000000  0.4986350000000  0.5374150000000 1.0
C      1  0.5617800000000  0.5961870000000  0.4682270000000 1.0
C      1  0.4232430000000  0.4292310000000  0.4549000000000 1.0
C      1  0.5276190000000  0.3885170000000  0.5312100000000 1.0
C      1  0.6022120000000  0.4644200000000  0.4788140000000 1.0
C      1  0.5825220000000  0.5769750000000  0.5380940000000 1.0
C      1  0.4798390000000  0.6092410000000  0.4825760000000 1.0
C      1  0.3941520000000  0.5231490000000  0.5411860000000 1.0
C      1  0.4974530000000  0.5045470000000  0.6367360000000 1.0
C      1  0.4846180000000  0.4893600000000  0.3661040000000 1.0
END
