TITL C-3289326-3776-375 0.00055019604814273 125000 -880.28302475234 0 0 155 (C1) n - 1
REM
REM in /nfs/bkarasulu/CARBON/AIRSS/Generating-Clusters/AIREBO/with-SteepDescent/Higher-Symm/SD-CG/HFTN-CG
REM
REM
REM
REM
REM
REM ./C.cell (b20cbc046b6831c77cfcea5457e17084)
REM
REM compiler GCC version 9.2.1 20190827 (Red Hat 9.2.1-1)
REM options -cpp -mtune=generic -march=x86-64 -g -O0 -fpre-include=/usr/include/finclude/math-vector-fortran.h
REM seed -1210245917 -164657320 -355232477 30121867 35907086 1608812522 -1934105932 979172268 -662901820 1098278083 -1395147178 -1380466784 -1733000104 -1019996473 -999209613 2023411688 -75013764 1965477329 675598192 -813984792 -637102783 -1490025009 2036844128 -282982496 -1753919130 -579048634 -1838352249 -1227428195 -1168483535 1728183106 1747882921 -1703783728 -848111073
REM
CELL 1.54180   50.00000   50.00000   50.00000   90.00000   90.00000   90.00000
LATT -1
SFAC C  
C      1  0.4222750000000  0.5179820000000  0.5194780000000 1.0
C      1  0.4478100000000  0.5284490000000  0.5556570000000 1.0
C      1  0.5020410000000  0.5254990000000  0.5748570000000 1.0
C      1  0.5702740000000  0.5377420000000  0.5688490000000 1.0
C      1  0.5753310000000  0.5242470000000  0.5077100000000 1.0
C      1  0.5723690000000  0.5212650000000  0.4530410000000 1.0
C      1  0.5192990000000  0.5190150000000  0.4310130000000 1.0
C      1  0.4711410000000  0.5266610000000  0.4343930000000 1.0
C      1  0.4269180000000  0.5252750000000  0.4611470000000 1.0
C      1  0.4864660000000  0.4403210000000  0.5946070000000 1.0
C      1  0.5349590000000  0.4427320000000  0.5842760000000 1.0
C      1  0.5749760000000  0.4282050000000  0.5577240000000 1.0
C      1  0.5770340000000  0.4358190000000  0.4661710000000 1.0
C      1  0.5594320000000  0.4308510000000  0.4196160000000 1.0
C      1  0.4788100000000  0.4377640000000  0.4222760000000 1.0
C      1  0.4285400000000  0.4400460000000  0.4401190000000 1.0
C      1  0.4206630000000  0.4300850000000  0.5005940000000 1.0
C      1  0.4499750000000  0.4325040000000  0.5518090000000 1.0
C      1  0.4068880000000  0.5046810000000  0.4673880000000 1.0
C      1  0.4093690000000  0.5009090000000  0.5384790000000 1.0
C      1  0.4493470000000  0.5079270000000  0.5827370000000 1.0
C      1  0.5175030000000  0.5109130000000  0.5964690000000 1.0
C      1  0.5810280000000  0.5110920000000  0.5663880000000 1.0
C      1  0.5979800000000  0.5067170000000  0.4939780000000 1.0
C      1  0.5747670000000  0.5076470000000  0.4281830000000 1.0
C      1  0.5041020000000  0.5072750000000  0.4077710000000 1.0
C      1  0.4476710000000  0.5103330000000  0.4247610000000 1.0
C      1  0.4067440000000  0.4710350000000  0.5319390000000 1.0
C      1  0.4424630000000  0.4756710000000  0.5910140000000 1.0
C      1  0.5097040000000  0.4828320000000  0.6045960000000 1.0
C      1  0.5714020000000  0.4787100000000  0.5704040000000 1.0
C      1  0.6013290000000  0.4795870000000  0.5039990000000 1.0
C      1  0.5827310000000  0.4783440000000  0.4309530000000 1.0
C      1  0.5114000000000  0.4793150000000  0.3990750000000 1.0
C      1  0.4530090000000  0.4826690000000  0.4129410000000 1.0
C      1  0.4031780000000  0.4726630000000  0.4565520000000 1.0
C      1  0.4882250000000  0.5066870000000  0.4563440000000 1.0
C      1  0.4665920000000  0.4951970000000  0.4802030000000 1.0
C      1  0.4515760000000  0.5086050000000  0.5079910000000 1.0
C      1  0.4553270000000  0.5021460000000  0.5383720000000 1.0
C      1  0.4837440000000  0.5073950000000  0.5525030000000 1.0
C      1  0.5376150000000  0.4999670000000  0.5312970000000 1.0
C      1  0.5551820000000  0.4999300000000  0.5042960000000 1.0
C      1  0.5490750000000  0.5043240000000  0.4711260000000 1.0
C      1  0.5200380000000  0.4947160000000  0.4548080000000 1.0
C      1  0.4776110000000  0.4739170000000  0.5730010000000 1.0
C      1  0.5411340000000  0.4892540000000  0.5610930000000 1.0
C      1  0.5769460000000  0.4623110000000  0.5207870000000 1.0
C      1  0.5754660000000  0.4828840000000  0.4698500000000 1.0
C      1  0.5348080000000  0.4740340000000  0.4323110000000 1.0
C      1  0.4878960000000  0.4756440000000  0.4311330000000 1.0
C      1  0.4360460000000  0.4810390000000  0.4541150000000 1.0
C      1  0.4243170000000  0.4682430000000  0.4900930000000 1.0
C      1  0.4410070000000  0.4778610000000  0.5511410000000 1.0
C      1  0.5565480000000  0.5669540000000  0.5307810000000 1.0
C      1  0.6116130000000  0.5552200000000  0.5079140000000 1.0
C      1  0.5901080000000  0.5502280000000  0.4319300000000 1.0
C      1  0.5231500000000  0.5676960000000  0.4311360000000 1.0
C      1  0.4501580000000  0.5633850000000  0.4060020000000 1.0
C      1  0.3926370000000  0.5556490000000  0.4559910000000 1.0
C      1  0.4029900000000  0.5514140000000  0.5296740000000 1.0
C      1  0.4323710000000  0.5507360000000  0.5971440000000 1.0
C      1  0.5075920000000  0.5685040000000  0.5761250000000 1.0
C      1  0.5329310000000  0.5643510000000  0.5883530000000 1.0
C      1  0.5752390000000  0.5534600000000  0.5455880000000 1.0
C      1  0.6078480000000  0.5593130000000  0.4834680000000 1.0
C      1  0.5703190000000  0.5489480000000  0.4173230000000 1.0
C      1  0.4997710000000  0.5686090000000  0.4161400000000 1.0
C      1  0.4300760000000  0.5663460000000  0.4204240000000 1.0
C      1  0.3902780000000  0.5543680000000  0.4806220000000 1.0
C      1  0.4039990000000  0.5556620000000  0.5539310000000 1.0
C      1  0.4561250000000  0.5550100000000  0.6033950000000 1.0
C      1  0.4153030000000  0.4241550000000  0.4239440000000 1.0
C      1  0.4091490000000  0.4066290000000  0.5040340000000 1.0
C      1  0.4386720000000  0.4052050000000  0.5598070000000 1.0
C      1  0.4843860000000  0.4173790000000  0.6098150000000 1.0
C      1  0.5423130000000  0.4187040000000  0.5961230000000 1.0
C      1  0.5898710000000  0.4077870000000  0.5541190000000 1.0
C      1  0.5634610000000  0.4107470000000  0.4821360000000 1.0
C      1  0.5623690000000  0.4162270000000  0.4427610000000 1.0
C      1  0.4900910000000  0.4257380000000  0.3928600000000 1.0
C      1  0.6023220000000  0.4903140000000  0.4513130000000 1.0
C      1  0.5396200000000  0.4891910000000  0.4064760000000 1.0
C      1  0.4627170000000  0.5002490000000  0.3893380000000 1.0
C      1  0.4135220000000  0.4907200000000  0.4307540000000 1.0
C      1  0.4031780000000  0.4810720000000  0.5043800000000 1.0
C      1  0.4205520000000  0.4825580000000  0.5719510000000 1.0
C      1  0.4831620000000  0.4907710000000  0.5949960000000 1.0
C      1  0.5542740000000  0.4960410000000  0.5917920000000 1.0
C      1  0.6004140000000  0.4825680000000  0.5355850000000 1.0
C      1  0.4850010000000  0.5395120000000  0.4626580000000 1.0
C      1  0.4552460000000  0.5263090000000  0.4724750000000 1.0
C      1  0.4752930000000  0.5287820000000  0.4998390000000 1.0
C      1  0.4700910000000  0.5386370000000  0.5319760000000 1.0
C      1  0.5011950000000  0.5325260000000  0.5422960000000 1.0
C      1  0.5219270000000  0.5245790000000  0.5222560000000 1.0
C      1  0.5444770000000  0.5383890000000  0.5055410000000 1.0
C      1  0.5359480000000  0.5329290000000  0.4780120000000 1.0
C      1  0.5165790000000  0.5388870000000  0.4584700000000 1.0
C      1  0.4594320000000  0.4491810000000  0.5780660000000 1.0
C      1  0.5116330000000  0.4550520000000  0.5950560000000 1.0
C      1  0.5542930000000  0.4515800000000  0.5612550000000 1.0
C      1  0.5843190000000  0.4560800000000  0.4881830000000 1.0
C      1  0.5612730000000  0.4560590000000  0.4438300000000 1.0
C      1  0.4993190000000  0.4549160000000  0.3989300000000 1.0
C      1  0.4539810000000  0.4549070000000  0.4304670000000 1.0
C      1  0.4174920000000  0.4449740000000  0.4701520000000 1.0
C      1  0.4300420000000  0.4473640000000  0.5280810000000 1.0
C      1  0.6077760000000  0.5121490000000  0.4689260000000 1.0
C      1  0.5534800000000  0.5132370000000  0.4113040000000 1.0
C      1  0.4824380000000  0.5196970000000  0.3967230000000 1.0
C      1  0.4197140000000  0.5178930000000  0.4227380000000 1.0
C      1  0.3955760000000  0.5054940000000  0.4927970000000 1.0
C      1  0.4081840000000  0.5089190000000  0.5673720000000 1.0
C      1  0.4714970000000  0.5184100000000  0.5992290000000 1.0
C      1  0.5438750000000  0.5201730000000  0.6026700000000 1.0
C      1  0.5984190000000  0.5094360000000  0.5443570000000 1.0
C      1  0.4678280000000  0.4695310000000  0.4578910000000 1.0
C      1  0.4516090000000  0.4703400000000  0.4973100000000 1.0
C      1  0.4604790000000  0.4625600000000  0.5278370000000 1.0
C      1  0.4876130000000  0.4760630000000  0.5435640000000 1.0
C      1  0.5177570000000  0.4744310000000  0.5411240000000 1.0
C      1  0.5444030000000  0.4570120000000  0.5291600000000 1.0
C      1  0.5358590000000  0.4741100000000  0.5010260000000 1.0
C      1  0.5480790000000  0.4645430000000  0.4740190000000 1.0
C      1  0.5001830000000  0.4706420000000  0.4683610000000 1.0
C      1  0.5385730000000  0.4194780000000  0.4963100000000 1.0
C      1  0.5347020000000  0.4364990000000  0.4718010000000 1.0
C      1  0.5093400000000  0.4419330000000  0.4628260000000 1.0
C      1  0.4880090000000  0.4274840000000  0.4491720000000 1.0
C      1  0.4707440000000  0.4388930000000  0.4723770000000 1.0
C      1  0.4655670000000  0.4303960000000  0.4971110000000 1.0
C      1  0.4745110000000  0.4315920000000  0.5282300000000 1.0
C      1  0.5046600000000  0.4251980000000  0.5303800000000 1.0
C      1  0.5296130000000  0.4294020000000  0.5207610000000 1.0
C      1  0.4209770000000  0.5372430000000  0.5718230000000 1.0
C      1  0.4842700000000  0.5484030000000  0.5894360000000 1.0
C      1  0.5519740000000  0.5436160000000  0.5892490000000 1.0
C      1  0.5954020000000  0.5376530000000  0.5279480000000 1.0
C      1  0.5992350000000  0.5406400000000  0.4607450000000 1.0
C      1  0.5391990000000  0.5427520000000  0.4204160000000 1.0
C      1  0.4765480000000  0.5483980000000  0.4107950000000 1.0
C      1  0.4154700000000  0.5455030000000  0.4372780000000 1.0
C      1  0.3980240000000  0.5353030000000  0.5031010000000 1.0
C      1  0.5325500000000  0.5873590000000  0.5379560000000 1.0
C      1  0.5440240000000  0.5840490000000  0.5064180000000 1.0
C      1  0.5407440000000  0.5882200000000  0.4788930000000 1.0
C      1  0.5232040000000  0.5823950000000  0.4560160000000 1.0
C      1  0.4987860000000  0.5970170000000  0.4618110000000 1.0
C      1  0.4835860000000  0.5976270000000  0.4845700000000 1.0
C      1  0.4815260000000  0.6005610000000  0.5114140000000 1.0
C      1  0.4856260000000  0.5930140000000  0.5372990000000 1.0
C      1  0.5079800000000  0.5841350000000  0.5522030000000 1.0
C      1  0.5090930000000  0.4876270000000  0.4931950000000 1.0
C      1  0.5014070000000  0.5108240000000  0.5038020000000 1.0
END
