TITL C-3289330-4660-728 0.00023033780517587 125000 -349.98532143968 0 0 69 (C1) n - 1
REM
REM in /nfs/bkarasulu/CARBON/AIRSS/Generating-Clusters/AIREBO/with-SteepDescent/Higher-Symm/SD-CG/HFTN-CG
REM
REM
REM
REM
REM
REM ./C.cell (b20cbc046b6831c77cfcea5457e17084)
REM
REM compiler GCC version 9.2.1 20190827 (Red Hat 9.2.1-1)
REM options -cpp -mtune=generic -march=x86-64 -g -O0 -fpre-include=/usr/include/finclude/math-vector-fortran.h
REM seed -1014299069 388948617 353484223 -1631176450 1684321658 1160476278 1420996729 -1027639220 -1814711122 -1636569068 1683402337 2071175547 -1689187887 -922577826 722806859 -1676157652 -671044487 -201207444 -2101793365 -1725186755 -2020775997 2048364026 -990833768 -1607757886 596043692 -1067472285 2135866500 -1552957256 1318229884 -1818113571 2049420827 1339168266 -1649680319
REM
CELL 1.54180   50.00000   50.00000   50.00000   90.00000   90.00000   90.00000
LATT -1
SFAC C  
C      1  0.4509140000000  0.4730950000000  0.5046070000000 1.0
C      1  0.5277180000000  0.4719590000000  0.5408640000000 1.0
C      1  0.5204200000000  0.4748620000000  0.4560870000000 1.0
C      1  0.4541270000000  0.5236660000000  0.5038530000000 1.0
C      1  0.5278880000000  0.5277430000000  0.5397730000000 1.0
C      1  0.5193010000000  0.5261930000000  0.4551390000000 1.0
C      1  0.5464340000000  0.4731630000000  0.5047250000000 1.0
C      1  0.4729370000000  0.4701890000000  0.5393090000000 1.0
C      1  0.4786860000000  0.4723920000000  0.4569000000000 1.0
C      1  0.5466090000000  0.5249410000000  0.5041640000000 1.0
C      1  0.4746000000000  0.5261830000000  0.5380990000000 1.0
C      1  0.4794020000000  0.5280920000000  0.4548720000000 1.0
C      1  0.5159290000000  0.5163860000000  0.5670380000000 1.0
C      1  0.5500810000000  0.5163780000000  0.4532180000000 1.0
C      1  0.4368090000000  0.5132570000000  0.4784730000000 1.0
C      1  0.5140190000000  0.4854250000000  0.5669450000000 1.0
C      1  0.5504060000000  0.4853220000000  0.4543820000000 1.0
C      1  0.4336830000000  0.4828010000000  0.4794100000000 1.0
C      1  0.4860130000000  0.5136440000000  0.5655490000000 1.0
C      1  0.4500100000000  0.5166540000000  0.4519690000000 1.0
C      1  0.5635050000000  0.5132350000000  0.4794700000000 1.0
C      1  0.4842540000000  0.4824460000000  0.5670180000000 1.0
C      1  0.4492080000000  0.4849050000000  0.4535550000000 1.0
C      1  0.5652340000000  0.4824030000000  0.4804180000000 1.0
C      1  0.5585280000000  0.5154550000000  0.5479160000000 1.0
C      1  0.5199450000000  0.5182370000000  0.4220800000000 1.0
C      1  0.4248660000000  0.5195120000000  0.5206820000000 1.0
C      1  0.5570590000000  0.4848540000000  0.5522390000000 1.0
C      1  0.5158440000000  0.4866800000000  0.4245270000000 1.0
C      1  0.4266910000000  0.4874460000000  0.5236860000000 1.0
C      1  0.4434410000000  0.5154110000000  0.5464300000000 1.0
C      1  0.4882400000000  0.5152950000000  0.4246350000000 1.0
C      1  0.5752910000000  0.5193780000000  0.5215710000000 1.0
C      1  0.4436460000000  0.4840710000000  0.5495940000000 1.0
C      1  0.4848030000000  0.4838850000000  0.4254840000000 1.0
C      1  0.5710960000000  0.4861850000000  0.5241920000000 1.0
C      1  0.5462610000000  0.5569360000000  0.5123880000000 1.0
C      1  0.4823430000000  0.5613840000000  0.4521190000000 1.0
C      1  0.4700990000000  0.5591010000000  0.5383450000000 1.0
C      1  0.5454540000000  0.4431370000000  0.5129040000000 1.0
C      1  0.4841380000000  0.4406560000000  0.4534370000000 1.0
C      1  0.4669350000000  0.4383550000000  0.5381790000000 1.0
C      1  0.4520650000000  0.5549910000000  0.5126640000000 1.0
C      1  0.5135590000000  0.5575320000000  0.4491080000000 1.0
C      1  0.5337790000000  0.5598520000000  0.5411060000000 1.0
C      1  0.4496030000000  0.4428740000000  0.5121760000000 1.0
C      1  0.5153570000000  0.4440970000000  0.4513650000000 1.0
C      1  0.5340370000000  0.4398490000000  0.5420480000000 1.0
C      1  0.5124040000000  0.5761770000000  0.4736270000000 1.0
C      1  0.4707530000000  0.5770050000000  0.5028100000000 1.0
C      1  0.5165200000000  0.5799340000000  0.5252160000000 1.0
C      1  0.5133840000000  0.4242110000000  0.4747570000000 1.0
C      1  0.4702340000000  0.4223000000000  0.5019830000000 1.0
C      1  0.5156580000000  0.4203970000000  0.5261020000000 1.0
C      1  0.4815340000000  0.5799120000000  0.4772780000000 1.0
C      1  0.5289770000000  0.5775570000000  0.4961510000000 1.0
C      1  0.4887450000000  0.5817290000000  0.5278710000000 1.0
C      1  0.4822810000000  0.4204560000000  0.4769640000000 1.0
C      1  0.5292480000000  0.4217040000000  0.4975030000000 1.0
C      1  0.4878770000000  0.4178870000000  0.5276540000000 1.0
C      1  0.5159200000000  0.4749840000000  0.4898050000000 1.0
C      1  0.4819760000000  0.4731660000000  0.4907460000000 1.0
C      1  0.5009200000000  0.4703520000000  0.5199740000000 1.0
C      1  0.5176340000000  0.5331970000000  0.4883830000000 1.0
C      1  0.4837380000000  0.5304290000000  0.4885220000000 1.0
C      1  0.5019150000000  0.5267200000000  0.5178360000000 1.0
C      1  0.4980500000000  0.5001500000000  0.4602780000000 1.0
C      1  0.5329200000000  0.4994620000000  0.5215440000000 1.0
C      1  0.4680440000000  0.4979530000000  0.5202830000000 1.0
END
