TITL C-3289322-3858-512 1.69376640176097e-05 125000 -491.296350958794 0 0 88 (C1) n - 1
REM
REM in /nfs/bkarasulu/CARBON/AIRSS/Generating-Clusters/AIREBO/with-SteepDescent/Higher-Symm/SD-CG/HFTN-CG
REM
REM
REM
REM
REM
REM ./C.cell (b20cbc046b6831c77cfcea5457e17084)
REM
REM compiler GCC version 9.2.1 20190827 (Red Hat 9.2.1-1)
REM options -cpp -mtune=generic -march=x86-64 -g -O0 -fpre-include=/usr/include/finclude/math-vector-fortran.h
REM seed -735221575 1748828321 1860942287 1671218514 -116732716 1953305541 -1654045268 -229974646 -1296085076 -404327332 1172648279 2091048968 -689360052 -1377646015 471515488 220825366 1017636612 -522772925 1078015674 953483923 1792887257 -1808163926 -1426839358 1192931738 -1732835020 1236560679 87096074 -977364972 327852434 489043957 1454848508 -1207384321 933835325
REM
CELL 1.54180   50.00000   50.00000   50.00000   90.00000   90.00000   90.00000
LATT -1
SFAC C  
C      1  0.4783960000000  0.5045000000000  0.4470060000000 1.0
C      1  0.4866980000000  0.4729790000000  0.4567110000000 1.0
C      1  0.5184700000000  0.4739250000000  0.4677750000000 1.0
C      1  0.5307860000000  0.5222130000000  0.4562320000000 1.0
C      1  0.4937650000000  0.5231110000000  0.4710290000000 1.0
C      1  0.5225210000000  0.4983480000000  0.5416470000000 1.0
C      1  0.5155820000000  0.4678380000000  0.5352740000000 1.0
C      1  0.4820490000000  0.4648620000000  0.5304860000000 1.0
C      1  0.4657790000000  0.5084620000000  0.5397870000000 1.0
C      1  0.4958580000000  0.5166760000000  0.5476900000000 1.0
C      1  0.5577450000000  0.4785230000000  0.4636460000000 1.0
C      1  0.5492310000000  0.5564260000000  0.4472790000000 1.0
C      1  0.4686930000000  0.5577250000000  0.4566660000000 1.0
C      1  0.4383600000000  0.4846810000000  0.4546190000000 1.0
C      1  0.4948740000000  0.4332530000000  0.4592070000000 1.0
C      1  0.4350970000000  0.4723390000000  0.5391130000000 1.0
C      1  0.4589410000000  0.5556660000000  0.5514660000000 1.0
C      1  0.5287350000000  0.5580310000000  0.5315290000000 1.0
C      1  0.5728460000000  0.4884990000000  0.5142760000000 1.0
C      1  0.5003240000000  0.4318370000000  0.5425170000000 1.0
C      1  0.5358150000000  0.4290570000000  0.4852550000000 1.0
C      1  0.5770380000000  0.5177410000000  0.4804170000000 1.0
C      1  0.5041760000000  0.5708940000000  0.4839740000000 1.0
C      1  0.4364600000000  0.5345530000000  0.4812270000000 1.0
C      1  0.4453630000000  0.4431640000000  0.4734820000000 1.0
C      1  0.4618110000000  0.4331940000000  0.5172420000000 1.0
C      1  0.4207770000000  0.5185880000000  0.5251680000000 1.0
C      1  0.4877150000000  0.5851290000000  0.5251990000000 1.0
C      1  0.5731130000000  0.5355350000000  0.5309020000000 1.0
C      1  0.5516400000000  0.4286170000000  0.5325040000000 1.0
C      1  0.4150900000000  0.4932840000000  0.5365210000000 1.0
C      1  0.4803800000000  0.4415260000000  0.5626270000000 1.0
C      1  0.5346550000000  0.4502010000000  0.5788070000000 1.0
C      1  0.5579620000000  0.5564590000000  0.5422580000000 1.0
C      1  0.4858660000000  0.5532640000000  0.5602220000000 1.0
C      1  0.5556090000000  0.4988930000000  0.4364920000000 1.0
C      1  0.5158090000000  0.4430290000000  0.4427500000000 1.0
C      1  0.4535620000000  0.4703520000000  0.4348160000000 1.0
C      1  0.4567870000000  0.5376160000000  0.4413470000000 1.0
C      1  0.5226870000000  0.5569640000000  0.4384220000000 1.0
C      1  0.4347970000000  0.4687620000000  0.4772000000000 1.0
C      1  0.4939350000000  0.4723230000000  0.4878020000000 1.0
C      1  0.5343890000000  0.4985100000000  0.4758580000000 1.0
C      1  0.5219660000000  0.5352240000000  0.4857000000000 1.0
C      1  0.5353460000000  0.5120220000000  0.5063150000000 1.0
C      1  0.5428390000000  0.4820940000000  0.5205460000000 1.0
C      1  0.4927690000000  0.4414930000000  0.5099750000000 1.0
C      1  0.4666990000000  0.4887250000000  0.5172360000000 1.0
C      1  0.4542140000000  0.5564940000000  0.5192780000000 1.0
C      1  0.5213900000000  0.5289770000000  0.5314740000000 1.0
C      1  0.5297640000000  0.4420830000000  0.5491630000000 1.0
C      1  0.5844070000000  0.5068570000000  0.5315940000000 1.0
C      1  0.5023350000000  0.5688190000000  0.5438590000000 1.0
C      1  0.4457020000000  0.5299710000000  0.5357630000000 1.0
C      1  0.4551500000000  0.4495070000000  0.5446310000000 1.0
C      1  0.4669610000000  0.4457010000000  0.4518920000000 1.0
C      1  0.4479860000000  0.5132530000000  0.4594720000000 1.0
C      1  0.4996690000000  0.5545010000000  0.4590330000000 1.0
C      1  0.5640340000000  0.5266300000000  0.4543270000000 1.0
C      1  0.5402000000000  0.4493990000000  0.4624140000000 1.0
C      1  0.4725520000000  0.5251030000000  0.4199970000000 1.0
C      1  0.4704950000000  0.4806870000000  0.4159410000000 1.0
C      1  0.5094780000000  0.4611220000000  0.4236500000000 1.0
C      1  0.5251340000000  0.5097010000000  0.4254650000000 1.0
C      1  0.5196660000000  0.5399170000000  0.4169800000000 1.0
C      1  0.5675000000000  0.5757150000000  0.5591700000000 1.0
C      1  0.5159740000000  0.4658120000000  0.5901800000000 1.0
C      1  0.4862480000000  0.4591880000000  0.5832870000000 1.0
C      1  0.4674560000000  0.5026140000000  0.5715070000000 1.0
C      1  0.4910920000000  0.5257450000000  0.5795020000000 1.0
C      1  0.5512530000000  0.4226910000000  0.5060770000000 1.0
C      1  0.4466380000000  0.4266300000000  0.4959580000000 1.0
C      1  0.4166710000000  0.5282500000000  0.4989350000000 1.0
C      1  0.5639330000000  0.5267270000000  0.5037380000000 1.0
C      1  0.4817440000000  0.5775280000000  0.4986120000000 1.0
C      1  0.4103100000000  0.4651360000000  0.5085780000000 1.0
C      1  0.6066290000000  0.4735910000000  0.4775340000000 1.0
C      1  0.5528340000000  0.5825730000000  0.4930150000000 1.0
C      1  0.4339580000000  0.5857970000000  0.4816720000000 1.0
C      1  0.4994350000000  0.3948960000000  0.4921050000000 1.0
C      1  0.5049270000000  0.4221650000000  0.4879300000000 1.0
C      1  0.4531240000000  0.5639740000000  0.4862150000000 1.0
C      1  0.4380440000000  0.4785200000000  0.5063590000000 1.0
C      1  0.5822980000000  0.4858170000000  0.4827560000000 1.0
C      1  0.5296480000000  0.5642500000000  0.5003660000000 1.0
C      1  0.5011650000000  0.4924270000000  0.4248040000000 1.0
C      1  0.4958820000000  0.4921590000000  0.5848520000000 1.0
C      1  0.4842130000000  0.5011620000000  0.4938690000000 1.0
END
