TITL C-3289322-3858-501 0.00344286291012307 125000 -798.582293696075 0 0 150 (C1) n - 1
REM
REM in /nfs/bkarasulu/CARBON/AIRSS/Generating-Clusters/AIREBO/with-SteepDescent/Higher-Symm/SD-CG/HFTN-CG
REM
REM
REM
REM
REM
REM ./C.cell (b20cbc046b6831c77cfcea5457e17084)
REM
REM compiler GCC version 9.2.1 20190827 (Red Hat 9.2.1-1)
REM options -cpp -mtune=generic -march=x86-64 -g -O0 -fpre-include=/usr/include/finclude/math-vector-fortran.h
REM seed 9279369 513931042 25563440 523522269 -865445689 -555818979 1052791335 -1058531366 1078972298 1378962880 1467594149 1089362081 557123373 1961579782 -1334662260 -1680368566 -61929891 -505775313 -2113024876 130462309 -344653097 1772448311 -485844241 149209668 -2128424622 1688787820 -165935118 -1309162884 -1652214096 -852051257 -816077530 1758030724 -1770267021
REM
CELL 1.54180   50.00000   50.00000   50.00000   90.00000   90.00000   90.00000
LATT -1
SFAC C  
C      1  0.4666130000000  0.4779480000000  0.5454110000000 1.0
C      1  0.4564830000000  0.5262570000000  0.5469000000000 1.0
C      1  0.4669290000000  0.5700200000000  0.4740040000000 1.0
C      1  0.4645850000000  0.5078970000000  0.4502240000000 1.0
C      1  0.4639110000000  0.4496420000000  0.4777670000000 1.0
C      1  0.5278310000000  0.4650170000000  0.4524950000000 1.0
C      1  0.5356770000000  0.5300330000000  0.4545770000000 1.0
C      1  0.5347390000000  0.5557010000000  0.5140680000000 1.0
C      1  0.5293330000000  0.4939800000000  0.5662090000000 1.0
C      1  0.5463400000000  0.4591440000000  0.5223250000000 1.0
C      1  0.4256940000000  0.5731400000000  0.4694700000000 1.0
C      1  0.4410100000000  0.4938040000000  0.4212340000000 1.0
C      1  0.4517380000000  0.4098540000000  0.4714250000000 1.0
C      1  0.4543440000000  0.4539330000000  0.5602310000000 1.0
C      1  0.4453410000000  0.5565510000000  0.5794610000000 1.0
C      1  0.5487210000000  0.5836300000000  0.5382770000000 1.0
C      1  0.5594870000000  0.4792810000000  0.5718270000000 1.0
C      1  0.5513240000000  0.4121310000000  0.5148530000000 1.0
C      1  0.5471910000000  0.4382780000000  0.4303980000000 1.0
C      1  0.5580770000000  0.5421800000000  0.4219820000000 1.0
C      1  0.5876100000000  0.4315590000000  0.4765320000000 1.0
C      1  0.5838640000000  0.4705850000000  0.5639520000000 1.0
C      1  0.5658720000000  0.5572850000000  0.5525330000000 1.0
C      1  0.5781900000000  0.5812520000000  0.4723440000000 1.0
C      1  0.6138590000000  0.5183920000000  0.4288660000000 1.0
C      1  0.4045280000000  0.4224980000000  0.5280130000000 1.0
C      1  0.4306010000000  0.4683030000000  0.4370680000000 1.0
C      1  0.4313280000000  0.5497610000000  0.4538900000000 1.0
C      1  0.4277650000000  0.5710500000000  0.5305550000000 1.0
C      1  0.4209930000000  0.4928190000000  0.5818110000000 1.0
C      1  0.4806320000000  0.4166010000000  0.5563240000000 1.0
C      1  0.4794620000000  0.5346640000000  0.5855480000000 1.0
C      1  0.4890940000000  0.5994210000000  0.4888510000000 1.0
C      1  0.4856260000000  0.5183560000000  0.4081980000000 1.0
C      1  0.4864670000000  0.4091670000000  0.4501540000000 1.0
C      1  0.5146150000000  0.4214750000000  0.4462750000000 1.0
C      1  0.5155120000000  0.5325210000000  0.4144370000000 1.0
C      1  0.5153400000000  0.5942130000000  0.5098330000000 1.0
C      1  0.5066770000000  0.5186200000000  0.5878610000000 1.0
C      1  0.5093700000000  0.4096130000000  0.5421730000000 1.0
C      1  0.4111490000000  0.4770830000000  0.5236570000000 1.0
C      1  0.4071380000000  0.5078320000000  0.5347020000000 1.0
C      1  0.4069060000000  0.5250120000000  0.5110010000000 1.0
C      1  0.4021980000000  0.5101830000000  0.4863330000000 1.0
C      1  0.4009490000000  0.4770870000000  0.4907790000000 1.0
C      1  0.6006700000000  0.4841460000000  0.4838750000000 1.0
C      1  0.6027830000000  0.5088580000000  0.4748280000000 1.0
C      1  0.6082020000000  0.5363710000000  0.4940910000000 1.0
C      1  0.6048630000000  0.5095750000000  0.5147550000000 1.0
C      1  0.6050450000000  0.4757220000000  0.5141360000000 1.0
C      1  0.4565380000000  0.4755470000000  0.4569370000000 1.0
C      1  0.4544000000000  0.4479070000000  0.5076710000000 1.0
C      1  0.4751430000000  0.5052990000000  0.5568780000000 1.0
C      1  0.4649880000000  0.5485270000000  0.5245490000000 1.0
C      1  0.4619340000000  0.5401980000000  0.4605200000000 1.0
C      1  0.5254380000000  0.4731470000000  0.5410840000000 1.0
C      1  0.5287090000000  0.4471730000000  0.4957070000000 1.0
C      1  0.5321750000000  0.4963030000000  0.4518220000000 1.0
C      1  0.5424820000000  0.5496560000000  0.4815110000000 1.0
C      1  0.5326500000000  0.5393910000000  0.5400960000000 1.0
C      1  0.5262030000000  0.4210870000000  0.4746210000000 1.0
C      1  0.5141020000000  0.4381370000000  0.5562320000000 1.0
C      1  0.5136870000000  0.5451340000000  0.5677290000000 1.0
C      1  0.5203980000000  0.5754870000000  0.4827350000000 1.0
C      1  0.5184440000000  0.5004690000000  0.4222610000000 1.0
C      1  0.4677510000000  0.4226080000000  0.5260570000000 1.0
C      1  0.4791220000000  0.4385570000000  0.4425430000000 1.0
C      1  0.4803910000000  0.5396980000000  0.4319690000000 1.0
C      1  0.4797530000000  0.5762290000000  0.5113580000000 1.0
C      1  0.4701760000000  0.5026230000000  0.5873740000000 1.0
C      1  0.5222990000000  0.4925040000000  0.5172430000000 1.0
C      1  0.5410160000000  0.5163920000000  0.5224110000000 1.0
C      1  0.5355140000000  0.5217660000000  0.4935720000000 1.0
C      1  0.5183110000000  0.5037940000000  0.4790890000000 1.0
C      1  0.5318560000000  0.4779980000000  0.4904490000000 1.0
C      1  0.4807450000000  0.4854700000000  0.4786590000000 1.0
C      1  0.4901680000000  0.5139140000000  0.4798710000000 1.0
C      1  0.4790940000000  0.5250840000000  0.5058470000000 1.0
C      1  0.4909980000000  0.4999840000000  0.5199880000000 1.0
C      1  0.4740940000000  0.4756080000000  0.5063330000000 1.0
C      1  0.4764560000000  0.5647950000000  0.5717570000000 1.0
C      1  0.4915780000000  0.5866160000000  0.4574430000000 1.0
C      1  0.4698990000000  0.4885780000000  0.4107070000000 1.0
C      1  0.4825060000000  0.3972900000000  0.4797370000000 1.0
C      1  0.4777060000000  0.4404520000000  0.5725690000000 1.0
C      1  0.5311440000000  0.5561430000000  0.4332640000000 1.0
C      1  0.5151980000000  0.5891110000000  0.5423950000000 1.0
C      1  0.5057370000000  0.4846090000000  0.5888280000000 1.0
C      1  0.5241930000000  0.4011900000000  0.5186160000000 1.0
C      1  0.5149820000000  0.4485360000000  0.4256590000000 1.0
C      1  0.4432820000000  0.5781630000000  0.4952120000000 1.0
C      1  0.4328880000000  0.5190750000000  0.4287290000000 1.0
C      1  0.4421580000000  0.4360960000000  0.4572630000000 1.0
C      1  0.4354910000000  0.4390610000000  0.5463280000000 1.0
C      1  0.4350410000000  0.5356220000000  0.5652710000000 1.0
C      1  0.5570140000000  0.5779180000000  0.5057560000000 1.0
C      1  0.5592790000000  0.5117220000000  0.5727560000000 1.0
C      1  0.5616650000000  0.4331500000000  0.5346160000000 1.0
C      1  0.5544260000000  0.4455080000000  0.4603740000000 1.0
C      1  0.5665890000000  0.5168910000000  0.4266290000000 1.0
C      1  0.4721140000000  0.5725930000000  0.4344350000000 1.0
C      1  0.4828340000000  0.4570730000000  0.4155360000000 1.0
C      1  0.4578480000000  0.3997830000000  0.5028740000000 1.0
C      1  0.4752920000000  0.4691680000000  0.5906860000000 1.0
C      1  0.4811070000000  0.5844100000000  0.5443390000000 1.0
C      1  0.5070320000000  0.5779850000000  0.5734920000000 1.0
C      1  0.5240960000000  0.4577080000000  0.5822120000000 1.0
C      1  0.5108550000000  0.3997860000000  0.4925130000000 1.0
C      1  0.5293910000000  0.4724950000000  0.4063050000000 1.0
C      1  0.5245650000000  0.5819380000000  0.4496080000000 1.0
C      1  0.4900830000000  0.4902840000000  0.4361040000000 1.0
C      1  0.4971990000000  0.4497720000000  0.4864260000000 1.0
C      1  0.4956510000000  0.4610460000000  0.5401910000000 1.0
C      1  0.4929850000000  0.5415100000000  0.5409970000000 1.0
C      1  0.4947910000000  0.5547300000000  0.4811680000000 1.0
C      1  0.5057930000000  0.5110190000000  0.5485520000000 1.0
C      1  0.4926850000000  0.4418760000000  0.5166750000000 1.0
C      1  0.4945800000000  0.4637930000000  0.4564090000000 1.0
C      1  0.5021140000000  0.5346150000000  0.4576570000000 1.0
C      1  0.5047940000000  0.5545900000000  0.5130070000000 1.0
C      1  0.4216480000000  0.4605220000000  0.4690820000000 1.0
C      1  0.4079250000000  0.4508830000000  0.5372070000000 1.0
C      1  0.4159870000000  0.5134290000000  0.5620450000000 1.0
C      1  0.4259820000000  0.5501680000000  0.5037770000000 1.0
C      1  0.4126660000000  0.5213990000000  0.4559790000000 1.0
C      1  0.5841970000000  0.4586100000000  0.5352020000000 1.0
C      1  0.5823980000000  0.4632360000000  0.4681140000000 1.0
C      1  0.5913770000000  0.5148040000000  0.4456960000000 1.0
C      1  0.5842230000000  0.5609600000000  0.4943200000000 1.0
C      1  0.5704600000000  0.5288870000000  0.5533250000000 1.0
C      1  0.5495840000000  0.5897570000000  0.4727010000000 1.0
C      1  0.5515600000000  0.4967860000000  0.4154400000000 1.0
C      1  0.5571480000000  0.4214780000000  0.4843730000000 1.0
C      1  0.5461130000000  0.4438920000000  0.5604800000000 1.0
C      1  0.5388410000000  0.5682880000000  0.5669680000000 1.0
C      1  0.4523140000000  0.5902180000000  0.5257730000000 1.0
C      1  0.4443390000000  0.4835640000000  0.5920140000000 1.0
C      1  0.4356600000000  0.4113490000000  0.5264750000000 1.0
C      1  0.4519020000000  0.4447960000000  0.4258590000000 1.0
C      1  0.4484980000000  0.5491530000000  0.4245410000000 1.0
C      1  0.4444970000000  0.5143710000000  0.5224020000000 1.0
C      1  0.4468600000000  0.5281510000000  0.4954290000000 1.0
C      1  0.4397320000000  0.5094840000000  0.4727570000000 1.0
C      1  0.4334940000000  0.4841780000000  0.4882620000000 1.0
C      1  0.4443020000000  0.4839350000000  0.5204490000000 1.0
C      1  0.5645600000000  0.5166490000000  0.4665650000000 1.0
C      1  0.5746230000000  0.5295280000000  0.4941040000000 1.0
C      1  0.5724000000000  0.5135650000000  0.5240450000000 1.0
C      1  0.5714480000000  0.4809070000000  0.5129050000000 1.0
C      1  0.5609650000000  0.4862170000000  0.4809930000000 1.0
END
