TITL C-3289334-2237-354 -0.00266511160752532 125000 -354.815075247746 0 0 62 (C1) n - 1
REM
REM in /nfs/bkarasulu/CARBON/AIRSS/Generating-Clusters/AIREBO/with-SteepDescent/Higher-Symm/SD-CG/HFTN-CG
REM
REM
REM
REM
REM
REM ./C.cell (b20cbc046b6831c77cfcea5457e17084)
REM
REM compiler GCC version 9.2.1 20190827 (Red Hat 9.2.1-1)
REM options -cpp -mtune=generic -march=x86-64 -g -O0 -fpre-include=/usr/include/finclude/math-vector-fortran.h
REM seed -905427155 -34288188 1606663240 1432234413 125158231 1013930662 -1219861672 1940597875 -1762040706 -833661877 1034004497 871170819 2120605321 1034505327 706050384 213385171 1637313673 1925944054 1583319824 863951984 266142202 1942283948 949094214 -1398047260 -94976358 -1718202832 -229043490 -975270096 -214948308 1572962293 -1260361871 1240554825 -825760686
REM
CELL 1.54180   50.00000   50.00000   50.00000   90.00000   90.00000   90.00000
LATT -1
SFAC C  
C      1  0.4818270000000  0.5906720000000  0.4673170000000 1.0
C      1  0.5515390000000  0.5571570000000  0.4676730000000 1.0
C      1  0.5736000000000  0.4648620000000  0.4793180000000 1.0
C      1  0.5209990000000  0.4224150000000  0.4678330000000 1.0
C      1  0.4652110000000  0.4426160000000  0.4627510000000 1.0
C      1  0.4381830000000  0.5291570000000  0.4725870000000 1.0
C      1  0.4704350000000  0.4455400000000  0.5242750000000 1.0
C      1  0.5455400000000  0.4433380000000  0.5289650000000 1.0
C      1  0.5752600000000  0.5197460000000  0.5269950000000 1.0
C      1  0.5048200000000  0.5600110000000  0.5284250000000 1.0
C      1  0.4601790000000  0.5472980000000  0.5357930000000 1.0
C      1  0.4322390000000  0.4767210000000  0.5325360000000 1.0
C      1  0.4662760000000  0.5403000000000  0.5049960000000 1.0
C      1  0.5184710000000  0.5195270000000  0.5109210000000 1.0
C      1  0.5314990000000  0.4919260000000  0.5176080000000 1.0
C      1  0.5216150000000  0.4619400000000  0.5232000000000 1.0
C      1  0.4852050000000  0.4687590000000  0.5057570000000 1.0
C      1  0.4778780000000  0.4943300000000  0.5223880000000 1.0
C      1  0.4762240000000  0.4910360000000  0.4827300000000 1.0
C      1  0.5133160000000  0.4597840000000  0.4922760000000 1.0
C      1  0.5539240000000  0.4892680000000  0.4924820000000 1.0
C      1  0.5225610000000  0.5255620000000  0.4806600000000 1.0
C      1  0.4699560000000  0.5622720000000  0.4817710000000 1.0
C      1  0.4563290000000  0.5102630000000  0.4925100000000 1.0
C      1  0.5239610000000  0.5241270000000  0.5542270000000 1.0
C      1  0.5372990000000  0.5002620000000  0.5575440000000 1.0
C      1  0.5222670000000  0.4818700000000  0.5728100000000 1.0
C      1  0.4956570000000  0.4768090000000  0.5631380000000 1.0
C      1  0.4791950000000  0.5006220000000  0.5615590000000 1.0
C      1  0.4956760000000  0.5261320000000  0.5620950000000 1.0
C      1  0.5169810000000  0.4774380000000  0.4412140000000 1.0
C      1  0.5260500000000  0.5042800000000  0.4473060000000 1.0
C      1  0.5073760000000  0.5284930000000  0.4440880000000 1.0
C      1  0.4775080000000  0.5283650000000  0.4411320000000 1.0
C      1  0.4679680000000  0.5023810000000  0.4338100000000 1.0
C      1  0.4898450000000  0.4770170000000  0.4341420000000 1.0
C      1  0.4954810000000  0.5675320000000  0.5038090000000 1.0
C      1  0.5596840000000  0.5380560000000  0.5133760000000 1.0
C      1  0.5617560000000  0.4661690000000  0.5161790000000 1.0
C      1  0.4984710000000  0.4296230000000  0.5194350000000 1.0
C      1  0.4287240000000  0.4628750000000  0.5015850000000 1.0
C      1  0.4407150000000  0.5256020000000  0.5319970000000 1.0
C      1  0.5023740000000  0.4213540000000  0.4939390000000 1.0
C      1  0.5457470000000  0.4510500000000  0.4869780000000 1.0
C      1  0.5603940000000  0.5375230000000  0.4848070000000 1.0
C      1  0.5065810000000  0.5761440000000  0.4764580000000 1.0
C      1  0.4289620000000  0.5260100000000  0.5047050000000 1.0
C      1  0.4396950000000  0.4604870000000  0.4763750000000 1.0
C      1  0.4647270000000  0.4761400000000  0.4570560000000 1.0
C      1  0.4600170000000  0.5430620000000  0.4590750000000 1.0
C      1  0.5202060000000  0.5540420000000  0.4623540000000 1.0
C      1  0.5497300000000  0.5098220000000  0.4711590000000 1.0
C      1  0.5243590000000  0.4554870000000  0.4606850000000 1.0
C      1  0.4902800000000  0.4330570000000  0.4654210000000 1.0
C      1  0.4526750000000  0.4982020000000  0.5403000000000 1.0
C      1  0.4421380000000  0.4478150000000  0.5263810000000 1.0
C      1  0.4970980000000  0.4559270000000  0.5416320000000 1.0
C      1  0.5600960000000  0.4941760000000  0.5355370000000 1.0
C      1  0.5313970000000  0.5424630000000  0.5283670000000 1.0
C      1  0.4855200000000  0.5498140000000  0.5478220000000 1.0
C      1  0.4889510000000  0.5193410000000  0.5135660000000 1.0
C      1  0.5006710000000  0.5053560000000  0.4781970000000 1.0
END
