TITL C-3289333-7213-665 -0.000248346965134609 125000 -1027.81136284757 0 0 189 (C1) n - 1
REM
REM in /nfs/bkarasulu/CARBON/AIRSS/Generating-Clusters/AIREBO/with-SteepDescent/Higher-Symm/SD-CG/HFTN-CG
REM
REM
REM
REM
REM
REM ./C.cell (b20cbc046b6831c77cfcea5457e17084)
REM
REM compiler GCC version 9.2.1 20190827 (Red Hat 9.2.1-1)
REM options -cpp -mtune=generic -march=x86-64 -g -O0 -fpre-include=/usr/include/finclude/math-vector-fortran.h
REM seed 1359716989 2030393061 1012461574 -605738074 1008642319 840265428 465848521 -660900545 -1379270798 509554263 1150718571 -1480948647 344733397 1577446755 -201216678 64252633 -1977215250 1935652428 2064888389 -1998384640 202255286 -1375375371 -890886022 -1487956972 -279051972 1460693016 1325284790 25542930 1968480371 1308568242 -564715927 1929025707 656465008
REM
CELL 1.54180   50.00000   50.00000   50.00000   90.00000   90.00000   90.00000
LATT -1
SFAC C  
C      1  0.5756260000000  0.4400900000000  0.4421210000000 1.0
C      1  0.5101350000000  0.5945150000000  0.4258210000000 1.0
C      1  0.4094120000000  0.4867780000000  0.4407670000000 1.0
C      1  0.5043020000000  0.5536790000000  0.6049930000000 1.0
C      1  0.4469540000000  0.4763060000000  0.6025540000000 1.0
C      1  0.5410110000000  0.4627950000000  0.6048300000000 1.0
C      1  0.4724490000000  0.5553980000000  0.4132240000000 1.0
C      1  0.4586640000000  0.4508270000000  0.4141830000000 1.0
C      1  0.5654130000000  0.4831230000000  0.4193140000000 1.0
C      1  0.5387700000000  0.4679850000000  0.4037470000000 1.0
C      1  0.5068070000000  0.5290000000000  0.3919960000000 1.0
C      1  0.4671020000000  0.4792810000000  0.3954970000000 1.0
C      1  0.5913090000000  0.4674710000000  0.5587690000000 1.0
C      1  0.4812140000000  0.5991540000000  0.5477770000000 1.0
C      1  0.4369450000000  0.4268620000000  0.5458000000000 1.0
C      1  0.5303700000000  0.4994610000000  0.5180230000000 1.0
C      1  0.4889130000000  0.5239220000000  0.5160000000000 1.0
C      1  0.4900050000000  0.4843840000000  0.5113790000000 1.0
C      1  0.4623860000000  0.4012960000000  0.4355650000000 1.0
C      1  0.5979090000000  0.5325890000000  0.4299770000000 1.0
C      1  0.4367960000000  0.5654560000000  0.4447900000000 1.0
C      1  0.5262960000000  0.4503330000000  0.4468030000000 1.0
C      1  0.5129660000000  0.5462730000000  0.4425230000000 1.0
C      1  0.4427170000000  0.4924110000000  0.4447030000000 1.0
C      1  0.3760240000000  0.5135640000000  0.5059600000000 1.0
C      1  0.5506940000000  0.3790570000000  0.4993660000000 1.0
C      1  0.5737800000000  0.5957030000000  0.4896680000000 1.0
C      1  0.4623510000000  0.4663770000000  0.4689650000000 1.0
C      1  0.5537260000000  0.4755650000000  0.4733490000000 1.0
C      1  0.4932930000000  0.5624970000000  0.4785890000000 1.0
C      1  0.4543760000000  0.5018660000000  0.5154000000000 1.0
C      1  0.5287430000000  0.4597790000000  0.5171430000000 1.0
C      1  0.5226580000000  0.5446980000000  0.5106450000000 1.0
C      1  0.4725600000000  0.5473630000000  0.5005010000000 1.0
C      1  0.4771810000000  0.4571390000000  0.4966600000000 1.0
C      1  0.5419140000000  0.5023550000000  0.4906670000000 1.0
C      1  0.5511400000000  0.4293910000000  0.4363480000000 1.0
C      1  0.5325670000000  0.5876560000000  0.4099600000000 1.0
C      1  0.3964740000000  0.5115340000000  0.4295850000000 1.0
C      1  0.5311760000000  0.5654330000000  0.5560750000000 1.0
C      1  0.4337570000000  0.4906110000000  0.5504520000000 1.0
C      1  0.5405850000000  0.4349070000000  0.5556220000000 1.0
C      1  0.5353760000000  0.5998150000000  0.4651970000000 1.0
C      1  0.3996540000000  0.5039070000000  0.4754520000000 1.0
C      1  0.5737530000000  0.4126730000000  0.4784150000000 1.0
C      1  0.5155700000000  0.4556480000000  0.4087600000000 1.0
C      1  0.5311020000000  0.5216210000000  0.4032750000000 1.0
C      1  0.4635780000000  0.5068960000000  0.4005370000000 1.0
C      1  0.4978780000000  0.4761200000000  0.5989290000000 1.0
C      1  0.5156320000000  0.5119010000000  0.5988120000000 1.0
C      1  0.4827550000000  0.5058990000000  0.5925030000000 1.0
C      1  0.4288170000000  0.5683880000000  0.5483450000000 1.0
C      1  0.4779140000000  0.4021570000000  0.5439490000000 1.0
C      1  0.5869170000000  0.5259190000000  0.5463260000000 1.0
C      1  0.4458190000000  0.4587310000000  0.4411830000000 1.0
C      1  0.5725590000000  0.4696020000000  0.4451430000000 1.0
C      1  0.4931520000000  0.5689890000000  0.4329020000000 1.0
C      1  0.4220000000000  0.5299680000000  0.5192950000000 1.0
C      1  0.5141610000000  0.4125480000000  0.5150860000000 1.0
C      1  0.5612090000000  0.5533740000000  0.5145790000000 1.0
C      1  0.4540740000000  0.4191470000000  0.4121710000000 1.0
C      1  0.5854890000000  0.5076460000000  0.4147080000000 1.0
C      1  0.4461260000000  0.5647830000000  0.4181580000000 1.0
C      1  0.4591880000000  0.3838890000000  0.4577280000000 1.0
C      1  0.6152600000000  0.5483310000000  0.4438740000000 1.0
C      1  0.4144110000000  0.5772530000000  0.4573990000000 1.0
C      1  0.4949930000000  0.4411430000000  0.5806570000000 1.0
C      1  0.5501740000000  0.5199180000000  0.5812420000000 1.0
C      1  0.4501040000000  0.5413820000000  0.5844010000000 1.0
C      1  0.5033790000000  0.6077870000000  0.5030100000000 1.0
C      1  0.4084900000000  0.4474880000000  0.5083800000000 1.0
C      1  0.5980000000000  0.4493170000000  0.5092300000000 1.0
C      1  0.4158370000000  0.5221300000000  0.4118860000000 1.0
C      1  0.5272240000000  0.4146080000000  0.4292090000000 1.0
C      1  0.5498410000000  0.5673820000000  0.4168320000000 1.0
C      1  0.5321610000000  0.4498000000000  0.4787700000000 1.0
C      1  0.5341380000000  0.5475860000000  0.4685330000000 1.0
C      1  0.4389260000000  0.5105840000000  0.4732060000000 1.0
C      1  0.4540990000000  0.5686150000000  0.5287740000000 1.0
C      1  0.4619450000000  0.4236500000000  0.5229760000000 1.0
C      1  0.5810190000000  0.5040860000000  0.5236530000000 1.0
C      1  0.6148910000000  0.4498490000000  0.5664520000000 1.0
C      1  0.4857050000000  0.6293660000000  0.5482120000000 1.0
C      1  0.4296970000000  0.4002780000000  0.5258710000000 1.0
C      1  0.5347500000000  0.5395620000000  0.6040790000000 1.0
C      1  0.4487480000000  0.5097410000000  0.5967880000000 1.0
C      1  0.5125510000000  0.4470300000000  0.6086520000000 1.0
C      1  0.4668300000000  0.5286150000000  0.4659380000000 1.0
C      1  0.4927450000000  0.4735220000000  0.4637540000000 1.0
C      1  0.5235860000000  0.5151370000000  0.4650270000000 1.0
C      1  0.4036420000000  0.4690850000000  0.5645200000000 1.0
C      1  0.5897590000000  0.4049470000000  0.5468520000000 1.0
C      1  0.5362240000000  0.5991590000000  0.5761810000000 1.0
C      1  0.5209110000000  0.4833620000000  0.4530350000000 1.0
C      1  0.4942580000000  0.5209980000000  0.4488450000000 1.0
C      1  0.4766120000000  0.4954930000000  0.4463480000000 1.0
C      1  0.5430190000000  0.4981070000000  0.3993450000000 1.0
C      1  0.4794520000000  0.5314200000000  0.3983690000000 1.0
C      1  0.4884320000000  0.4582060000000  0.4014320000000 1.0
C      1  0.5010180000000  0.4345830000000  0.4311500000000 1.0
C      1  0.5420540000000  0.5381880000000  0.4268620000000 1.0
C      1  0.4408810000000  0.5102350000000  0.4164170000000 1.0
C      1  0.5601870000000  0.4176710000000  0.5357910000000 1.0
C      1  0.5340860000000  0.5978990000000  0.5461400000000 1.0
C      1  0.4044140000000  0.4892650000000  0.5377270000000 1.0
C      1  0.4773430000000  0.4889940000000  0.5637400000000 1.0
C      1  0.5138540000000  0.4689620000000  0.5697590000000 1.0
C      1  0.5188000000000  0.5283220000000  0.5693540000000 1.0
C      1  0.4420170000000  0.4602020000000  0.5410460000000 1.0
C      1  0.5606880000000  0.4595320000000  0.5512120000000 1.0
C      1  0.5017390000000  0.5745770000000  0.5451940000000 1.0
C      1  0.5895660000000  0.4306210000000  0.4646060000000 1.0
C      1  0.5147520000000  0.6109000000000  0.4480760000000 1.0
C      1  0.3973090000000  0.4742860000000  0.4659900000000 1.0
C      1  0.4396810000000  0.5696860000000  0.4979980000000 1.0
C      1  0.4763070000000  0.4174050000000  0.4927940000000 1.0
C      1  0.5832180000000  0.5172170000000  0.4956850000000 1.0
C      1  0.5512660000000  0.5807710000000  0.5050650000000 1.0
C      1  0.4046810000000  0.5058570000000  0.5142420000000 1.0
C      1  0.5428430000000  0.4055890000000  0.5126650000000 1.0
C      1  0.4259670000000  0.4892830000000  0.5810750000000 1.0
C      1  0.5343760000000  0.4358870000000  0.5850790000000 1.0
C      1  0.5303710000000  0.5687040000000  0.5890060000000 1.0
C      1  0.4609950000000  0.5908660000000  0.5718390000000 1.0
C      1  0.4489470000000  0.4191790000000  0.5738210000000 1.0
C      1  0.5907850000000  0.4925090000000  0.5777410000000 1.0
C      1  0.5985300000000  0.4519790000000  0.4814880000000 1.0
C      1  0.4983170000000  0.6101330000000  0.4756630000000 1.0
C      1  0.4080180000000  0.4518920000000  0.4781870000000 1.0
C      1  0.5908970000000  0.4269960000000  0.5245450000000 1.0
C      1  0.5296610000000  0.6028170000000  0.5181430000000 1.0
C      1  0.3987810000000  0.4583500000000  0.5322590000000 1.0
C      1  0.5848560000000  0.5506530000000  0.5353170000000 1.0
C      1  0.4095640000000  0.5529400000000  0.5369490000000 1.0
C      1  0.4985270000000  0.3911270000000  0.5303340000000 1.0
C      1  0.5685590000000  0.3851760000000  0.4792130000000 1.0
C      1  0.5628510000000  0.6050230000000  0.4662290000000 1.0
C      1  0.3901010000000  0.5218400000000  0.4562570000000 1.0
C      1  0.4795540000000  0.5928350000000  0.4531800000000 1.0
C      1  0.4252520000000  0.4370540000000  0.4576430000000 1.0
C      1  0.5983050000000  0.4786220000000  0.4651160000000 1.0
C      1  0.6091690000000  0.5332490000000  0.4910880000000 1.0
C      1  0.3964870000000  0.5956190000000  0.4996440000000 1.0
C      1  0.4415130000000  0.3842650000000  0.5067350000000 1.0
C      1  0.4766760000000  0.4150940000000  0.5706770000000 1.0
C      1  0.5786810000000  0.5160160000000  0.5710670000000 1.0
C      1  0.4414950000000  0.5714930000000  0.5736700000000 1.0
C      1  0.4841950000000  0.4413570000000  0.5416300000000 1.0
C      1  0.5518360000000  0.5080440000000  0.5405510000000 1.0
C      1  0.4600570000000  0.5437790000000  0.5519580000000 1.0
C      1  0.5132250000000  0.4747960000000  0.4908750000000 1.0
C      1  0.5095820000000  0.5257860000000  0.4913260000000 1.0
C      1  0.4744610000000  0.5067020000000  0.4903980000000 1.0
C      1  0.6260480000000  0.4881310000000  0.4580970000000 1.0
C      1  0.4637310000000  0.6135970000000  0.4368410000000 1.0
C      1  0.4093030000000  0.4175100000000  0.4410560000000 1.0
C      1  0.5871830000000  0.4745910000000  0.5257620000000 1.0
C      1  0.4786230000000  0.5882020000000  0.5156830000000 1.0
C      1  0.4396080000000  0.4378600000000  0.5004120000000 1.0
C      1  0.5744260000000  0.5020630000000  0.4679980000000 1.0
C      1  0.4673550000000  0.5829530000000  0.4833570000000 1.0
C      1  0.4563820000000  0.4343140000000  0.4710420000000 1.0
C      1  0.5074620000000  0.5700240000000  0.5146680000000 1.0
C      1  0.4480080000000  0.4696830000000  0.5089430000000 1.0
C      1  0.5597510000000  0.4559380000000  0.5180630000000 1.0
C      1  0.5432350000000  0.4836130000000  0.5605050000000 1.0
C      1  0.4930760000000  0.5480020000000  0.5588870000000 1.0
C      1  0.4675010000000  0.4599550000000  0.5591350000000 1.0
C      1  0.4589920000000  0.3909990000000  0.4852950000000 1.0
C      1  0.6189950000000  0.5484430000000  0.4709760000000 1.0
C      1  0.4153720000000  0.5820730000000  0.4853180000000 1.0
C      1  0.5400670000000  0.4892740000000  0.5919590000000 1.0
C      1  0.4833220000000  0.5396250000000  0.5882160000000 1.0
C      1  0.4694880000000  0.4610410000000  0.5912470000000 1.0
C      1  0.5682640000000  0.5215790000000  0.4408120000000 1.0
C      1  0.4564930000000  0.5574970000000  0.4635880000000 1.0
C      1  0.4760420000000  0.4264240000000  0.4446930000000 1.0
C      1  0.5130640000000  0.5193450000000  0.5394980000000 1.0
C      1  0.4775840000000  0.5009460000000  0.5383560000000 1.0
C      1  0.5114030000000  0.4788320000000  0.5372880000000 1.0
C      1  0.5544740000000  0.4310430000000  0.4963550000000 1.0
C      1  0.5240350000000  0.5753320000000  0.4854270000000 1.0
C      1  0.4237310000000  0.4874010000000  0.4929130000000 1.0
C      1  0.4428870000000  0.5201920000000  0.5408170000000 1.0
C      1  0.5142770000000  0.4375930000000  0.5340070000000 1.0
C      1  0.5402840000000  0.5399030000000  0.5377570000000 1.0
C      1  0.5042110000000  0.4361080000000  0.4925720000000 1.0
C      1  0.5552740000000  0.5328920000000  0.4880760000000 1.0
C      1  0.4407430000000  0.5367570000000  0.4948730000000 1.0
END
