TITL C-3289331-6719-11 0.00111318294617923 125000 -355.486711344362 0 0 68 (C1) n - 1
REM
REM in /nfs/bkarasulu/CARBON/AIRSS/Generating-Clusters/AIREBO/with-SteepDescent/Higher-Symm/SD-CG/HFTN-CG
REM
REM
REM
REM
REM
REM ./C.cell (b20cbc046b6831c77cfcea5457e17084)
REM
REM compiler GCC version 9.2.1 20190827 (Red Hat 9.2.1-1)
REM options -cpp -mtune=generic -march=x86-64 -g -O0 -fpre-include=/usr/include/finclude/math-vector-fortran.h
REM seed -1711018246 -2032601702 -1804262878 908389872 293650137 552151955 117095893 -1458759091 1230343688 -585692931 667491300 1033532386 -432638334 -1628097544 453223725 249709115 -985906436 -1203511297 1785722202 2118373260 -376981679 1979146403 -866097822 -361470802 -242796670 1223154401 381782120 -1647695666 1116815788 -1811110345 -2115556346 -994064623 2114294843
REM
CELL 1.54180   50.00000   50.00000   50.00000   90.00000   90.00000   90.00000
LATT -1
SFAC C  
C      1  0.4845030000000  0.4244550000000  0.4863280000000 1.0
C      1  0.4202810000000  0.4858140000000  0.4796690000000 1.0
C      1  0.4814800000000  0.4754810000000  0.4170010000000 1.0
C      1  0.5260210000000  0.5622830000000  0.4932490000000 1.0
C      1  0.4835980000000  0.5809740000000  0.5094160000000 1.0
C      1  0.5259120000000  0.4299810000000  0.5156740000000 1.0
C      1  0.5809960000000  0.5095360000000  0.4860870000000 1.0
C      1  0.4293680000000  0.5077250000000  0.5249180000000 1.0
C      1  0.5632270000000  0.4905300000000  0.5290370000000 1.0
C      1  0.5115130000000  0.5159380000000  0.4226510000000 1.0
C      1  0.4986580000000  0.5099200000000  0.5730720000000 1.0
C      1  0.5382790000000  0.4855950000000  0.5938980000000 1.0
C      1  0.4726340000000  0.4306670000000  0.5177360000000 1.0
C      1  0.4216750000000  0.4809480000000  0.5103990000000 1.0
C      1  0.4795310000000  0.4896050000000  0.5780380000000 1.0
C      1  0.5144660000000  0.5784020000000  0.5148760000000 1.0
C      1  0.4763230000000  0.5779860000000  0.4820300000000 1.0
C      1  0.5143400000000  0.4132270000000  0.4918120000000 1.0
C      1  0.5765890000000  0.5146940000000  0.5169840000000 1.0
C      1  0.4331130000000  0.5116800000000  0.4702690000000 1.0
C      1  0.5788340000000  0.4824750000000  0.4776660000000 1.0
C      1  0.5244410000000  0.5123220000000  0.5838320000000 1.0
C      1  0.4818850000000  0.5297440000000  0.4251460000000 1.0
C      1  0.5084160000000  0.4835330000000  0.4184980000000 1.0
C      1  0.4853560000000  0.4433630000000  0.4610730000000 1.0
C      1  0.4408090000000  0.4615490000000  0.4815900000000 1.0
C      1  0.4629550000000  0.4848340000000  0.4368270000000 1.0
C      1  0.5148140000000  0.5533690000000  0.4663420000000 1.0
C      1  0.4841180000000  0.5613930000000  0.5341520000000 1.0
C      1  0.5170350000000  0.4418790000000  0.5394620000000 1.0
C      1  0.5593230000000  0.5319350000000  0.4857910000000 1.0
C      1  0.4424990000000  0.5357420000000  0.5127120000000 1.0
C      1  0.5519980000000  0.4658910000000  0.5139670000000 1.0
C      1  0.5396220000000  0.5161400000000  0.4392810000000 1.0
C      1  0.4519960000000  0.5115910000000  0.5475840000000 1.0
C      1  0.5425680000000  0.4842120000000  0.5624200000000 1.0
C      1  0.4886460000000  0.4417650000000  0.5426470000000 1.0
C      1  0.4437180000000  0.4588200000000  0.5136660000000 1.0
C      1  0.4629200000000  0.4862350000000  0.5554550000000 1.0
C      1  0.5150000000000  0.5601430000000  0.5406140000000 1.0
C      1  0.4867320000000  0.5566800000000  0.4658620000000 1.0
C      1  0.5110300000000  0.4491370000000  0.4508740000000 1.0
C      1  0.5561770000000  0.5389460000000  0.5163240000000 1.0
C      1  0.4413920000000  0.5383740000000  0.4845520000000 1.0
C      1  0.5565290000000  0.4669670000000  0.4863710000000 1.0
C      1  0.5441820000000  0.5165020000000  0.5594580000000 1.0
C      1  0.4599920000000  0.5132780000000  0.4399910000000 1.0
C      1  0.5323500000000  0.4857520000000  0.4381340000000 1.0
C      1  0.5023800000000  0.4858530000000  0.5314640000000 1.0
C      1  0.4974490000000  0.5151330000000  0.4535960000000 1.0
C      1  0.4871630000000  0.5285090000000  0.4986260000000 1.0
C      1  0.5333280000000  0.5015390000000  0.4858170000000 1.0
C      1  0.5156900000000  0.4490060000000  0.4905510000000 1.0
C      1  0.4853300000000  0.4560140000000  0.4989600000000 1.0
C      1  0.5148500000000  0.5349230000000  0.5017200000000 1.0
C      1  0.4607770000000  0.4975210000000  0.4828860000000 1.0
C      1  0.5381680000000  0.5033570000000  0.5137820000000 1.0
C      1  0.4585020000000  0.4958840000000  0.5119040000000 1.0
C      1  0.4989260000000  0.5145640000000  0.5422820000000 1.0
C      1  0.4978340000000  0.4878410000000  0.4662870000000 1.0
C      1  0.4728750000000  0.4693840000000  0.5276380000000 1.0
C      1  0.5278460000000  0.4724240000000  0.4690970000000 1.0
C      1  0.4698910000000  0.5273470000000  0.4693430000000 1.0
C      1  0.5351430000000  0.5282900000000  0.4664060000000 1.0
C      1  0.4724910000000  0.5314120000000  0.5290510000000 1.0
C      1  0.5294650000000  0.4705450000000  0.5390080000000 1.0
C      1  0.5278460000000  0.5296650000000  0.5327000000000 1.0
C      1  0.4687770000000  0.4702000000000  0.4654460000000 1.0
END
