TITL C-3289331-6719-633 0.00191205173624629 125000 -783.118552112807 0 0 136 (C1) n - 1
REM
REM in /nfs/bkarasulu/CARBON/AIRSS/Generating-Clusters/AIREBO/with-SteepDescent/Higher-Symm/SD-CG/HFTN-CG
REM
REM
REM
REM
REM
REM ./C.cell (b20cbc046b6831c77cfcea5457e17084)
REM
REM compiler GCC version 9.2.1 20190827 (Red Hat 9.2.1-1)
REM options -cpp -mtune=generic -march=x86-64 -g -O0 -fpre-include=/usr/include/finclude/math-vector-fortran.h
REM seed -1352304435 -2084999547 -14500946 955781368 -286068650 -871713742 408511604 -503326243 235332489 1834899815 199024732 695287625 2023654500 1200386775 572718789 1855312086 -823103783 -809564382 625724460 1930346618 -1263876940 -989748281 1746871229 -655198415 353982400 1568252486 -323144492 -1023262756 -970106073 373685950 -1888630711 -687097586 -1129743272
REM
CELL 1.54180   50.00000   50.00000   50.00000   90.00000   90.00000   90.00000
LATT -1
SFAC C  
C      1  0.5396380000000  0.4781680000000  0.5875710000000 1.0
C      1  0.4612240000000  0.4724630000000  0.4130690000000 1.0
C      1  0.4573760000000  0.5187360000000  0.5816620000000 1.0
C      1  0.5369250000000  0.5239420000000  0.4132060000000 1.0
C      1  0.5834130000000  0.4811730000000  0.5376970000000 1.0
C      1  0.4094160000000  0.4791230000000  0.4554720000000 1.0
C      1  0.5914320000000  0.5185050000000  0.4414770000000 1.0
C      1  0.4135000000000  0.5205350000000  0.5415000000000 1.0
C      1  0.5124290000000  0.4288390000000  0.4721150000000 1.0
C      1  0.5021250000000  0.4196260000000  0.5212020000000 1.0
C      1  0.5092700000000  0.5890920000000  0.4816850000000 1.0
C      1  0.5021520000000  0.5884190000000  0.5324020000000 1.0
C      1  0.4734070000000  0.4305540000000  0.5142570000000 1.0
C      1  0.5230390000000  0.4163440000000  0.4987410000000 1.0
C      1  0.4937210000000  0.5827000000000  0.5065150000000 1.0
C      1  0.5320770000000  0.5756400000000  0.4979950000000 1.0
C      1  0.5178850000000  0.4783000000000  0.6078460000000 1.0
C      1  0.4830800000000  0.4712640000000  0.3929800000000 1.0
C      1  0.4721070000000  0.5166560000000  0.6068480000000 1.0
C      1  0.5150630000000  0.5257360000000  0.3928470000000 1.0
C      1  0.6052020000000  0.4691790000000  0.5144900000000 1.0
C      1  0.3940780000000  0.4701180000000  0.4838960000000 1.0
C      1  0.5960570000000  0.5199080000000  0.4747550000000 1.0
C      1  0.3963900000000  0.5261660000000  0.5158710000000 1.0
C      1  0.4444130000000  0.4955300000000  0.5679980000000 1.0
C      1  0.5485310000000  0.4991100000000  0.4223610000000 1.0
C      1  0.5536820000000  0.5012710000000  0.5762080000000 1.0
C      1  0.4517690000000  0.4958540000000  0.4296250000000 1.0
C      1  0.5693200000000  0.4972870000000  0.4404600000000 1.0
C      1  0.4255860000000  0.4962520000000  0.5483100000000 1.0
C      1  0.5747440000000  0.5022320000000  0.5558500000000 1.0
C      1  0.4317830000000  0.4985080000000  0.4485020000000 1.0
C      1  0.5598400000000  0.4680680000000  0.5235660000000 1.0
C      1  0.4324600000000  0.4671360000000  0.4732460000000 1.0
C      1  0.4338560000000  0.5370130000000  0.5245930000000 1.0
C      1  0.5703180000000  0.5361830000000  0.4613500000000 1.0
C      1  0.5282220000000  0.4630260000000  0.5641270000000 1.0
C      1  0.4720710000000  0.4630920000000  0.4403020000000 1.0
C      1  0.5264330000000  0.5377670000000  0.4378910000000 1.0
C      1  0.4714920000000  0.5351830000000  0.5612350000000 1.0
C      1  0.5708460000000  0.5374250000000  0.5180140000000 1.0
C      1  0.4468870000000  0.5427340000000  0.4950980000000 1.0
C      1  0.4425120000000  0.4572850000000  0.5021850000000 1.0
C      1  0.5536280000000  0.4660010000000  0.4907660000000 1.0
C      1  0.5026190000000  0.5437720000000  0.5634320000000 1.0
C      1  0.4943420000000  0.5378520000000  0.4418450000000 1.0
C      1  0.5047490000000  0.4613320000000  0.4413910000000 1.0
C      1  0.4953580000000  0.4651620000000  0.5596010000000 1.0
C      1  0.3964530000000  0.5026670000000  0.4840820000000 1.0
C      1  0.6018510000000  0.5006220000000  0.5092050000000 1.0
C      1  0.5956890000000  0.4864500000000  0.4799390000000 1.0
C      1  0.4019280000000  0.4922490000000  0.5158250000000 1.0
C      1  0.4835430000000  0.5038490000000  0.4024760000000 1.0
C      1  0.5106860000000  0.5103550000000  0.5988680000000 1.0
C      1  0.4836780000000  0.4904390000000  0.5920050000000 1.0
C      1  0.5155480000000  0.4926050000000  0.4007870000000 1.0
C      1  0.4682270000000  0.5563000000000  0.4099880000000 1.0
C      1  0.5417520000000  0.5497780000000  0.5679590000000 1.0
C      1  0.5228460000000  0.4395070000000  0.4132950000000 1.0
C      1  0.4696950000000  0.4420800000000  0.5952640000000 1.0
C      1  0.4202140000000  0.5447450000000  0.4655180000000 1.0
C      1  0.5685780000000  0.5480520000000  0.5657640000000 1.0
C      1  0.4166520000000  0.4405260000000  0.5273810000000 1.0
C      1  0.5924390000000  0.4377780000000  0.4636420000000 1.0
C      1  0.4611830000000  0.4197550000000  0.4844240000000 1.0
C      1  0.5531150000000  0.4212370000000  0.5099010000000 1.0
C      1  0.5614850000000  0.5768300000000  0.4843730000000 1.0
C      1  0.4370860000000  0.5839860000000  0.5132140000000 1.0
C      1  0.4842930000000  0.4137840000000  0.4601890000000 1.0
C      1  0.5130290000000  0.4206130000000  0.5507510000000 1.0
C      1  0.4861510000000  0.5804670000000  0.5566710000000 1.0
C      1  0.5103740000000  0.5805240000000  0.4545340000000 1.0
C      1  0.5217820000000  0.4831220000000  0.4324340000000 1.0
C      1  0.4761800000000  0.4889700000000  0.5620760000000 1.0
C      1  0.4788310000000  0.5142120000000  0.4334990000000 1.0
C      1  0.5258430000000  0.5197810000000  0.5699250000000 1.0
C      1  0.4333140000000  0.4812230000000  0.5208210000000 1.0
C      1  0.5650620000000  0.4862540000000  0.4723480000000 1.0
C      1  0.4386580000000  0.5185850000000  0.4747140000000 1.0
C      1  0.5775560000000  0.5292510000000  0.5470460000000 1.0
C      1  0.4748200000000  0.4568450000000  0.4943820000000 1.0
C      1  0.5262810000000  0.4499130000000  0.5030590000000 1.0
C      1  0.5250220000000  0.5464520000000  0.4918630000000 1.0
C      1  0.4756090000000  0.5570040000000  0.5050400000000 1.0
C      1  0.4966440000000  0.4572020000000  0.4741530000000 1.0
C      1  0.5030760000000  0.4526680000000  0.5291620000000 1.0
C      1  0.4950270000000  0.5491890000000  0.5318340000000 1.0
C      1  0.5069580000000  0.5379220000000  0.4725180000000 1.0
C      1  0.5364520000000  0.4364010000000  0.5533400000000 1.0
C      1  0.4625410000000  0.4361020000000  0.4482890000000 1.0
C      1  0.4629260000000  0.5639540000000  0.5537230000000 1.0
C      1  0.5350770000000  0.5657240000000  0.4463880000000 1.0
C      1  0.5543840000000  0.4384470000000  0.5322700000000 1.0
C      1  0.4395800000000  0.4379060000000  0.4673310000000 1.0
C      1  0.5599020000000  0.5637960000000  0.4599650000000 1.0
C      1  0.4428890000000  0.5652320000000  0.5344480000000 1.0
C      1  0.5378800000000  0.4915320000000  0.5208360000000 1.0
C      1  0.4544840000000  0.4899440000000  0.4801830000000 1.0
C      1  0.4521140000000  0.5098430000000  0.5168930000000 1.0
C      1  0.5510420000000  0.5145650000000  0.4754850000000 1.0
C      1  0.5223500000000  0.4925860000000  0.5489340000000 1.0
C      1  0.4794620000000  0.4909960000000  0.4583370000000 1.0
C      1  0.5278980000000  0.5086680000000  0.4551440000000 1.0
C      1  0.4880860000000  0.5123930000000  0.5437280000000 1.0
C      1  0.5675820000000  0.5676170000000  0.5136230000000 1.0
C      1  0.4394900000000  0.5729040000000  0.4861070000000 1.0
C      1  0.4353210000000  0.4242560000000  0.5060330000000 1.0
C      1  0.5592960000000  0.4355250000000  0.4854130000000 1.0
C      1  0.5060780000000  0.5723970000000  0.5800450000000 1.0
C      1  0.4867280000000  0.5679300000000  0.4434060000000 1.0
C      1  0.5008050000000  0.4282810000000  0.4344390000000 1.0
C      1  0.4907460000000  0.4339280000000  0.5626040000000 1.0
C      1  0.5121770000000  0.4597440000000  0.3973040000000 1.0
C      1  0.4897960000000  0.4613790000000  0.6016340000000 1.0
C      1  0.4861890000000  0.5371190000000  0.4006760000000 1.0
C      1  0.4939860000000  0.5308500000000  0.6202490000000 1.0
C      1  0.4005540000000  0.4592660000000  0.5143410000000 1.0
C      1  0.6009440000000  0.4555350000000  0.4841760000000 1.0
C      1  0.3997700000000  0.5325630000000  0.4841690000000 1.0
C      1  0.5977820000000  0.5290740000000  0.5049760000000 1.0
C      1  0.5621980000000  0.4304550000000  0.4555810000000 1.0
C      1  0.4484210000000  0.4313320000000  0.5373160000000 1.0
C      1  0.4368390000000  0.5682120000000  0.4554430000000 1.0
C      1  0.5437630000000  0.5811610000000  0.5282820000000 1.0
C      1  0.4610020000000  0.4306000000000  0.5656810000000 1.0
C      1  0.5329390000000  0.4310180000000  0.4452510000000 1.0
C      1  0.4574860000000  0.5693030000000  0.4360570000000 1.0
C      1  0.5258780000000  0.5743250000000  0.5524690000000 1.0
C      1  0.5106690000000  0.5229680000000  0.5205710000000 1.0
C      1  0.4836780000000  0.5194630000000  0.4764570000000 1.0
C      1  0.4985360000000  0.4856770000000  0.5254700000000 1.0
C      1  0.5101780000000  0.4881620000000  0.4703240000000 1.0
C      1  0.5420360000000  0.5224940000000  0.5074040000000 1.0
C      1  0.4797740000000  0.5231540000000  0.5063540000000 1.0
C      1  0.5174890000000  0.4809550000000  0.4986130000000 1.0
C      1  0.4711740000000  0.4842090000000  0.5092540000000 1.0
END
