TITL C-3289330-4660-443 -0.00162839395324125 125000 -985.601967522897 0 0 182 (C1) n - 1
REM
REM in /nfs/bkarasulu/CARBON/AIRSS/Generating-Clusters/AIREBO/with-SteepDescent/Higher-Symm/SD-CG/HFTN-CG
REM
REM
REM
REM
REM
REM ./C.cell (b20cbc046b6831c77cfcea5457e17084)
REM
REM compiler GCC version 9.2.1 20190827 (Red Hat 9.2.1-1)
REM options -cpp -mtune=generic -march=x86-64 -g -O0 -fpre-include=/usr/include/finclude/math-vector-fortran.h
REM seed -723740859 -1763064264 -777295109 -2128936620 -1041802563 -450362670 1216093499 1632636280 1376792647 -1510521697 278651171 946907256 -1669343950 -1026876463 -479584184 1732778906 1613699441 -1736830570 -1323122891 -520136570 -1371100253 1454313355 -999569607 1993138308 -1514623697 -453227696 -408598048 1851183971 -933579227 325894804 -1750840652 -283633557 -1169621556
REM
CELL 1.54180   50.00000   50.00000   50.00000   90.00000   90.00000   90.00000
LATT -1
SFAC C  
C      1  0.5135710000000  0.5598550000000  0.4405110000000 1.0
C      1  0.5373380000000  0.5256610000000  0.5564410000000 1.0
C      1  0.5473640000000  0.4655380000000  0.4470730000000 1.0
C      1  0.4904960000000  0.4427570000000  0.5494830000000 1.0
C      1  0.4531520000000  0.4805650000000  0.4406680000000 1.0
C      1  0.4660060000000  0.5253700000000  0.5539110000000 1.0
C      1  0.5313750000000  0.3975280000000  0.5031890000000 1.0
C      1  0.4314870000000  0.4047090000000  0.5145860000000 1.0
C      1  0.3829260000000  0.5296650000000  0.5206180000000 1.0
C      1  0.4664850000000  0.6025140000000  0.4945230000000 1.0
C      1  0.5765180000000  0.5800170000000  0.5018100000000 1.0
C      1  0.6085460000000  0.4675170000000  0.4935540000000 1.0
C      1  0.5197990000000  0.5388490000000  0.4888170000000 1.0
C      1  0.5457220000000  0.5017370000000  0.5115820000000 1.0
C      1  0.5245960000000  0.4644600000000  0.4924720000000 1.0
C      1  0.4669890000000  0.4563540000000  0.5102920000000 1.0
C      1  0.4477340000000  0.4912790000000  0.4949340000000 1.0
C      1  0.4662050000000  0.5434410000000  0.5036110000000 1.0
C      1  0.4216570000000  0.5110600000000  0.5833840000000 1.0
C      1  0.4629940000000  0.5769750000000  0.4183580000000 1.0
C      1  0.5538020000000  0.5742800000000  0.5788620000000 1.0
C      1  0.5847750000000  0.4758970000000  0.4191330000000 1.0
C      1  0.5294160000000  0.4193340000000  0.5836120000000 1.0
C      1  0.4500180000000  0.4337650000000  0.4097980000000 1.0
C      1  0.4791460000000  0.4206150000000  0.5710040000000 1.0
C      1  0.4221740000000  0.4867620000000  0.4300890000000 1.0
C      1  0.4429440000000  0.5644730000000  0.5887710000000 1.0
C      1  0.5197270000000  0.5856730000000  0.4229170000000 1.0
C      1  0.5651300000000  0.5235560000000  0.5657310000000 1.0
C      1  0.5539240000000  0.4337950000000  0.4308310000000 1.0
C      1  0.4284040000000  0.5590590000000  0.4274270000000 1.0
C      1  0.5046930000000  0.5952840000000  0.5681150000000 1.0
C      1  0.5847750000000  0.5372850000000  0.4240300000000 1.0
C      1  0.5695510000000  0.4462290000000  0.5817650000000 1.0
C      1  0.4952260000000  0.4110430000000  0.4195360000000 1.0
C      1  0.4151390000000  0.4580530000000  0.5694250000000 1.0
C      1  0.4874620000000  0.5232870000000  0.5301310000000 1.0
C      1  0.5104750000000  0.5194640000000  0.4627770000000 1.0
C      1  0.5261870000000  0.5006470000000  0.5390890000000 1.0
C      1  0.5072670000000  0.4785970000000  0.4709050000000 1.0
C      1  0.4828670000000  0.4724320000000  0.5347360000000 1.0
C      1  0.4655880000000  0.4977830000000  0.4672220000000 1.0
C      1  0.5758060000000  0.4233220000000  0.4442340000000 1.0
C      1  0.4832530000000  0.3951840000000  0.5600670000000 1.0
C      1  0.3925080000000  0.4707170000000  0.4341720000000 1.0
C      1  0.4300840000000  0.5637440000000  0.5644580000000 1.0
C      1  0.5166450000000  0.6075430000000  0.4405890000000 1.0
C      1  0.5830520000000  0.5286410000000  0.5452880000000 1.0
C      1  0.5982520000000  0.5381040000000  0.4977170000000 1.0
C      1  0.5873750000000  0.4253390000000  0.5022440000000 1.0
C      1  0.4928600000000  0.4019160000000  0.4933650000000 1.0
C      1  0.4152130000000  0.4509970000000  0.5099090000000 1.0
C      1  0.4120730000000  0.5683150000000  0.4957720000000 1.0
C      1  0.5055490000000  0.6036320000000  0.5027370000000 1.0
C      1  0.4554570000000  0.4296560000000  0.4431090000000 1.0
C      1  0.4006560000000  0.5071070000000  0.5651920000000 1.0
C      1  0.4573170000000  0.5758360000000  0.4498340000000 1.0
C      1  0.5463150000000  0.5735310000000  0.5456960000000 1.0
C      1  0.5831210000000  0.4889310000000  0.4500090000000 1.0
C      1  0.5375220000000  0.4243450000000  0.5504870000000 1.0
C      1  0.4359470000000  0.4981370000000  0.5234750000000 1.0
C      1  0.4791640000000  0.5589290000000  0.4697040000000 1.0
C      1  0.5411280000000  0.5524210000000  0.5194040000000 1.0
C      1  0.5649680000000  0.4918310000000  0.4787160000000 1.0
C      1  0.5276700000000  0.4413210000000  0.5227120000000 1.0
C      1  0.4565780000000  0.4409430000000  0.4752840000000 1.0
C      1  0.5763180000000  0.5756380000000  0.5301520000000 1.0
C      1  0.5986670000000  0.4635090000000  0.4667160000000 1.0
C      1  0.5233590000000  0.4009280000000  0.5302400000000 1.0
C      1  0.4225140000000  0.4350500000000  0.4495760000000 1.0
C      1  0.3979260000000  0.5282180000000  0.5454890000000 1.0
C      1  0.4751070000000  0.5984640000000  0.4679810000000 1.0
C      1  0.4499080000000  0.5182420000000  0.6009150000000 1.0
C      1  0.4833960000000  0.5689530000000  0.3995290000000 1.0
C      1  0.5446610000000  0.5550130000000  0.5977820000000 1.0
C      1  0.5605180000000  0.4730940000000  0.4044680000000 1.0
C      1  0.5175130000000  0.4493720000000  0.5942210000000 1.0
C      1  0.4526980000000  0.4601770000000  0.3991980000000 1.0
C      1  0.5887360000000  0.4443730000000  0.5370270000000 1.0
C      1  0.5075080000000  0.4030550000000  0.4566290000000 1.0
C      1  0.4227830000000  0.4399670000000  0.5475360000000 1.0
C      1  0.4077200000000  0.5387120000000  0.4651630000000 1.0
C      1  0.4913180000000  0.6042140000000  0.5398290000000 1.0
C      1  0.5852020000000  0.5493350000000  0.4620320000000 1.0
C      1  0.5028260000000  0.4665520000000  0.3994400000000 1.0
C      1  0.4469240000000  0.4789860000000  0.6068330000000 1.0
C      1  0.4737060000000  0.5206580000000  0.3975390000000 1.0
C      1  0.4918340000000  0.5475100000000  0.5951910000000 1.0
C      1  0.5360690000000  0.5207950000000  0.3983560000000 1.0
C      1  0.5335710000000  0.4777720000000  0.6038290000000 1.0
C      1  0.4269680000000  0.5380100000000  0.4997750000000 1.0
C      1  0.4939690000000  0.5734780000000  0.4940420000000 1.0
C      1  0.5646270000000  0.5411440000000  0.5018650000000 1.0
C      1  0.5698080000000  0.4707130000000  0.5028020000000 1.0
C      1  0.5059920000000  0.4304470000000  0.5021400000000 1.0
C      1  0.4311840000000  0.4542490000000  0.4873900000000 1.0
C      1  0.4809180000000  0.5260620000000  0.4782670000000 1.0
C      1  0.5176520000000  0.5282080000000  0.5210460000000 1.0
C      1  0.5319800000000  0.4999910000000  0.4805150000000 1.0
C      1  0.5143710000000  0.4726190000000  0.5238620000000 1.0
C      1  0.4765030000000  0.4681270000000  0.4798180000000 1.0
C      1  0.4697460000000  0.4994610000000  0.5200180000000 1.0
C      1  0.4092080000000  0.4581820000000  0.4545820000000 1.0
C      1  0.4217000000000  0.5447890000000  0.5455610000000 1.0
C      1  0.5037170000000  0.5974610000000  0.4636160000000 1.0
C      1  0.5925220000000  0.5558100000000  0.5438860000000 1.0
C      1  0.5821190000000  0.4397730000000  0.4661080000000 1.0
C      1  0.4953030000000  0.3995450000000  0.5345820000000 1.0
C      1  0.5965430000000  0.5663750000000  0.4859600000000 1.0
C      1  0.6074820000000  0.4452260000000  0.5124200000000 1.0
C      1  0.5144260000000  0.3833600000000  0.4806510000000 1.0
C      1  0.4141740000000  0.4246400000000  0.5238630000000 1.0
C      1  0.3951170000000  0.5329210000000  0.4964700000000 1.0
C      1  0.4816750000000  0.6206160000000  0.5133990000000 1.0
C      1  0.4794970000000  0.4267080000000  0.5215940000000 1.0
C      1  0.4256800000000  0.4822420000000  0.4706610000000 1.0
C      1  0.4455060000000  0.5304410000000  0.5272540000000 1.0
C      1  0.5196620000000  0.5688630000000  0.4728280000000 1.0
C      1  0.5752360000000  0.5134050000000  0.5184200000000 1.0
C      1  0.5535460000000  0.4535230000000  0.4783860000000 1.0
C      1  0.5201850000000  0.4518710000000  0.5604170000000 1.0
C      1  0.4742060000000  0.4571520000000  0.4400420000000 1.0
C      1  0.4509930000000  0.5041400000000  0.5699940000000 1.0
C      1  0.4845880000000  0.5421340000000  0.4422040000000 1.0
C      1  0.5236730000000  0.5511430000000  0.5553430000000 1.0
C      1  0.5516060000000  0.4988950000000  0.4419830000000 1.0
C      1  0.4932320000000  0.5525610000000  0.5431180000000 1.0
C      1  0.5386630000000  0.5292860000000  0.4464710000000 1.0
C      1  0.5428670000000  0.4739130000000  0.5518840000000 1.0
C      1  0.5077080000000  0.4557840000000  0.4456900000000 1.0
C      1  0.4609280000000  0.4750510000000  0.5610000000000 1.0
C      1  0.4587490000000  0.5214340000000  0.4437470000000 1.0
C      1  0.5524080000000  0.4671750000000  0.5817030000000 1.0
C      1  0.5092880000000  0.4317740000000  0.4216620000000 1.0
C      1  0.4389440000000  0.4655080000000  0.5839690000000 1.0
C      1  0.4385120000000  0.5365540000000  0.4225540000000 1.0
C      1  0.5003700000000  0.5655090000000  0.5730000000000 1.0
C      1  0.5602310000000  0.5433830000000  0.4242810000000 1.0
C      1  0.5495200000000  0.5753520000000  0.4877530000000 1.0
C      1  0.5954900000000  0.4929520000000  0.5043780000000 1.0
C      1  0.5418170000000  0.4227470000000  0.4868570000000 1.0
C      1  0.4564100000000  0.4091710000000  0.5060320000000 1.0
C      1  0.4211330000000  0.5095650000000  0.4539050000000 1.0
C      1  0.4579730000000  0.5756830000000  0.5108150000000 1.0
C      1  0.5535960000000  0.5261430000000  0.5928470000000 1.0
C      1  0.5428670000000  0.4502530000000  0.4105320000000 1.0
C      1  0.4848110000000  0.4411340000000  0.5903920000000 1.0
C      1  0.4302350000000  0.4772980000000  0.4007580000000 1.0
C      1  0.4601950000000  0.5467400000000  0.5999550000000 1.0
C      1  0.5061100000000  0.5856540000000  0.3984290000000 1.0
C      1  0.4769990000000  0.4733450000000  0.4027520000000 1.0
C      1  0.4757660000000  0.4967990000000  0.6041440000000 1.0
C      1  0.4904110000000  0.5414890000000  0.4014960000000 1.0
C      1  0.5191260000000  0.5385050000000  0.6066770000000 1.0
C      1  0.5424170000000  0.4955250000000  0.4024210000000 1.0
C      1  0.4997430000000  0.4739990000000  0.6095400000000 1.0
C      1  0.5246390000000  0.4756800000000  0.4238800000000 1.0
C      1  0.4896190000000  0.4718740000000  0.5766790000000 1.0
C      1  0.4743950000000  0.4994760000000  0.4220370000000 1.0
C      1  0.4859650000000  0.5194490000000  0.5809220000000 1.0
C      1  0.5166500000000  0.5323680000000  0.4207270000000 1.0
C      1  0.5265870000000  0.5072500000000  0.5958020000000 1.0
C      1  0.4255600000000  0.5668770000000  0.4582570000000 1.0
C      1  0.5248910000000  0.5989430000000  0.5408690000000 1.0
C      1  0.5965440000000  0.5201510000000  0.4486770000000 1.0
C      1  0.5698670000000  0.4321150000000  0.5569020000000 1.0
C      1  0.4762500000000  0.4029990000000  0.4444010000000 1.0
C      1  0.4001090000000  0.4805100000000  0.5563160000000 1.0
C      1  0.5609050000000  0.4616140000000  0.5314320000000 1.0
C      1  0.5143300000000  0.4318880000000  0.4690520000000 1.0
C      1  0.4446470000000  0.4608810000000  0.5350430000000 1.0
C      1  0.4416330000000  0.5297840000000  0.4719270000000 1.0
C      1  0.4861920000000  0.5754840000000  0.5256410000000 1.0
C      1  0.5541880000000  0.5467100000000  0.4699860000000 1.0
C      1  0.5904280000000  0.5141180000000  0.4800440000000 1.0
C      1  0.5591240000000  0.4334270000000  0.5124930000000 1.0
C      1  0.4666640000000  0.4086330000000  0.4751660000000 1.0
C      1  0.4148230000000  0.4759620000000  0.5297420000000 1.0
C      1  0.4417950000000  0.5719840000000  0.4856220000000 1.0
C      1  0.5288460000000  0.5830250000000  0.5111160000000 1.0
C      1  0.5057090000000  0.5025670000000  0.4329450000000 1.0
C      1  0.5088610000000  0.4977290000000  0.5682220000000 1.0
END
