TITL C-3289330-4660-634 -0.00185686582113847 125000 -333.287490499299 0 0 55 (C1) n - 1
REM
REM in /nfs/bkarasulu/CARBON/AIRSS/Generating-Clusters/AIREBO/with-SteepDescent/Higher-Symm/SD-CG/HFTN-CG
REM
REM
REM
REM
REM
REM ./C.cell (b20cbc046b6831c77cfcea5457e17084)
REM
REM compiler GCC version 9.2.1 20190827 (Red Hat 9.2.1-1)
REM options -cpp -mtune=generic -march=x86-64 -g -O0 -fpre-include=/usr/include/finclude/math-vector-fortran.h
REM seed 396698481 345398119 -1774694852 -1196078536 -387963126 859320421 1243162823 2099764111 1685350630 971664343 -1417415545 558003976 -62324765 -748377753 -1548762736 404759272 -1709696885 93647826 1564903219 2009928875 353812420 980110152 853379820 -1563426944 115132604 513126351 1792012042 -55988554 34677471 354551082 116489953 96168459 -1525276719
REM
CELL 1.54180   50.00000   50.00000   50.00000   90.00000   90.00000   90.00000
LATT -1
SFAC C  
C      1  0.5496670000000  0.4975410000000  0.5674090000000 1.0
C      1  0.5397820000000  0.5229130000000  0.5742560000000 1.0
C      1  0.5191300000000  0.5345190000000  0.5591130000000 1.0
C      1  0.4924430000000  0.5408700000000  0.5659210000000 1.0
C      1  0.4719240000000  0.5351680000000  0.5471690000000 1.0
C      1  0.4540000000000  0.5137620000000  0.5497360000000 1.0
C      1  0.4535170000000  0.4966270000000  0.5721170000000 1.0
C      1  0.4673650000000  0.4721920000000  0.5697010000000 1.0
C      1  0.4861020000000  0.4622300000000  0.5884210000000 1.0
C      1  0.5125750000000  0.4583920000000  0.5798380000000 1.0
C      1  0.5407690000000  0.4723070000000  0.5824760000000 1.0
C      1  0.4680140000000  0.4331220000000  0.4644490000000 1.0
C      1  0.4997260000000  0.4095350000000  0.5064070000000 1.0
C      1  0.5120040000000  0.4681830000000  0.4707910000000 1.0
C      1  0.5552860000000  0.4247620000000  0.5013640000000 1.0
C      1  0.5791870000000  0.4831710000000  0.4950720000000 1.0
C      1  0.5756670000000  0.5092410000000  0.4866810000000 1.0
C      1  0.5540430000000  0.5597250000000  0.4630380000000 1.0
C      1  0.4928270000000  0.5563460000000  0.4691710000000 1.0
C      1  0.4662130000000  0.5517230000000  0.4752580000000 1.0
C      1  0.4178880000000  0.5163440000000  0.4884820000000 1.0
C      1  0.4234650000000  0.4570320000000  0.4888450000000 1.0
C      1  0.4798970000000  0.4915240000000  0.4428920000000 1.0
C      1  0.5061590000000  0.4856340000000  0.4501840000000 1.0
C      1  0.5259250000000  0.4973620000000  0.4343020000000 1.0
C      1  0.5364180000000  0.5191690000000  0.4224630000000 1.0
C      1  0.5335210000000  0.5389750000000  0.4043800000000 1.0
C      1  0.5184600000000  0.5599630000000  0.3964430000000 1.0
C      1  0.4932250000000  0.5671130000000  0.3897310000000 1.0
C      1  0.4678170000000  0.5658480000000  0.3990630000000 1.0
C      1  0.4502300000000  0.5480750000000  0.4094890000000 1.0
C      1  0.4480520000000  0.5292040000000  0.4287070000000 1.0
C      1  0.4576780000000  0.5062100000000  0.4390700000000 1.0
C      1  0.5135460000000  0.5498040000000  0.4871930000000 1.0
C      1  0.4589810000000  0.5393340000000  0.4995830000000 1.0
C      1  0.4400550000000  0.5189210000000  0.5035470000000 1.0
C      1  0.4479850000000  0.4580480000000  0.5001010000000 1.0
C      1  0.4690660000000  0.4430900000000  0.4900990000000 1.0
C      1  0.4945770000000  0.4376100000000  0.5061850000000 1.0
C      1  0.5176440000000  0.4529250000000  0.4930130000000 1.0
C      1  0.5440770000000  0.4494010000000  0.5023770000000 1.0
C      1  0.5594640000000  0.4713060000000  0.5112560000000 1.0
C      1  0.5537910000000  0.5244710000000  0.4958730000000 1.0
C      1  0.5407620000000  0.5448300000000  0.4812030000000 1.0
C      1  0.5134960000000  0.4477980000000  0.5508120000000 1.0
C      1  0.5393560000000  0.4632430000000  0.5507950000000 1.0
C      1  0.5494770000000  0.4901900000000  0.5342120000000 1.0
C      1  0.5429010000000  0.5169080000000  0.5204210000000 1.0
C      1  0.5236380000000  0.5335570000000  0.5313760000000 1.0
C      1  0.5050390000000  0.5447620000000  0.5135850000000 1.0
C      1  0.4777180000000  0.5430640000000  0.5205430000000 1.0
C      1  0.4460170000000  0.5013680000000  0.5252370000000 1.0
C      1  0.4527910000000  0.4740910000000  0.5227770000000 1.0
C      1  0.4692940000000  0.4625790000000  0.5428690000000 1.0
C      1  0.4913470000000  0.4479170000000  0.5345030000000 1.0
END
