TITL C-3289324-3781-149 0.00124912642598778 125000 -184.082250272296 0 0 35 (C1) n - 1
REM
REM in /nfs/bkarasulu/CARBON/AIRSS/Generating-Clusters/AIREBO/with-SteepDescent/Higher-Symm/SD-CG/HFTN-CG
REM
REM
REM
REM
REM
REM ./C.cell (b20cbc046b6831c77cfcea5457e17084)
REM
REM compiler GCC version 9.2.1 20190827 (Red Hat 9.2.1-1)
REM options -cpp -mtune=generic -march=x86-64 -g -O0 -fpre-include=/usr/include/finclude/math-vector-fortran.h
REM seed -1323399763 1639019144 517380195 2097350432 -1162279041 1958260146 1809661814 2147225366 2047568198 -1376374805 -826695180 -1500308892 1870629469 -268020430 2091600408 -986121157 -549093407 -1137575620 -2141829432 -2131190865 -1881367148 716856558 163734579 -718727523 1062382046 -1022148349 -887837619 994231005 548595313 910967639 352171452 762162908 92883742
REM
CELL 1.54180   50.00000   50.00000   50.00000   90.00000   90.00000   90.00000
LATT -1
SFAC C  
C      1  0.5138610000000  0.4843480000000  0.4743320000000 1.0
C      1  0.5074510000000  0.4798540000000  0.5303950000000 1.0
C      1  0.5268430000000  0.4570980000000  0.5156670000000 1.0
C      1  0.5330360000000  0.4591470000000  0.4832950000000 1.0
C      1  0.4636420000000  0.4825240000000  0.5139650000000 1.0
C      1  0.4611450000000  0.4814130000000  0.4861060000000 1.0
C      1  0.4797930000000  0.4588300000000  0.4712130000000 1.0
C      1  0.4749410000000  0.4566180000000  0.5301890000000 1.0
C      1  0.5361460000000  0.5056910000000  0.4886110000000 1.0
C      1  0.5531210000000  0.5000270000000  0.5114570000000 1.0
C      1  0.4759900000000  0.5440450000000  0.5209730000000 1.0
C      1  0.4699630000000  0.5426720000000  0.4722580000000 1.0
C      1  0.4994360000000  0.5291890000000  0.4680440000000 1.0
C      1  0.5047860000000  0.5307370000000  0.5199320000000 1.0
C      1  0.4455210000000  0.5011270000000  0.4639920000000 1.0
C      1  0.4552580000000  0.5040480000000  0.5378850000000 1.0
C      1  0.4514730000000  0.5263790000000  0.4859910000000 1.0
C      1  0.4557710000000  0.5265100000000  0.5134860000000 1.0
C      1  0.5179740000000  0.5247540000000  0.4426230000000 1.0
C      1  0.5214020000000  0.5310910000000  0.5455780000000 1.0
C      1  0.5258030000000  0.5048210000000  0.5551790000000 1.0
C      1  0.5252890000000  0.4982530000000  0.4389430000000 1.0
C      1  0.5361670000000  0.5573140000000  0.4900560000000 1.0
C      1  0.5310330000000  0.5542580000000  0.5563170000000 1.0
C      1  0.4739340000000  0.4791830000000  0.5520900000000 1.0
C      1  0.4684670000000  0.4802530000000  0.4472310000000 1.0
C      1  0.5006110000000  0.4801740000000  0.4448630000000 1.0
C      1  0.5005920000000  0.4880420000000  0.5627310000000 1.0
C      1  0.4872950000000  0.5042700000000  0.5240170000000 1.0
C      1  0.4796390000000  0.5040770000000  0.4687700000000 1.0
C      1  0.5455550000000  0.4847050000000  0.4629000000000 1.0
C      1  0.5406150000000  0.4860490000000  0.5339370000000 1.0
C      1  0.5008370000000  0.4487560000000  0.4868280000000 1.0
C      1  0.4959350000000  0.4440240000000  0.5169620000000 1.0
C      1  0.5193400000000  0.5318030000000  0.4925540000000 1.0
END
