TITL C-3289320-4661-91 1306.2237622789 125000 -1115.42839536298 0 0 196 (C1) n - 1
REM
REM in /nfs/bkarasulu/CARBON/AIRSS/Generating-Clusters/AIREBO/with-SteepDescent/Higher-Symm/SD-CG/HFTN-CG
REM
REM
REM
REM
REM
REM ./C.cell (b20cbc046b6831c77cfcea5457e17084)
REM
REM compiler GCC version 9.2.1 20190827 (Red Hat 9.2.1-1)
REM options -cpp -mtune=generic -march=x86-64 -g -O0 -fpre-include=/usr/include/finclude/math-vector-fortran.h
REM seed -1893338976 -1098241119 1119634437 -159942363 991308579 -646832472 -1998792352 -2067999525 -647776660 1526751050 -360124221 1104499959 -540218348 -2061081007 -1575050361 -491030310 1806504369 1457477212 -1722792533 -1579892951 1466447127 1815573978 1619142927 979296200 457708091 -139613808 -1106686539 1588048986 -571716393 400218919 969904693 -2145853155 -1584541819
REM
CELL 1.54180   50.00000   50.00000   50.00000   90.00000   90.00000   90.00000
LATT -1
SFAC C  
C      1  0.4500000000000  0.4998720000000  0.4760860000000 1.0
C      1  0.4834870000000  0.4583090000000  0.4985850000000 1.0
C      1  0.5002340000000  0.4848790000000  0.4559180000000 1.0
C      1  0.5429950000000  0.4975360000000  0.4777090000000 1.0
C      1  0.5465690000000  0.5032430000000  0.5167120000000 1.0
C      1  0.4631970000000  0.5023540000000  0.5200080000000 1.0
C      1  0.5247430000000  0.5478390000000  0.5005390000000 1.0
C      1  0.5283090000000  0.4495880000000  0.5124420000000 1.0
C      1  0.4698300000000  0.5509110000000  0.4938630000000 1.0
C      1  0.4958890000000  0.5244340000000  0.4574110000000 1.0
C      1  0.5063040000000  0.4780770000000  0.5468340000000 1.0
C      1  0.4960340000000  0.5254950000000  0.5504790000000 1.0
C      1  0.5000890000000  0.4591800000000  0.4721340000000 1.0
C      1  0.4562020000000  0.4760820000000  0.4995800000000 1.0
C      1  0.4732120000000  0.4992640000000  0.4531630000000 1.0
C      1  0.4980370000000  0.5472410000000  0.4794880000000 1.0
C      1  0.5034940000000  0.5467950000000  0.5271170000000 1.0
C      1  0.5010530000000  0.4557220000000  0.5244590000000 1.0
C      1  0.5477920000000  0.5251360000000  0.4939530000000 1.0
C      1  0.4534620000000  0.5255770000000  0.4981930000000 1.0
C      1  0.5470750000000  0.4746190000000  0.5027810000000 1.0
C      1  0.5245460000000  0.5065630000000  0.4533700000000 1.0
C      1  0.4830370000000  0.4986290000000  0.5442330000000 1.0
C      1  0.5335540000000  0.4959390000000  0.5436790000000 1.0
C      1  0.4868360000000  0.5838460000000  0.5658190000000 1.0
C      1  0.5663910000000  0.4842650000000  0.5885630000000 1.0
C      1  0.5860770000000  0.5639180000000  0.4916150000000 1.0
C      1  0.5084470000000  0.4126250000000  0.5666780000000 1.0
C      1  0.5119720000000  0.5865850000000  0.4358330000000 1.0
C      1  0.4851840000000  0.4119820000000  0.4360480000000 1.0
C      1  0.4302550000000  0.5110500000000  0.5889000000000 1.0
C      1  0.4265080000000  0.4908800000000  0.4126690000000 1.0
C      1  0.5629950000000  0.5174340000000  0.4167180000000 1.0
C      1  0.4186660000000  0.4363680000000  0.4839490000000 1.0
C      1  0.4112470000000  0.5623200000000  0.5101800000000 1.0
C      1  0.5849250000000  0.4329490000000  0.5158720000000 1.0
C      1  0.5892210000000  0.4956970000000  0.5672310000000 1.0
C      1  0.4984170000000  0.5633710000000  0.5870410000000 1.0
C      1  0.5626040000000  0.5861760000000  0.4892640000000 1.0
C      1  0.4181530000000  0.5138290000000  0.5581000000000 1.0
C      1  0.5822100000000  0.5061720000000  0.4407130000000 1.0
C      1  0.3983930000000  0.4968970000000  0.4292400000000 1.0
C      1  0.5136130000000  0.4357920000000  0.5898680000000 1.0
C      1  0.4962750000000  0.4368580000000  0.4194750000000 1.0
C      1  0.5006520000000  0.5657170000000  0.4119970000000 1.0
C      1  0.4379410000000  0.4109930000000  0.4873000000000 1.0
C      1  0.5627370000000  0.4127400000000  0.5085280000000 1.0
C      1  0.4354950000000  0.5822280000000  0.5055330000000 1.0
C      1  0.5953830000000  0.5234590000000  0.5582200000000 1.0
C      1  0.5568780000000  0.5922530000000  0.5203860000000 1.0
C      1  0.5248420000000  0.5539620000000  0.5860500000000 1.0
C      1  0.4028060000000  0.4834980000000  0.5593150000000 1.0
C      1  0.3894110000000  0.5227480000000  0.4291500000000 1.0
C      1  0.5936140000000  0.4782080000000  0.4431310000000 1.0
C      1  0.4411680000000  0.4059680000000  0.5190280000000 1.0
C      1  0.4390910000000  0.5922400000000  0.4778940000000 1.0
C      1  0.5588790000000  0.4104550000000  0.4795790000000 1.0
C      1  0.4799430000000  0.4404480000000  0.5912150000000 1.0
C      1  0.4721510000000  0.5595590000000  0.4059280000000 1.0
C      1  0.5220650000000  0.4466160000000  0.4208910000000 1.0
C      1  0.5203440000000  0.5881810000000  0.5626080000000 1.0
C      1  0.5985000000000  0.5625550000000  0.5208730000000 1.0
C      1  0.5630650000000  0.5181250000000  0.5901320000000 1.0
C      1  0.4774720000000  0.4075330000000  0.5624500000000 1.0
C      1  0.5182140000000  0.4142320000000  0.4440510000000 1.0
C      1  0.4786390000000  0.5922410000000  0.4320950000000 1.0
C      1  0.4162960000000  0.4410370000000  0.5159120000000 1.0
C      1  0.6004440000000  0.4382130000000  0.4858820000000 1.0
C      1  0.4062670000000  0.5565950000000  0.4790060000000 1.0
C      1  0.4422280000000  0.4811920000000  0.5844450000000 1.0
C      1  0.5662670000000  0.4839800000000  0.4115960000000 1.0
C      1  0.4348960000000  0.5214350000000  0.4090770000000 1.0
C      1  0.4089330000000  0.4373020000000  0.4521730000000 1.0
C      1  0.4519690000000  0.4178280000000  0.4334940000000 1.0
C      1  0.4253080000000  0.4569310000000  0.4110810000000 1.0
C      1  0.5857430000000  0.5740400000000  0.4594340000000 1.0
C      1  0.5818660000000  0.4225770000000  0.5481160000000 1.0
C      1  0.4169630000000  0.5680180000000  0.5411000000000 1.0
C      1  0.5431760000000  0.5869750000000  0.4345450000000 1.0
C      1  0.5407680000000  0.4095200000000  0.5767670000000 1.0
C      1  0.4558870000000  0.5825990000000  0.5695060000000 1.0
C      1  0.5738610000000  0.5479900000000  0.4157560000000 1.0
C      1  0.5690080000000  0.4520680000000  0.5900870000000 1.0
C      1  0.4268600000000  0.5434150000000  0.5833260000000 1.0
C      1  0.4321370000000  0.4142610000000  0.4537930000000 1.0
C      1  0.4092160000000  0.4658930000000  0.4383550000000 1.0
C      1  0.4480230000000  0.4405500000000  0.4157750000000 1.0
C      1  0.5607940000000  0.5916060000000  0.4557040000000 1.0
C      1  0.4419310000000  0.5814520000000  0.5449780000000 1.0
C      1  0.5667190000000  0.4020550000000  0.5580120000000 1.0
C      1  0.5941640000000  0.5558270000000  0.4371190000000 1.0
C      1  0.4111630000000  0.5471610000000  0.5583010000000 1.0
C      1  0.5845110000000  0.4436990000000  0.5661600000000 1.0
C      1  0.5525650000000  0.5659400000000  0.4157330000000 1.0
C      1  0.4502830000000  0.5585040000000  0.5850030000000 1.0
C      1  0.5467290000000  0.4353230000000  0.5970510000000 1.0
C      1  0.5070720000000  0.6006480000000  0.5192750000000 1.0
C      1  0.5274670000000  0.5058990000000  0.5967600000000 1.0
C      1  0.5972890000000  0.5170390000000  0.4942310000000 1.0
C      1  0.4892130000000  0.4045810000000  0.5229600000000 1.0
C      1  0.4919930000000  0.6022290000000  0.4828180000000 1.0
C      1  0.5039760000000  0.4043620000000  0.4786620000000 1.0
C      1  0.4800790000000  0.5003730000000  0.6087540000000 1.0
C      1  0.4665130000000  0.4948350000000  0.4019820000000 1.0
C      1  0.5130630000000  0.5053650000000  0.4042480000000 1.0
C      1  0.4159880000000  0.4745810000000  0.4943930000000 1.0
C      1  0.4033490000000  0.5105140000000  0.5056730000000 1.0
C      1  0.5983950000000  0.4678530000000  0.5024360000000 1.0
C      1  0.5950150000000  0.4973150000000  0.5192410000000 1.0
C      1  0.4996560000000  0.5227700000000  0.5929570000000 1.0
C      1  0.5225920000000  0.5990290000000  0.4928110000000 1.0
C      1  0.4110400000000  0.4863340000000  0.5217310000000 1.0
C      1  0.5981240000000  0.4913610000000  0.4804480000000 1.0
C      1  0.4003220000000  0.4987630000000  0.4775820000000 1.0
C      1  0.5051410000000  0.4846860000000  0.6017760000000 1.0
C      1  0.4939820000000  0.4783130000000  0.3989900000000 1.0
C      1  0.4861900000000  0.5166820000000  0.4058920000000 1.0
C      1  0.4770620000000  0.4049910000000  0.4957830000000 1.0
C      1  0.5148010000000  0.4030010000000  0.5082940000000 1.0
C      1  0.4756040000000  0.5996240000000  0.5088730000000 1.0
C      1  0.5776050000000  0.4706870000000  0.5508900000000 1.0
C      1  0.5345220000000  0.5709550000000  0.4776000000000 1.0
C      1  0.4769320000000  0.5402040000000  0.5744600000000 1.0
C      1  0.4412540000000  0.5231470000000  0.5359140000000 1.0
C      1  0.4242450000000  0.4871570000000  0.4578700000000 1.0
C      1  0.5738610000000  0.5357430000000  0.4537130000000 1.0
C      1  0.4625220000000  0.4329190000000  0.4900980000000 1.0
C      1  0.4633430000000  0.5703210000000  0.5210170000000 1.0
C      1  0.5365620000000  0.4195100000000  0.5204110000000 1.0
C      1  0.5082110000000  0.4649450000000  0.5782610000000 1.0
C      1  0.5261220000000  0.5502540000000  0.4244070000000 1.0
C      1  0.4742330000000  0.4601790000000  0.4203330000000 1.0
C      1  0.4936950000000  0.5761000000000  0.5354950000000 1.0
C      1  0.5759780000000  0.5354700000000  0.4846470000000 1.0
C      1  0.5363320000000  0.4816650000000  0.5744100000000 1.0
C      1  0.5343630000000  0.4283420000000  0.5501710000000 1.0
C      1  0.4851280000000  0.4294180000000  0.4652380000000 1.0
C      1  0.5036390000000  0.5775820000000  0.4650100000000 1.0
C      1  0.4395050000000  0.4612100000000  0.4736830000000 1.0
C      1  0.5725200000000  0.4643010000000  0.5205480000000 1.0
C      1  0.4229060000000  0.5324750000000  0.5099700000000 1.0
C      1  0.4608010000000  0.5157990000000  0.5918030000000 1.0
C      1  0.5319220000000  0.5181560000000  0.4242620000000 1.0
C      1  0.4551200000000  0.4864050000000  0.4304840000000 1.0
C      1  0.5910960000000  0.4506660000000  0.4341270000000 1.0
C      1  0.4269590000000  0.5886610000000  0.4502090000000 1.0
C      1  0.4496690000000  0.4326560000000  0.5895890000000 1.0
C      1  0.4018240000000  0.5496820000000  0.4278930000000 1.0
C      1  0.4103160000000  0.4530480000000  0.5646930000000 1.0
C      1  0.5913630000000  0.5493890000000  0.5685870000000 1.0
C      1  0.5696600000000  0.4112540000000  0.4539990000000 1.0
C      1  0.5690620000000  0.5901730000000  0.5481140000000 1.0
C      1  0.4296620000000  0.4083350000000  0.5494810000000 1.0
C      1  0.5502390000000  0.5665500000000  0.5890030000000 1.0
C      1  0.5471670000000  0.4345680000000  0.4161070000000 1.0
C      1  0.4453600000000  0.5691580000000  0.4081410000000 1.0
C      1  0.4453410000000  0.5908800000000  0.4282940000000 1.0
C      1  0.5914680000000  0.4301830000000  0.4540320000000 1.0
C      1  0.4310630000000  0.4544830000000  0.5853040000000 1.0
C      1  0.5486820000000  0.4108260000000  0.4336750000000 1.0
C      1  0.4501270000000  0.4102700000000  0.5704930000000 1.0
C      1  0.5510370000000  0.5909590000000  0.5710280000000 1.0
C      1  0.4048010000000  0.5686980000000  0.4502960000000 1.0
C      1  0.5902840000000  0.5704920000000  0.5489580000000 1.0
C      1  0.4121010000000  0.4322890000000  0.5440440000000 1.0
C      1  0.5719950000000  0.5472810000000  0.5901460000000 1.0
C      1  0.4240900000000  0.5489950000000  0.4085110000000 1.0
C      1  0.5694270000000  0.4524940000000  0.4142360000000 1.0
C      1  0.5526540000000  0.4788160000000  0.4392070000000 1.0
C      1  0.4320430000000  0.5466050000000  0.4692760000000 1.0
C      1  0.4836620000000  0.4323990000000  0.5401020000000 1.0
C      1  0.4504880000000  0.5259450000000  0.4326850000000 1.0
C      1  0.4620130000000  0.4804070000000  0.5593870000000 1.0
C      1  0.5486620000000  0.5176750000000  0.5622690000000 1.0
C      1  0.5698570000000  0.4510130000000  0.4801740000000 1.0
C      1  0.5723160000000  0.5449150000000  0.5240020000000 1.0
C      1  0.4409350000000  0.4599740000000  0.5220260000000 1.0
C      1  0.5324050000000  0.5641170000000  0.5482330000000 1.0
C      1  0.5235560000000  0.4397530000000  0.4615130000000 1.0
C      1  0.4707910000000  0.5656790000000  0.4458020000000 1.0
C      1  0.4797510000000  0.5370160000000  0.4302260000000 1.0
C      1  0.5425270000000  0.4382220000000  0.4852840000000 1.0
C      1  0.4335660000000  0.4792640000000  0.5454580000000 1.0
C      1  0.5257640000000  0.4679760000000  0.4429820000000 1.0
C      1  0.4732980000000  0.4523460000000  0.5640590000000 1.0
C      1  0.5250570000000  0.5368170000000  0.5592300000000 1.0
C      1  0.4550450000000  0.5655060000000  0.4706510000000 1.0
C      1  0.5468850000000  0.5614530000000  0.5222340000000 1.0
C      1  0.4534630000000  0.4326100000000  0.5287480000000 1.0
C      1  0.5709080000000  0.5137350000000  0.5367140000000 1.0
C      1  0.4392900000000  0.5240500000000  0.4572480000000 1.0
C      1  0.5697550000000  0.4793030000000  0.4673380000000 1.0
C      1  0.5477230000000  0.4553210000000  0.5561780000000 1.0
C      1  0.5455560000000  0.5513070000000  0.4522910000000 1.0
C      1  0.4610090000000  0.5463070000000  0.5450130000000 1.0
C      1  0.4655110000000  0.4541910000000  0.4526650000000 1.0
END
