TITL C-3289329-2751-45 0.000741958751973351 125000 -959.716324296704 0 0 183 (C1) n - 1
REM
REM in /nfs/bkarasulu/CARBON/AIRSS/Generating-Clusters/AIREBO/with-SteepDescent/Higher-Symm/SD-CG/HFTN-CG
REM
REM
REM
REM
REM
REM ./C.cell (b20cbc046b6831c77cfcea5457e17084)
REM
REM compiler GCC version 9.2.1 20190827 (Red Hat 9.2.1-1)
REM options -cpp -mtune=generic -march=x86-64 -g -O0 -fpre-include=/usr/include/finclude/math-vector-fortran.h
REM seed 2051128170 -857429571 217713682 156966867 709503125 -1615185963 581213058 -1224625226 765248138 -2039896628 132255522 -420354398 -417360124 452961159 -409873642 503517858 -92788372 -823491044 -1470605764 -656219780 -73934743 1390541205 359875064 -783958402 -2142766086 -26177291 -1717278149 919916367 -59182822 -1697439723 1706600179 1085565643 -102090312
REM
CELL 1.54180   50.00000   50.00000   50.00000   90.00000   90.00000   90.00000
LATT -1
SFAC C  
C      1  0.5418960000000  0.4968610000000  0.5015790000000 1.0
C      1  0.4860820000000  0.5375060000000  0.5048140000000 1.0
C      1  0.4674540000000  0.4644980000000  0.5097250000000 1.0
C      1  0.5763710000000  0.4348630000000  0.4297880000000 1.0
C      1  0.5094130000000  0.6029910000000  0.4260100000000 1.0
C      1  0.4097340000000  0.4576380000000  0.4268570000000 1.0
C      1  0.4500120000000  0.5858580000000  0.5247200000000 1.0
C      1  0.4479880000000  0.4152280000000  0.5240520000000 1.0
C      1  0.6077650000000  0.4940250000000  0.5141070000000 1.0
C      1  0.4123170000000  0.4834590000000  0.6095220000000 1.0
C      1  0.5665160000000  0.4427350000000  0.6233830000000 1.0
C      1  0.5278280000000  0.5701560000000  0.5875260000000 1.0
C      1  0.5037000000000  0.5235810000000  0.4860380000000 1.0
C      1  0.4834060000000  0.4911910000000  0.5004400000000 1.0
C      1  0.5147640000000  0.4914490000000  0.4872880000000 1.0
C      1  0.5320630000000  0.5326070000000  0.5261600000000 1.0
C      1  0.4542650000000  0.5076660000000  0.5275020000000 1.0
C      1  0.5172250000000  0.4585700000000  0.5311870000000 1.0
C      1  0.4231000000000  0.5373130000000  0.4264780000000 1.0
C      1  0.5009330000000  0.4163650000000  0.4301160000000 1.0
C      1  0.5695560000000  0.5445340000000  0.4307970000000 1.0
C      1  0.4858570000000  0.4137950000000  0.5115710000000 1.0
C      1  0.5863140000000  0.5274790000000  0.5106340000000 1.0
C      1  0.4297970000000  0.5528150000000  0.5149690000000 1.0
C      1  0.4979530000000  0.4355950000000  0.5829540000000 1.0
C      1  0.5644060000000  0.5209200000000  0.5893780000000 1.0
C      1  0.4427590000000  0.5343730000000  0.5808050000000 1.0
C      1  0.4862370000000  0.5821250000000  0.4909800000000 1.0
C      1  0.4289930000000  0.4443360000000  0.4899750000000 1.0
C      1  0.5859750000000  0.4782710000000  0.4923290000000 1.0
C      1  0.4624820000000  0.4874100000000  0.4238180000000 1.0
C      1  0.5436130000000  0.4750960000000  0.4220670000000 1.0
C      1  0.5028980000000  0.5502000000000  0.4146510000000 1.0
C      1  0.5176770000000  0.6184800000000  0.4763820000000 1.0
C      1  0.3860450000000  0.4561030000000  0.4710390000000 1.0
C      1  0.5868650000000  0.4201490000000  0.4793990000000 1.0
C      1  0.4620570000000  0.4558030000000  0.4617490000000 1.0
C      1  0.5584240000000  0.4928350000000  0.4576250000000 1.0
C      1  0.4760370000000  0.5605050000000  0.4531620000000 1.0
C      1  0.4700170000000  0.4241690000000  0.4695840000000 1.0
C      1  0.5808050000000  0.5180620000000  0.4597180000000 1.0
C      1  0.4506340000000  0.5606350000000  0.4704380000000 1.0
C      1  0.5367880000000  0.5319130000000  0.4498600000000 1.0
C      1  0.4609670000000  0.5213820000000  0.4531560000000 1.0
C      1  0.5149800000000  0.4525110000000  0.4556840000000 1.0
C      1  0.4821700000000  0.5288460000000  0.3886450000000 1.0
C      1  0.4778430000000  0.4679060000000  0.3931830000000 1.0
C      1  0.5336000000000  0.4998540000000  0.3928230000000 1.0
C      1  0.4826290000000  0.4113740000000  0.5646440000000 1.0
C      1  0.5898620000000  0.5207600000000  0.5667810000000 1.0
C      1  0.4298360000000  0.5620360000000  0.5662760000000 1.0
C      1  0.4336700000000  0.4381740000000  0.5408600000000 1.0
C      1  0.5872640000000  0.4778310000000  0.5322850000000 1.0
C      1  0.4751630000000  0.5848020000000  0.5427270000000 1.0
C      1  0.6041680000000  0.5391220000000  0.4842620000000 1.0
C      1  0.4151850000000  0.5660340000000  0.4875160000000 1.0
C      1  0.4815300000000  0.3916830000000  0.4896280000000 1.0
C      1  0.5351550000000  0.5288650000000  0.4786710000000 1.0
C      1  0.4604430000000  0.5117650000000  0.4860720000000 1.0
C      1  0.5098370000000  0.4578550000000  0.4852940000000 1.0
C      1  0.4191870000000  0.5172040000000  0.5669930000000 1.0
C      1  0.5212590000000  0.4514080000000  0.5639600000000 1.0
C      1  0.5483240000000  0.5420250000000  0.5681000000000 1.0
C      1  0.5305680000000  0.3686260000000  0.4744480000000 1.0
C      1  0.5956000000000  0.5973460000000  0.4789590000000 1.0
C      1  0.3714480000000  0.5381110000000  0.4652830000000 1.0
C      1  0.5346960000000  0.5624470000000  0.5134470000000 1.0
C      1  0.4222550000000  0.5010980000000  0.5179220000000 1.0
C      1  0.5320450000000  0.4377410000000  0.5117310000000 1.0
C      1  0.5400500000000  0.4584890000000  0.4485340000000 1.0
C      1  0.5298650000000  0.5609900000000  0.4441880000000 1.0
C      1  0.4466540000000  0.4945840000000  0.4507970000000 1.0
C      1  0.5007690000000  0.6024810000000  0.5520220000000 1.0
C      1  0.4107870000000  0.4563130000000  0.5554160000000 1.0
C      1  0.5759850000000  0.4555520000000  0.5529200000000 1.0
C      1  0.5663790000000  0.5731020000000  0.5097860000000 1.0
C      1  0.3987340000000  0.5180880000000  0.5000630000000 1.0
C      1  0.5253860000000  0.4055560000000  0.5062000000000 1.0
C      1  0.4633820000000  0.4484260000000  0.4170500000000 1.0
C      1  0.5667840000000  0.5040200000000  0.4003440000000 1.0
C      1  0.4643170000000  0.5560170000000  0.3985960000000 1.0
C      1  0.5201090000000  0.4509200000000  0.6038090000000 1.0
C      1  0.5356580000000  0.5267700000000  0.6065940000000 1.0
C      1  0.4534790000000  0.5078690000000  0.5975190000000 1.0
C      1  0.5628140000000  0.4920320000000  0.5721990000000 1.0
C      1  0.4758500000000  0.5397540000000  0.5826250000000 1.0
C      1  0.4735250000000  0.4545800000000  0.5773110000000 1.0
C      1  0.4675980000000  0.4200350000000  0.4359010000000 1.0
C      1  0.5868120000000  0.5170610000000  0.4249110000000 1.0
C      1  0.4359230000000  0.5586210000000  0.4032070000000 1.0
C      1  0.3765880000000  0.4700660000000  0.4975830000000 1.0
C      1  0.5741640000000  0.4025220000000  0.5036580000000 1.0
C      1  0.5352000000000  0.6164770000000  0.5039140000000 1.0
C      1  0.5137030000000  0.4896290000000  0.4292620000000 1.0
C      1  0.5117100000000  0.5228560000000  0.4309900000000 1.0
C      1  0.4855040000000  0.4921140000000  0.4420300000000 1.0
C      1  0.4046590000000  0.5363310000000  0.5242230000000 1.0
C      1  0.5104230000000  0.4137920000000  0.5350860000000 1.0
C      1  0.5785340000000  0.5542450000000  0.5301060000000 1.0
C      1  0.6034730000000  0.5051870000000  0.4822710000000 1.0
C      1  0.4552020000000  0.5820910000000  0.4964280000000 1.0
C      1  0.4472600000000  0.4201180000000  0.4945600000000 1.0
C      1  0.4473850000000  0.4752120000000  0.5350050000000 1.0
C      1  0.5450320000000  0.4776520000000  0.5267920000000 1.0
C      1  0.5017340000000  0.5459810000000  0.5337850000000 1.0
C      1  0.4730500000000  0.5396660000000  0.4271160000000 1.0
C      1  0.4880630000000  0.4527030000000  0.4400590000000 1.0
C      1  0.5487780000000  0.5080600000000  0.4287910000000 1.0
C      1  0.5695290000000  0.4577380000000  0.5136270000000 1.0
C      1  0.4985020000000  0.5774140000000  0.5210390000000 1.0
C      1  0.4227040000000  0.4593230000000  0.5178370000000 1.0
C      1  0.5249280000000  0.4191660000000  0.5588870000000 1.0
C      1  0.5726180000000  0.5558890000000  0.5589250000000 1.0
C      1  0.4026480000000  0.5296180000000  0.5498940000000 1.0
C      1  0.5857730000000  0.4321270000000  0.5096370000000 1.0
C      1  0.5038490000000  0.6062980000000  0.5038970000000 1.0
C      1  0.3974210000000  0.4445570000000  0.5005260000000 1.0
C      1  0.4982440000000  0.4870670000000  0.5307830000000 1.0
C      1  0.5265870000000  0.5029820000000  0.5400200000000 1.0
C      1  0.4853190000000  0.5165670000000  0.5386000000000 1.0
C      1  0.4528890000000  0.5392100000000  0.5356260000000 1.0
C      1  0.4888230000000  0.4400110000000  0.5334930000000 1.0
C      1  0.5616330000000  0.5248060000000  0.5338700000000 1.0
C      1  0.5245110000000  0.5576150000000  0.4864420000000 1.0
C      1  0.4367880000000  0.4927400000000  0.4916610000000 1.0
C      1  0.5417780000000  0.4529270000000  0.4878220000000 1.0
C      1  0.5162890000000  0.5039480000000  0.5985360000000 1.0
C      1  0.4821760000000  0.5021870000000  0.5947880000000 1.0
C      1  0.5023950000000  0.4748760000000  0.5960310000000 1.0
C      1  0.4351700000000  0.4835290000000  0.5929730000000 1.0
C      1  0.5519530000000  0.4573430000000  0.6045290000000 1.0
C      1  0.5206220000000  0.5509030000000  0.6068800000000 1.0
C      1  0.5813490000000  0.4369220000000  0.4578950000000 1.0
C      1  0.5114650000000  0.6034830000000  0.4542390000000 1.0
C      1  0.4057140000000  0.4615170000000  0.4531110000000 1.0
C      1  0.4257760000000  0.5018470000000  0.4177200000000 1.0
C      1  0.5298010000000  0.4267010000000  0.4146240000000 1.0
C      1  0.5455260000000  0.5685720000000  0.4168210000000 1.0
C      1  0.4847380000000  0.4428400000000  0.4939140000000 1.0
C      1  0.5625650000000  0.5178490000000  0.4884440000000 1.0
C      1  0.4558810000000  0.5421730000000  0.4959180000000 1.0
C      1  0.5812470000000  0.5756550000000  0.4832380000000 1.0
C      1  0.3959680000000  0.5338380000000  0.4742220000000 1.0
C      1  0.5201450000000  0.3918620000000  0.4806860000000 1.0
C      1  0.4939040000000  0.4778850000000  0.5632450000000 1.0
C      1  0.5271390000000  0.5164950000000  0.5689960000000 1.0
C      1  0.4936820000000  0.5156740000000  0.5678580000000 1.0
C      1  0.4672860000000  0.5002330000000  0.3930090000000 1.0
C      1  0.5102900000000  0.4756590000000  0.3984500000000 1.0
C      1  0.5161290000000  0.5288150000000  0.3917610000000 1.0
C      1  0.5054130000000  0.5735650000000  0.4642360000000 1.0
C      1  0.4327440000000  0.4688080000000  0.4680650000000 1.0
C      1  0.5671330000000  0.4627320000000  0.4686510000000 1.0
C      1  0.4745550000000  0.5534270000000  0.5528180000000 1.0
C      1  0.4647700000000  0.4493570000000  0.5486830000000 1.0
C      1  0.5655830000000  0.4964000000000  0.5447730000000 1.0
C      1  0.3840130000000  0.4918900000000  0.5126500000000 1.0
C      1  0.5524920000000  0.4157460000000  0.5243940000000 1.0
C      1  0.5431990000000  0.5934340000000  0.5225980000000 1.0
C      1  0.4206390000000  0.5504730000000  0.4577530000000 1.0
C      1  0.4963630000000  0.4041570000000  0.4616880000000 1.0
C      1  0.5831730000000  0.5519590000000  0.4610710000000 1.0
C      1  0.4707430000000  0.4051180000000  0.5407780000000 1.0
C      1  0.6001450000000  0.5155850000000  0.5393510000000 1.0
C      1  0.4285780000000  0.5739560000000  0.5415710000000 1.0
C      1  0.4487980000000  0.5218580000000  0.4112700000000 1.0
C      1  0.5037270000000  0.4453430000000  0.4125180000000 1.0
C      1  0.5432070000000  0.5364280000000  0.4108690000000 1.0
C      1  0.5231000000000  0.5597940000000  0.5563590000000 1.0
C      1  0.4275070000000  0.4854630000000  0.5606440000000 1.0
C      1  0.5511940000000  0.4471370000000  0.5742470000000 1.0
C      1  0.5253000000000  0.5899220000000  0.5479450000000 1.0
C      1  0.4011070000000  0.4850980000000  0.5392040000000 1.0
C      1  0.5631370000000  0.4263980000000  0.5500660000000 1.0
C      1  0.5604130000000  0.4876260000000  0.6013460000000 1.0
C      1  0.4919460000000  0.5480800000000  0.6083410000000 1.0
C      1  0.4529340000000  0.4586980000000  0.5964170000000 1.0
C      1  0.5534000000000  0.4433770000000  0.4144550000000 1.0
C      1  0.5151470000000  0.5799240000000  0.4125800000000 1.0
C      1  0.4362230000000  0.4693890000000  0.4165820000000 1.0
C      1  0.4808660000000  0.4796790000000  0.4685460000000 1.0
C      1  0.5267490000000  0.4944880000000  0.4590960000000 1.0
C      1  0.4979190000000  0.5348950000000  0.4577780000000 1.0
END
