TITL C-3289328-6581-406 -0.00110224900867742 125000 -263.011059638238 0 0 48 (D3) n - 1
REM
REM in /nfs/bkarasulu/CARBON/AIRSS/Generating-Clusters/AIREBO/with-SteepDescent/Higher-Symm/SD-CG/HFTN-CG
REM
REM
REM
REM
REM
REM ./C.cell (b20cbc046b6831c77cfcea5457e17084)
REM
REM compiler GCC version 9.2.1 20190827 (Red Hat 9.2.1-1)
REM options -cpp -mtune=generic -march=x86-64 -g -O0 -fpre-include=/usr/include/finclude/math-vector-fortran.h
REM seed 1788241472 518772779 -567558740 1742893312 1211562507 1514400130 -744135868 1548829335 1045902438 696302093 -1930699592 1250852884 1377060622 -659112544 -810337607 1505491707 -2039691764 666612151 325991377 1271071559 2108123462 -895003530 2046726845 1157768362 1482554431 -2108242114 96251810 -1121020745 -945945431 -1997728846 930889469 1581599414 -1589305326
REM
CELL 1.54180   50.00000   50.00000   50.00000   90.00000   90.00000   90.00000
LATT -1
SFAC C  
C      1  0.5091460000000  0.4507070000000  0.4374650000000 1.0
C      1  0.5492690000000  0.4907500000000  0.4374500000000 1.0
C      1  0.5381000000000  0.5325600000000  0.4374510000000 1.0
C      1  0.4833600000000  0.5472860000000  0.4374490000000 1.0
C      1  0.4527360000000  0.5167080000000  0.4374620000000 1.0
C      1  0.4673530000000  0.4619390000000  0.4374620000000 1.0
C      1  0.4908320000000  0.4507280000000  0.5625480000000 1.0
C      1  0.4507270000000  0.4907890000000  0.5625520000000 1.0
C      1  0.4619150000000  0.5325940000000  0.5625400000000 1.0
C      1  0.5166610000000  0.5472950000000  0.5625380000000 1.0
C      1  0.5472710000000  0.5167030000000  0.5625340000000 1.0
C      1  0.5326300000000  0.4619410000000  0.5625480000000 1.0
C      1  0.4768790000000  0.4772430000000  0.4647380000000 1.0
C      1  0.5086240000000  0.4687380000000  0.4647740000000 1.0
C      1  0.5312590000000  0.4913510000000  0.4647310000000 1.0
C      1  0.5227530000000  0.5230960000000  0.4647650000000 1.0
C      1  0.4918510000000  0.5313920000000  0.4647300000000 1.0
C      1  0.4686130000000  0.5081520000000  0.4647720000000 1.0
C      1  0.5231100000000  0.4772420000000  0.5352680000000 1.0
C      1  0.4913620000000  0.4687510000000  0.5352340000000 1.0
C      1  0.4687370000000  0.4913750000000  0.5352710000000 1.0
C      1  0.4772580000000  0.5231160000000  0.5352290000000 1.0
C      1  0.5081630000000  0.5313970000000  0.5352620000000 1.0
C      1  0.5313910000000  0.5081480000000  0.5352250000000 1.0
C      1  0.5119500000000  0.4554210000000  0.4928460000000 1.0
C      1  0.5446770000000  0.4880000000000  0.4927530000000 1.0
C      1  0.5326300000000  0.5326380000000  0.4928340000000 1.0
C      1  0.4880520000000  0.5446900000000  0.4927510000000 1.0
C      1  0.4554180000000  0.5119390000000  0.4928440000000 1.0
C      1  0.4672690000000  0.4673060000000  0.4927640000000 1.0
C      1  0.4880300000000  0.4554280000000  0.5071660000000 1.0
C      1  0.4553180000000  0.4880220000000  0.5072500000000 1.0
C      1  0.4673850000000  0.5326540000000  0.5071570000000 1.0
C      1  0.5119680000000  0.5446870000000  0.5072370000000 1.0
C      1  0.5445870000000  0.5119210000000  0.5071530000000 1.0
C      1  0.5327160000000  0.4672940000000  0.5072450000000 1.0
C      1  0.4731560000000  0.4928250000000  0.4266300000000 1.0
C      1  0.4912930000000  0.4676510000000  0.4138580000000 1.0
C      1  0.5196170000000  0.4803310000000  0.4266270000000 1.0
C      1  0.5323460000000  0.5086240000000  0.4138490000000 1.0
C      1  0.5072060000000  0.5268140000000  0.4266220000000 1.0
C      1  0.4763360000000  0.5236910000000  0.4138520000000 1.0
C      1  0.5268410000000  0.4928330000000  0.5733720000000 1.0
C      1  0.5086920000000  0.4676700000000  0.5861510000000 1.0
C      1  0.4803750000000  0.4803600000000  0.5733780000000 1.0
C      1  0.4676580000000  0.5086620000000  0.5861490000000 1.0
C      1  0.4928060000000  0.5268370000000  0.5733710000000 1.0
C      1  0.5236750000000  0.5237030000000  0.5861420000000 1.0
END
