TITL C-3289327-5623-130 0.000257895264597962 125000 -403.177133211891 0 0 76 (C1) n - 1
REM
REM in /nfs/bkarasulu/CARBON/AIRSS/Generating-Clusters/AIREBO/with-SteepDescent/Higher-Symm/SD-CG/HFTN-CG
REM
REM
REM
REM
REM
REM ./C.cell (b20cbc046b6831c77cfcea5457e17084)
REM
REM compiler GCC version 9.2.1 20190827 (Red Hat 9.2.1-1)
REM options -cpp -mtune=generic -march=x86-64 -g -O0 -fpre-include=/usr/include/finclude/math-vector-fortran.h
REM seed 1569833488 807796194 154074701 841576921 1327186860 -1391326808 1378732790 -1332947654 869524158 -1874641170 -245384603 -975531518 -2001056491 -842541769 -922102732 471694276 -1148734223 1405807897 1686740058 -1136735779 -1520058971 -1619027463 1348063362 -1195919996 1839432599 1655907582 511202873 939480317 -1413734606 -763290554 -1621742904 -1058467280 299828252
REM
CELL 1.54180   50.00000   50.00000   50.00000   90.00000   90.00000   90.00000
LATT -1
SFAC C  
C      1  0.5361230000000  0.4864790000000  0.5500810000000 1.0
C      1  0.5189450000000  0.5418180000000  0.5586920000000 1.0
C      1  0.4660740000000  0.5099490000000  0.5591230000000 1.0
C      1  0.4818930000000  0.4668740000000  0.5505620000000 1.0
C      1  0.4653810000000  0.4837580000000  0.4474000000000 1.0
C      1  0.4865030000000  0.5303090000000  0.4283500000000 1.0
C      1  0.5365440000000  0.5152870000000  0.4389410000000 1.0
C      1  0.5197960000000  0.4612720000000  0.4437760000000 1.0
C      1  0.5276030000000  0.4367120000000  0.5441160000000 1.0
C      1  0.5595880000000  0.5388230000000  0.5424180000000 1.0
C      1  0.4668710000000  0.5603820000000  0.5505640000000 1.0
C      1  0.4366020000000  0.4718260000000  0.5462820000000 1.0
C      1  0.4715730000000  0.4351830000000  0.4603500000000 1.0
C      1  0.4425200000000  0.5319080000000  0.4563480000000 1.0
C      1  0.5280950000000  0.5620870000000  0.4588120000000 1.0
C      1  0.5631980000000  0.4608390000000  0.4525800000000 1.0
C      1  0.4654950000000  0.5149960000000  0.4468420000000 1.0
C      1  0.4874810000000  0.4591920000000  0.4524680000000 1.0
C      1  0.5438110000000  0.4838630000000  0.4416020000000 1.0
C      1  0.5136840000000  0.5381020000000  0.4434520000000 1.0
C      1  0.5384080000000  0.5170520000000  0.5492990000000 1.0
C      1  0.5126140000000  0.4626900000000  0.5493170000000 1.0
C      1  0.4599660000000  0.4829590000000  0.5594690000000 1.0
C      1  0.4865330000000  0.5367810000000  0.5566160000000 1.0
C      1  0.5589040000000  0.4412550000000  0.5388620000000 1.0
C      1  0.5495200000000  0.5662340000000  0.5479510000000 1.0
C      1  0.4416630000000  0.5486350000000  0.5359850000000 1.0
C      1  0.4397790000000  0.4411220000000  0.5359290000000 1.0
C      1  0.4418180000000  0.4418080000000  0.4634020000000 1.0
C      1  0.4501090000000  0.5610580000000  0.4650550000000 1.0
C      1  0.5576370000000  0.5541100000000  0.4679100000000 1.0
C      1  0.5447650000000  0.4414410000000  0.4675480000000 1.0
C      1  0.4663370000000  0.5756380000000  0.5201820000000 1.0
C      1  0.4274550000000  0.4709730000000  0.5132890000000 1.0
C      1  0.5331310000000  0.4256600000000  0.5126750000000 1.0
C      1  0.5679380000000  0.5355280000000  0.5137460000000 1.0
C      1  0.5321650000000  0.5756880000000  0.4897660000000 1.0
C      1  0.5733500000000  0.4627000000000  0.4849910000000 1.0
C      1  0.4669570000000  0.4258530000000  0.4901060000000 1.0
C      1  0.4319270000000  0.5343010000000  0.4885730000000 1.0
C      1  0.5905750000000  0.4879130000000  0.4968860000000 1.0
C      1  0.5104880000000  0.5945300000000  0.5014480000000 1.0
C      1  0.4079380000000  0.5150460000000  0.4953880000000 1.0
C      1  0.4886300000000  0.4024920000000  0.4984490000000 1.0
C      1  0.4069400000000  0.4914280000000  0.5032550000000 1.0
C      1  0.4866460000000  0.5946240000000  0.5090380000000 1.0
C      1  0.5874140000000  0.5119370000000  0.5020750000000 1.0
C      1  0.5131880000000  0.4034560000000  0.5031400000000 1.0
C      1  0.4705380000000  0.5427590000000  0.4826050000000 1.0
C      1  0.4527990000000  0.4689180000000  0.4706300000000 1.0
C      1  0.5181780000000  0.4559110000000  0.4777230000000 1.0
C      1  0.5390800000000  0.5258860000000  0.4718020000000 1.0
C      1  0.5258680000000  0.5537410000000  0.5269570000000 1.0
C      1  0.5433810000000  0.4674560000000  0.5243360000000 1.0
C      1  0.4672940000000  0.4576640000000  0.5249050000000 1.0
C      1  0.4611350000000  0.5227500000000  0.5293360000000 1.0
C      1  0.4773820000000  0.4961420000000  0.5233760000000 1.0
C      1  0.5058870000000  0.4842300000000  0.5238740000000 1.0
C      1  0.5216380000000  0.5105100000000  0.5218010000000 1.0
C      1  0.4994930000000  0.5336890000000  0.5253350000000 1.0
C      1  0.5326220000000  0.4925030000000  0.4720280000000 1.0
C      1  0.5016790000000  0.4846230000000  0.4700120000000 1.0
C      1  0.4853840000000  0.5076050000000  0.4723270000000 1.0
C      1  0.5006170000000  0.5366730000000  0.4728280000000 1.0
C      1  0.5511670000000  0.4816780000000  0.4983880000000 1.0
C      1  0.5220550000000  0.5448080000000  0.4943530000000 1.0
C      1  0.4574180000000  0.5120420000000  0.4899240000000 1.0
C      1  0.4867890000000  0.4403000000000  0.5109850000000 1.0
C      1  0.4576410000000  0.4798930000000  0.5010320000000 1.0
C      1  0.4736650000000  0.5463080000000  0.5122000000000 1.0
C      1  0.5474790000000  0.5134870000000  0.5023690000000 1.0
C      1  0.5152620000000  0.4544920000000  0.5102620000000 1.0
C      1  0.4359210000000  0.5586230000000  0.5086580000000 1.0
C      1  0.4390160000000  0.4401900000000  0.5031840000000 1.0
C      1  0.5578120000000  0.4334740000000  0.4942210000000 1.0
C      1  0.5622240000000  0.5610770000000  0.4972970000000 1.0
END
