TITL C-3289322-3858-587 -0.00091229939301493 125000 -690.595559773884 0 0 123 (C1) n - 1
REM
REM in /nfs/bkarasulu/CARBON/AIRSS/Generating-Clusters/AIREBO/with-SteepDescent/Higher-Symm/SD-CG/HFTN-CG
REM
REM
REM
REM
REM
REM ./C.cell (b20cbc046b6831c77cfcea5457e17084)
REM
REM compiler GCC version 9.2.1 20190827 (Red Hat 9.2.1-1)
REM options -cpp -mtune=generic -march=x86-64 -g -O0 -fpre-include=/usr/include/finclude/math-vector-fortran.h
REM seed -193814077 -1332692892 -909750215 -1560522625 -690923520 -82957411 -2046993372 -1681252072 1017180711 2000669447 -1933079735 -496025008 -1572046358 -1603996146 -1425762213 -1581226746 -1237310439 1254353719 1746925110 -105325591 -2140909655 -885392551 -1044981804 984636895 1079983061 1475063380 630543500 -2071278133 -948890426 1908839472 -997757886 2122313249 -729687838
REM
CELL 1.54180   50.00000   50.00000   50.00000   90.00000   90.00000   90.00000
LATT -1
SFAC C  
C      1  0.4532860000000  0.4353610000000  0.4728520000000 1.0
C      1  0.4937420000000  0.4258400000000  0.4445620000000 1.0
C      1  0.5405370000000  0.4290350000000  0.4584570000000 1.0
C      1  0.5630590000000  0.4270090000000  0.5008640000000 1.0
C      1  0.5367900000000  0.4285810000000  0.5455050000000 1.0
C      1  0.4883200000000  0.4334670000000  0.5520360000000 1.0
C      1  0.4469380000000  0.4335650000000  0.5250200000000 1.0
C      1  0.4978900000000  0.5503780000000  0.4680680000000 1.0
C      1  0.5252240000000  0.5367360000000  0.4798390000000 1.0
C      1  0.5266210000000  0.5432590000000  0.5105140000000 1.0
C      1  0.4999380000000  0.5400450000000  0.5263300000000 1.0
C      1  0.4754790000000  0.5579480000000  0.5346720000000 1.0
C      1  0.4662940000000  0.5438730000000  0.5050470000000 1.0
C      1  0.4724960000000  0.5319740000000  0.4759210000000 1.0
C      1  0.5276510000000  0.4563910000000  0.5281940000000 1.0
C      1  0.4940570000000  0.4592920000000  0.5325810000000 1.0
C      1  0.4613120000000  0.4634370000000  0.5256420000000 1.0
C      1  0.4642990000000  0.4670880000000  0.4782110000000 1.0
C      1  0.4909440000000  0.4482150000000  0.4693820000000 1.0
C      1  0.5234380000000  0.4551090000000  0.4694000000000 1.0
C      1  0.5402050000000  0.4521310000000  0.4988810000000 1.0
C      1  0.5664700000000  0.5128550000000  0.5173870000000 1.0
C      1  0.5242340000000  0.5155870000000  0.5696430000000 1.0
C      1  0.4596360000000  0.5164330000000  0.5697880000000 1.0
C      1  0.4283840000000  0.5317730000000  0.5049890000000 1.0
C      1  0.4485520000000  0.5285860000000  0.4550540000000 1.0
C      1  0.5093380000000  0.5341920000000  0.4423090000000 1.0
C      1  0.5531930000000  0.5199490000000  0.4691610000000 1.0
C      1  0.5290710000000  0.5036640000000  0.4867690000000 1.0
C      1  0.5330900000000  0.5112320000000  0.5199370000000 1.0
C      1  0.5064430000000  0.5122080000000  0.5417650000000 1.0
C      1  0.4724680000000  0.5122990000000  0.5404680000000 1.0
C      1  0.4565000000000  0.5146640000000  0.5135460000000 1.0
C      1  0.4823940000000  0.5021490000000  0.4716940000000 1.0
C      1  0.5112450000000  0.5068980000000  0.4574340000000 1.0
C      1  0.4491940000000  0.4556270000000  0.5747510000000 1.0
C      1  0.4186130000000  0.4670110000000  0.4916220000000 1.0
C      1  0.4608120000000  0.4553450000000  0.4226350000000 1.0
C      1  0.5260430000000  0.4558300000000  0.4184660000000 1.0
C      1  0.5805300000000  0.4625370000000  0.4671320000000 1.0
C      1  0.5723610000000  0.4615200000000  0.5350930000000 1.0
C      1  0.5203540000000  0.4650970000000  0.5801570000000 1.0
C      1  0.4665320000000  0.5740970000000  0.4992630000000 1.0
C      1  0.4596170000000  0.5806280000000  0.4713940000000 1.0
C      1  0.4936380000000  0.5839200000000  0.4721180000000 1.0
C      1  0.5251220000000  0.5798620000000  0.4807390000000 1.0
C      1  0.5334610000000  0.5744680000000  0.5102260000000 1.0
C      1  0.5224200000000  0.5820590000000  0.5382450000000 1.0
C      1  0.4940780000000  0.5858560000000  0.5351270000000 1.0
C      1  0.4718110000000  0.5358890000000  0.5934380000000 1.0
C      1  0.4184730000000  0.5522940000000  0.5287510000000 1.0
C      1  0.4161470000000  0.5322150000000  0.4453930000000 1.0
C      1  0.4894630000000  0.5406860000000  0.4161540000000 1.0
C      1  0.5625500000000  0.5315030000000  0.4385840000000 1.0
C      1  0.5789940000000  0.5358050000000  0.5093430000000 1.0
C      1  0.5522460000000  0.5281970000000  0.5812310000000 1.0
C      1  0.4775370000000  0.4831110000000  0.4219970000000 1.0
C      1  0.5469860000000  0.4810020000000  0.4276250000000 1.0
C      1  0.5837980000000  0.4858440000000  0.4918480000000 1.0
C      1  0.5643100000000  0.4834480000000  0.5579760000000 1.0
C      1  0.4935050000000  0.4814010000000  0.5864440000000 1.0
C      1  0.4241670000000  0.4959690000000  0.5400420000000 1.0
C      1  0.4151460000000  0.4863610000000  0.4683900000000 1.0
C      1  0.5865870000000  0.4884820000000  0.5253450000000 1.0
C      1  0.5383800000000  0.4871940000000  0.5753820000000 1.0
C      1  0.4629750000000  0.4846500000000  0.5778860000000 1.0
C      1  0.4211830000000  0.4976450000000  0.5061760000000 1.0
C      1  0.4357660000000  0.4977390000000  0.4486080000000 1.0
C      1  0.5076560000000  0.4837670000000  0.4212830000000 1.0
C      1  0.5616950000000  0.4888570000000  0.4565890000000 1.0
C      1  0.5126290000000  0.5578160000000  0.4104480000000 1.0
C      1  0.5428620000000  0.5684890000000  0.4631650000000 1.0
C      1  0.5628660000000  0.5609970000000  0.5131240000000 1.0
C      1  0.5360470000000  0.5664630000000  0.5570660000000 1.0
C      1  0.4857480000000  0.5582640000000  0.5743730000000 1.0
C      1  0.4101170000000  0.5672930000000  0.5059130000000 1.0
C      1  0.4391010000000  0.5670500000000  0.4599400000000 1.0
C      1  0.5842820000000  0.5088320000000  0.5525990000000 1.0
C      1  0.5049610000000  0.5044450000000  0.6049130000000 1.0
C      1  0.4169130000000  0.5164680000000  0.5568870000000 1.0
C      1  0.3980710000000  0.5073160000000  0.4810410000000 1.0
C      1  0.4549210000000  0.5077200000000  0.4217170000000 1.0
C      1  0.5318080000000  0.5061250000000  0.4123120000000 1.0
C      1  0.5997830000000  0.5089220000000  0.4772770000000 1.0
C      1  0.4681880000000  0.4113970000000  0.5143950000000 1.0
C      1  0.4678680000000  0.4108470000000  0.4859340000000 1.0
C      1  0.4946490000000  0.4085070000000  0.4717050000000 1.0
C      1  0.5273860000000  0.4027170000000  0.4725700000000 1.0
C      1  0.5384060000000  0.4072740000000  0.5027750000000 1.0
C      1  0.5202030000000  0.4063350000000  0.5289740000000 1.0
C      1  0.4919420000000  0.4115070000000  0.5303960000000 1.0
C      1  0.5183450000000  0.5485820000000  0.5753760000000 1.0
C      1  0.4567400000000  0.5486690000000  0.5593580000000 1.0
C      1  0.4201060000000  0.5527840000000  0.4793430000000 1.0
C      1  0.4459370000000  0.5546440000000  0.4333660000000 1.0
C      1  0.5328890000000  0.5582100000000  0.4372550000000 1.0
C      1  0.5624960000000  0.5514850000000  0.4778920000000 1.0
C      1  0.5604070000000  0.5557220000000  0.5456760000000 1.0
C      1  0.5007770000000  0.5304580000000  0.5982190000000 1.0
C      1  0.4267480000000  0.5429580000000  0.5528780000000 1.0
C      1  0.3985220000000  0.5315470000000  0.4681710000000 1.0
C      1  0.4626850000000  0.5344690000000  0.4181960000000 1.0
C      1  0.5414560000000  0.5310180000000  0.4187230000000 1.0
C      1  0.5913810000000  0.5341940000000  0.4827010000000 1.0
C      1  0.5709580000000  0.5331780000000  0.5598910000000 1.0
C      1  0.4525510000000  0.4850310000000  0.5024390000000 1.0
C      1  0.4645880000000  0.4851740000000  0.4525840000000 1.0
C      1  0.5234880000000  0.4786520000000  0.4510490000000 1.0
C      1  0.5507520000000  0.4792100000000  0.4873020000000 1.0
C      1  0.5388470000000  0.4830030000000  0.5359110000000 1.0
C      1  0.4973500000000  0.4827760000000  0.5529240000000 1.0
C      1  0.4523380000000  0.4857670000000  0.5455290000000 1.0
C      1  0.5682450000000  0.4361750000000  0.4707950000000 1.0
C      1  0.5629820000000  0.4378930000000  0.5298220000000 1.0
C      1  0.5162390000000  0.4413410000000  0.5661420000000 1.0
C      1  0.4579180000000  0.4376290000000  0.5559350000000 1.0
C      1  0.4357930000000  0.4463410000000  0.4970430000000 1.0
C      1  0.4639840000000  0.4366650000000  0.4423800000000 1.0
C      1  0.5218540000000  0.4315710000000  0.4329820000000 1.0
C      1  0.5026270000000  0.4833720000000  0.4884800000000 1.0
C      1  0.4987490000000  0.4552450000000  0.5007130000000 1.0
C      1  0.5109480000000  0.4253690000000  0.4950590000000 1.0
C      1  0.4932320000000  0.5854730000000  0.5060880000000 1.0
END
