TITL C-3289322-3858-451 -9.48054410841616e-05 125000 -630.826125014024 0 0 119 (C1) n - 1
REM
REM in /nfs/bkarasulu/CARBON/AIRSS/Generating-Clusters/AIREBO/with-SteepDescent/Higher-Symm/SD-CG/HFTN-CG
REM
REM
REM
REM
REM
REM ./C.cell (b20cbc046b6831c77cfcea5457e17084)
REM
REM compiler GCC version 9.2.1 20190827 (Red Hat 9.2.1-1)
REM options -cpp -mtune=generic -march=x86-64 -g -O0 -fpre-include=/usr/include/finclude/math-vector-fortran.h
REM seed 2093840774 -1900028309 -137841276 -645835845 -40747569 700106207 -1600774133 -1700464344 227592740 -760114352 -1056425332 781120764 -1550522930 2038676072 -74390557 834644765 -1868256583 -975795535 -1874148754 2072838281 -1979625181 450917244 1993565674 1772547631 -827543061 -842352696 1411276983 -1495835864 -2093866149 1379026985 -1937178347 357089955 -904369062
REM
CELL 1.54180   50.00000   50.00000   50.00000   90.00000   90.00000   90.00000
LATT -1
SFAC C  
C      1  0.5490330000000  0.5080580000000  0.4938050000000 1.0
C      1  0.5220050000000  0.5293320000000  0.4923410000000 1.0
C      1  0.4917790000000  0.5450690000000  0.5002740000000 1.0
C      1  0.4704560000000  0.5195850000000  0.4925800000000 1.0
C      1  0.4649460000000  0.4861410000000  0.4994200000000 1.0
C      1  0.4934290000000  0.4692260000000  0.5020360000000 1.0
C      1  0.5238730000000  0.4731010000000  0.5090180000000 1.0
C      1  0.4863370000000  0.5811290000000  0.4638510000000 1.0
C      1  0.4163120000000  0.5384720000000  0.4638950000000 1.0
C      1  0.4157970000000  0.4594720000000  0.4567590000000 1.0
C      1  0.4761970000000  0.4142820000000  0.4648870000000 1.0
C      1  0.5494840000000  0.4365130000000  0.4720940000000 1.0
C      1  0.5912810000000  0.5012420000000  0.4529980000000 1.0
C      1  0.5616570000000  0.5714190000000  0.4530700000000 1.0
C      1  0.3940390000000  0.4814560000000  0.5087020000000 1.0
C      1  0.4338520000000  0.4407320000000  0.5092140000000 1.0
C      1  0.5346060000000  0.3900560000000  0.5177260000000 1.0
C      1  0.6034940000000  0.4583370000000  0.5207600000000 1.0
C      1  0.5858580000000  0.5199340000000  0.5028910000000 1.0
C      1  0.5182050000000  0.6119600000000  0.5326170000000 1.0
C      1  0.4681440000000  0.5856140000000  0.4989760000000 1.0
C      1  0.5798350000000  0.4686240000000  0.5165390000000 1.0
C      1  0.5643080000000  0.5448590000000  0.4952300000000 1.0
C      1  0.5149680000000  0.5879660000000  0.5234530000000 1.0
C      1  0.4531040000000  0.5621770000000  0.5036750000000 1.0
C      1  0.4198490000000  0.4840820000000  0.5072790000000 1.0
C      1  0.4613670000000  0.4347330000000  0.5192610000000 1.0
C      1  0.5283810000000  0.4143810000000  0.5235080000000 1.0
C      1  0.5279600000000  0.5619140000000  0.5339870000000 1.0
C      1  0.4703990000000  0.5485590000000  0.5264350000000 1.0
C      1  0.4379560000000  0.5065120000000  0.5210610000000 1.0
C      1  0.4578790000000  0.4673460000000  0.5268710000000 1.0
C      1  0.5020830000000  0.4313760000000  0.5284540000000 1.0
C      1  0.5551000000000  0.4579440000000  0.5288520000000 1.0
C      1  0.5503760000000  0.5261000000000  0.5199570000000 1.0
C      1  0.4375840000000  0.4431590000000  0.4528550000000 1.0
C      1  0.5023300000000  0.4186830000000  0.4581340000000 1.0
C      1  0.5634430000000  0.4581390000000  0.4591130000000 1.0
C      1  0.5788250000000  0.5264860000000  0.4477610000000 1.0
C      1  0.5349810000000  0.5748200000000  0.4496040000000 1.0
C      1  0.4623750000000  0.5623760000000  0.4552260000000 1.0
C      1  0.4198290000000  0.5128490000000  0.4485570000000 1.0
C      1  0.5365770000000  0.4415920000000  0.5076760000000 1.0
C      1  0.5752000000000  0.4889160000000  0.4954540000000 1.0
C      1  0.5335330000000  0.5583330000000  0.5006320000000 1.0
C      1  0.4989890000000  0.5783000000000  0.5009880000000 1.0
C      1  0.4372120000000  0.5144060000000  0.4879240000000 1.0
C      1  0.4404810000000  0.4658560000000  0.4873160000000 1.0
C      1  0.4878580000000  0.4367040000000  0.4980280000000 1.0
C      1  0.5651880000000  0.5517330000000  0.5647770000000 1.0
C      1  0.4873360000000  0.5753450000000  0.5685700000000 1.0
C      1  0.4357620000000  0.5437650000000  0.5565010000000 1.0
C      1  0.4226870000000  0.4707750000000  0.5638180000000 1.0
C      1  0.4643860000000  0.4253280000000  0.5616680000000 1.0
C      1  0.5401550000000  0.4236660000000  0.5603190000000 1.0
C      1  0.5723790000000  0.4922730000000  0.5506370000000 1.0
C      1  0.4586940000000  0.5013930000000  0.5475640000000 1.0
C      1  0.4777670000000  0.4735810000000  0.5522820000000 1.0
C      1  0.5065910000000  0.4593750000000  0.5473210000000 1.0
C      1  0.5325860000000  0.4804480000000  0.5410630000000 1.0
C      1  0.5322270000000  0.5145190000000  0.5461510000000 1.0
C      1  0.5084050000000  0.5387180000000  0.5495640000000 1.0
C      1  0.4756770000000  0.5291140000000  0.5518610000000 1.0
C      1  0.4665780000000  0.4541610000000  0.5758750000000 1.0
C      1  0.5152850000000  0.4396990000000  0.5729460000000 1.0
C      1  0.5509900000000  0.4755080000000  0.5692450000000 1.0
C      1  0.5500400000000  0.5249240000000  0.5730530000000 1.0
C      1  0.5090360000000  0.5540340000000  0.5799530000000 1.0
C      1  0.4603930000000  0.5417620000000  0.5788070000000 1.0
C      1  0.4388920000000  0.4963590000000  0.5747950000000 1.0
C      1  0.4931150000000  0.5396640000000  0.4667310000000 1.0
C      1  0.4675710000000  0.5215630000000  0.4587580000000 1.0
C      1  0.4651540000000  0.4906130000000  0.4656910000000 1.0
C      1  0.4906640000000  0.4746080000000  0.4701010000000 1.0
C      1  0.5215990000000  0.4760280000000  0.4751020000000 1.0
C      1  0.5343890000000  0.5010920000000  0.4670840000000 1.0
C      1  0.5208330000000  0.5279060000000  0.4588530000000 1.0
C      1  0.4556040000000  0.5561940000000  0.4224770000000 1.0
C      1  0.4326340000000  0.5068950000000  0.4177170000000 1.0
C      1  0.4569030000000  0.4511800000000  0.4332070000000 1.0
C      1  0.5095090000000  0.4341530000000  0.4355910000000 1.0
C      1  0.5507550000000  0.4660760000000  0.4305970000000 1.0
C      1  0.5586830000000  0.5239490000000  0.4253120000000 1.0
C      1  0.5190800000000  0.5656890000000  0.4222090000000 1.0
C      1  0.5524860000000  0.5690880000000  0.5517460000000 1.0
C      1  0.4707220000000  0.5687920000000  0.5512260000000 1.0
C      1  0.4249510000000  0.5264080000000  0.5422660000000 1.0
C      1  0.4349370000000  0.4554770000000  0.5478900000000 1.0
C      1  0.4824290000000  0.4155360000000  0.5473010000000 1.0
C      1  0.5600000000000  0.4370000000000  0.5518910000000 1.0
C      1  0.5718550000000  0.5152900000000  0.5409940000000 1.0
C      1  0.4252990000000  0.4894590000000  0.4680970000000 1.0
C      1  0.4620520000000  0.4418880000000  0.4764550000000 1.0
C      1  0.5174450000000  0.4307120000000  0.4821870000000 1.0
C      1  0.5804150000000  0.4791580000000  0.4678530000000 1.0
C      1  0.5730860000000  0.5483780000000  0.4649850000000 1.0
C      1  0.5178420000000  0.5740510000000  0.4746040000000 1.0
C      1  0.4440750000000  0.5465880000000  0.4790930000000 1.0
C      1  0.4693660000000  0.4722920000000  0.4095000000000 1.0
C      1  0.5006540000000  0.4612410000000  0.4169970000000 1.0
C      1  0.5255280000000  0.4763470000000  0.4101060000000 1.0
C      1  0.5303640000000  0.5084630000000  0.4081490000000 1.0
C      1  0.5106770000000  0.5361990000000  0.4074980000000 1.0
C      1  0.4778870000000  0.5325400000000  0.4115230000000 1.0
C      1  0.4651340000000  0.5059910000000  0.4077520000000 1.0
C      1  0.4495800000000  0.4722490000000  0.5932690000000 1.0
C      1  0.4900640000000  0.4373650000000  0.5898220000000 1.0
C      1  0.5401200000000  0.4535280000000  0.5868040000000 1.0
C      1  0.5596360000000  0.5002770000000  0.5875520000000 1.0
C      1  0.5358700000000  0.5467650000000  0.5914920000000 1.0
C      1  0.4829070000000  0.5488100000000  0.5980210000000 1.0
C      1  0.4372280000000  0.5225330000000  0.5902090000000 1.0
C      1  0.5250320000000  0.4574680000000  0.4483820000000 1.0
C      1  0.5435530000000  0.4979100000000  0.4376610000000 1.0
C      1  0.5316460000000  0.5380590000000  0.4343560000000 1.0
C      1  0.4891780000000  0.5517510000000  0.4371970000000 1.0
C      1  0.4472500000000  0.5294640000000  0.4385620000000 1.0
C      1  0.4565420000000  0.4907170000000  0.4359410000000 1.0
C      1  0.4830790000000  0.4617940000000  0.4446750000000 1.0
END
