TITL C-3289333-7213-574 0.00286149417173448 125000 -637.128040904127 0 0 117 (C1) n - 1
REM
REM in /nfs/bkarasulu/CARBON/AIRSS/Generating-Clusters/AIREBO/with-SteepDescent/Higher-Symm/SD-CG/HFTN-CG
REM
REM
REM
REM
REM
REM ./C.cell (b20cbc046b6831c77cfcea5457e17084)
REM
REM compiler GCC version 9.2.1 20190827 (Red Hat 9.2.1-1)
REM options -cpp -mtune=generic -march=x86-64 -g -O0 -fpre-include=/usr/include/finclude/math-vector-fortran.h
REM seed 2069696934 1090675633 432778938 -1563180622 1133959932 1599759621 -1613502457 1981221475 1473145306 1147418649 -941413614 546313158 1596354533 1510036230 269815184 1328952056 -1775045327 1506768646 -814813336 434142613 1977848022 -822264176 -1765447306 1130511310 -1824754899 972564770 1293500600 1590354730 1234561981 1260785183 -20824569 -278807601 918700502
REM
CELL 1.54180   50.00000   50.00000   50.00000   90.00000   90.00000   90.00000
LATT -1
SFAC C  
C      1  0.5447860000000  0.4444830000000  0.4220690000000 1.0
C      1  0.5249290000000  0.4048380000000  0.5356130000000 1.0
C      1  0.5325990000000  0.5478840000000  0.5967670000000 1.0
C      1  0.5414610000000  0.5749980000000  0.4433050000000 1.0
C      1  0.4588190000000  0.4439820000000  0.4278010000000 1.0
C      1  0.4642460000000  0.4162610000000  0.5410880000000 1.0
C      1  0.4655900000000  0.5451200000000  0.5975000000000 1.0
C      1  0.4622220000000  0.5663380000000  0.4449180000000 1.0
C      1  0.4291590000000  0.4270740000000  0.5034230000000 1.0
C      1  0.4370080000000  0.5098150000000  0.5656320000000 1.0
C      1  0.4415900000000  0.5640680000000  0.4858400000000 1.0
C      1  0.4398230000000  0.4876120000000  0.4353480000000 1.0
C      1  0.5626640000000  0.4328850000000  0.5037890000000 1.0
C      1  0.5586380000000  0.5117730000000  0.5719210000000 1.0
C      1  0.5615180000000  0.5690230000000  0.4856120000000 1.0
C      1  0.5580910000000  0.4910460000000  0.4299190000000 1.0
C      1  0.5294530000000  0.4515930000000  0.5446740000000 1.0
C      1  0.5230650000000  0.5527520000000  0.5505660000000 1.0
C      1  0.5201340000000  0.5445930000000  0.4573520000000 1.0
C      1  0.5253370000000  0.4533290000000  0.4553410000000 1.0
C      1  0.4823060000000  0.4630820000000  0.5471440000000 1.0
C      1  0.4749390000000  0.5510620000000  0.5526120000000 1.0
C      1  0.4750830000000  0.5338860000000  0.4643830000000 1.0
C      1  0.4723080000000  0.4593600000000  0.4621010000000 1.0
C      1  0.5580870000000  0.4880610000000  0.4625170000000 1.0
C      1  0.5604210000000  0.4649870000000  0.5111370000000 1.0
C      1  0.5538760000000  0.5136930000000  0.5384810000000 1.0
C      1  0.5564970000000  0.5372740000000  0.4843750000000 1.0
C      1  0.4466020000000  0.4789240000000  0.4636430000000 1.0
C      1  0.4244860000000  0.4568920000000  0.5130470000000 1.0
C      1  0.4429210000000  0.5137390000000  0.5323640000000 1.0
C      1  0.4500150000000  0.5315730000000  0.4872480000000 1.0
C      1  0.4514310000000  0.5187100000000  0.5885620000000 1.0
C      1  0.4611870000000  0.5782160000000  0.4709450000000 1.0
C      1  0.4551050000000  0.4712260000000  0.4174610000000 1.0
C      1  0.4498990000000  0.4132670000000  0.5148450000000 1.0
C      1  0.5393740000000  0.5203050000000  0.5916290000000 1.0
C      1  0.5428280000000  0.5837000000000  0.4704250000000 1.0
C      1  0.5429020000000  0.4727240000000  0.4140930000000 1.0
C      1  0.5452700000000  0.4135830000000  0.5124290000000 1.0
C      1  0.5220850000000  0.4986770000000  0.5628830000000 1.0
C      1  0.5251890000000  0.5666690000000  0.5020140000000 1.0
C      1  0.5190690000000  0.4995120000000  0.4315930000000 1.0
C      1  0.5186100000000  0.4340700000000  0.4910070000000 1.0
C      1  0.4758100000000  0.5009990000000  0.5627380000000 1.0
C      1  0.4849650000000  0.5631460000000  0.5104480000000 1.0
C      1  0.4791600000000  0.5013210000000  0.4325650000000 1.0
C      1  0.4814280000000  0.4464970000000  0.4987410000000 1.0
C      1  0.4208420000000  0.4474190000000  0.4774540000000 1.0
C      1  0.4255760000000  0.4832760000000  0.5476800000000 1.0
C      1  0.4347660000000  0.5553500000000  0.5151750000000 1.0
C      1  0.4274800000000  0.5115260000000  0.4507180000000 1.0
C      1  0.5765960000000  0.4508770000000  0.4785040000000 1.0
C      1  0.5762380000000  0.4872830000000  0.5561800000000 1.0
C      1  0.5745770000000  0.5561340000000  0.5140050000000 1.0
C      1  0.5706610000000  0.5197180000000  0.4431820000000 1.0
C      1  0.4597250000000  0.5669440000000  0.5300970000000 1.0
C      1  0.4454490000000  0.5369160000000  0.4479840000000 1.0
C      1  0.4450430000000  0.4395200000000  0.4577410000000 1.0
C      1  0.4559980000000  0.4751320000000  0.5605580000000 1.0
C      1  0.5480040000000  0.5660400000000  0.5272250000000 1.0
C      1  0.5501320000000  0.5433190000000  0.4411580000000 1.0
C      1  0.5565750000000  0.4396500000000  0.4536120000000 1.0
C      1  0.5469500000000  0.4749930000000  0.5620760000000 1.0
C      1  0.5286390000000  0.4561010000000  0.5842930000000 1.0
C      1  0.5315450000000  0.5906810000000  0.5441110000000 1.0
C      1  0.5308260000000  0.5273150000000  0.4205530000000 1.0
C      1  0.5394350000000  0.4207380000000  0.4735960000000 1.0
C      1  0.4512710000000  0.4610290000000  0.5850550000000 1.0
C      1  0.4551680000000  0.5938020000000  0.5379710000000 1.0
C      1  0.4672600000000  0.5300820000000  0.4250700000000 1.0
C      1  0.4641040000000  0.4245770000000  0.4793570000000 1.0
C      1  0.5379940000000  0.5119470000000  0.4714300000000 1.0
C      1  0.5388510000000  0.4753850000000  0.4869940000000 1.0
C      1  0.5386370000000  0.4867010000000  0.5248440000000 1.0
C      1  0.5286890000000  0.5169530000000  0.5166210000000 1.0
C      1  0.4577140000000  0.5025940000000  0.4815660000000 1.0
C      1  0.4461080000000  0.4747220000000  0.4972220000000 1.0
C      1  0.4615750000000  0.4885510000000  0.5187040000000 1.0
C      1  0.4715530000000  0.5188020000000  0.5184340000000 1.0
C      1  0.5225540000000  0.5357940000000  0.4901190000000 1.0
C      1  0.5182710000000  0.4859450000000  0.4618780000000 1.0
C      1  0.5212850000000  0.4600610000000  0.5127680000000 1.0
C      1  0.5155130000000  0.5231130000000  0.5445020000000 1.0
C      1  0.4890900000000  0.5328050000000  0.4953640000000 1.0
C      1  0.4847090000000  0.4909500000000  0.4641990000000 1.0
C      1  0.4904630000000  0.4740530000000  0.5160090000000 1.0
C      1  0.4848960000000  0.5236570000000  0.5445020000000 1.0
C      1  0.4849840000000  0.5717270000000  0.4294780000000 1.0
C      1  0.4866170000000  0.4387490000000  0.4280920000000 1.0
C      1  0.4859620000000  0.4319610000000  0.5489200000000 1.0
C      1  0.4845220000000  0.5566250000000  0.5790000000000 1.0
C      1  0.5118600000000  0.5695050000000  0.4357410000000 1.0
C      1  0.5142490000000  0.4350520000000  0.4294110000000 1.0
C      1  0.5134230000000  0.4257560000000  0.5499120000000 1.0
C      1  0.5135150000000  0.5584160000000  0.5785540000000 1.0
C      1  0.4180020000000  0.5048900000000  0.4775250000000 1.0
C      1  0.4071530000000  0.4763550000000  0.4912060000000 1.0
C      1  0.4184910000000  0.4961380000000  0.5165420000000 1.0
C      1  0.4201720000000  0.5272170000000  0.5027790000000 1.0
C      1  0.5826620000000  0.5089620000000  0.4732530000000 1.0
C      1  0.5828470000000  0.4812820000000  0.4931060000000 1.0
C      1  0.5798010000000  0.4973590000000  0.5237330000000 1.0
C      1  0.5794710000000  0.5239960000000  0.5036320000000 1.0
C      1  0.4830600000000  0.4821630000000  0.4080760000000 1.0
C      1  0.4826650000000  0.4136690000000  0.5057460000000 1.0
C      1  0.4843190000000  0.5104340000000  0.5910860000000 1.0
C      1  0.4855730000000  0.5816980000000  0.4853320000000 1.0
C      1  0.5118270000000  0.4779840000000  0.4105330000000 1.0
C      1  0.5129790000000  0.4051940000000  0.5053070000000 1.0
C      1  0.5122220000000  0.5045960000000  0.5930940000000 1.0
C      1  0.5141920000000  0.5882560000000  0.4812780000000 1.0
C      1  0.5087850000000  0.5717450000000  0.5291760000000 1.0
C      1  0.4982090000000  0.4461280000000  0.4699380000000 1.0
C      1  0.5004720000000  0.5239260000000  0.4462300000000 1.0
C      1  0.5077900000000  0.4693690000000  0.5627100000000 1.0
C      1  0.4972000000000  0.4997770000000  0.4945670000000 1.0
END
