TITL C-3289329-2751-139 -0.000257345126026598 125000 -805.13354139711 0 0 149 (C1) n - 1
REM
REM in /nfs/bkarasulu/CARBON/AIRSS/Generating-Clusters/AIREBO/with-SteepDescent/Higher-Symm/SD-CG/HFTN-CG
REM
REM
REM
REM
REM
REM ./C.cell (b20cbc046b6831c77cfcea5457e17084)
REM
REM compiler GCC version 9.2.1 20190827 (Red Hat 9.2.1-1)
REM options -cpp -mtune=generic -march=x86-64 -g -O0 -fpre-include=/usr/include/finclude/math-vector-fortran.h
REM seed -1436209228 -405903955 -289187944 -254268253 -576593849 353924612 -820804269 396939034 687510388 -997050015 -596128495 -869238958 -1577223388 746042772 616277420 -646342023 1562078988 584054526 24785826 1144192602 1993735499 -460528595 129863622 -118658983 -16819028 1023328715 -130933123 35720864 -1830833277 2069819498 1215090414 -1143964714 275031769
REM
CELL 1.54180   50.00000   50.00000   50.00000   90.00000   90.00000   90.00000
LATT -1
SFAC C  
C      1  0.4769140000000  0.4118470000000  0.4857610000000 1.0
C      1  0.5312780000000  0.4115480000000  0.4845770000000 1.0
C      1  0.5106650000000  0.4217280000000  0.5237190000000 1.0
C      1  0.4770920000000  0.5849380000000  0.5018650000000 1.0
C      1  0.5197670000000  0.5782160000000  0.4728770000000 1.0
C      1  0.5028590000000  0.5843130000000  0.5324510000000 1.0
C      1  0.4582440000000  0.4087670000000  0.5258000000000 1.0
C      1  0.5066040000000  0.3988710000000  0.4517850000000 1.0
C      1  0.5514500000000  0.4079130000000  0.5246920000000 1.0
C      1  0.4544300000000  0.5922190000000  0.5345700000000 1.0
C      1  0.4933420000000  0.6016520000000  0.4541510000000 1.0
C      1  0.5555250000000  0.5775360000000  0.5150290000000 1.0
C      1  0.5700330000000  0.5288590000000  0.4311000000000 1.0
C      1  0.5259280000000  0.5373230000000  0.5908690000000 1.0
C      1  0.4025170000000  0.5388130000000  0.4830120000000 1.0
C      1  0.5692890000000  0.4491660000000  0.4449200000000 1.0
C      1  0.5145050000000  0.4534150000000  0.5975250000000 1.0
C      1  0.4209060000000  0.4508210000000  0.4636460000000 1.0
C      1  0.4252270000000  0.5761920000000  0.5374280000000 1.0
C      1  0.4755320000000  0.5839870000000  0.4419880000000 1.0
C      1  0.5665440000000  0.5596430000000  0.5387720000000 1.0
C      1  0.4323590000000  0.4303060000000  0.5305100000000 1.0
C      1  0.5061290000000  0.4216680000000  0.4265940000000 1.0
C      1  0.5654480000000  0.4331130000000  0.5405640000000 1.0
C      1  0.5048040000000  0.3765350000000  0.4738280000000 1.0
C      1  0.5316720000000  0.3846400000000  0.5154920000000 1.0
C      1  0.4800950000000  0.3865960000000  0.5212270000000 1.0
C      1  0.4847390000000  0.6091040000000  0.4791440000000 1.0
C      1  0.5359670000000  0.5998940000000  0.5116810000000 1.0
C      1  0.4823720000000  0.6072030000000  0.5348390000000 1.0
C      1  0.5357520000000  0.4753550000000  0.4447000000000 1.0
C      1  0.5250100000000  0.4763370000000  0.5668820000000 1.0
C      1  0.4294350000000  0.4755930000000  0.4973720000000 1.0
C      1  0.5324790000000  0.5390470000000  0.4385410000000 1.0
C      1  0.5282100000000  0.5178210000000  0.5562670000000 1.0
C      1  0.4391810000000  0.5301770000000  0.4948180000000 1.0
C      1  0.5422690000000  0.5211240000000  0.4129990000000 1.0
C      1  0.5531670000000  0.5206460000000  0.5791850000000 1.0
C      1  0.4106250000000  0.5210270000000  0.5108480000000 1.0
C      1  0.5375220000000  0.4876840000000  0.4135740000000 1.0
C      1  0.5531730000000  0.4895020000000  0.5738310000000 1.0
C      1  0.4139900000000  0.4912320000000  0.5192040000000 1.0
C      1  0.4755490000000  0.5512000000000  0.5059230000000 1.0
C      1  0.5048460000000  0.5524190000000  0.4637420000000 1.0
C      1  0.5076170000000  0.5431810000000  0.5140180000000 1.0
C      1  0.4840270000000  0.4582890000000  0.4995730000000 1.0
C      1  0.5106130000000  0.4590860000000  0.4783620000000 1.0
C      1  0.5115800000000  0.4554320000000  0.5193170000000 1.0
C      1  0.4895820000000  0.5590470000000  0.4362540000000 1.0
C      1  0.5390320000000  0.5432350000000  0.5273450000000 1.0
C      1  0.4482210000000  0.5536330000000  0.5264120000000 1.0
C      1  0.5056530000000  0.4495430000000  0.4460650000000 1.0
C      1  0.5394660000000  0.4529240000000  0.5381490000000 1.0
C      1  0.4546140000000  0.4501990000000  0.5150680000000 1.0
C      1  0.4372800000000  0.5418910000000  0.4398910000000 1.0
C      1  0.5822100000000  0.5392020000000  0.4817200000000 1.0
C      1  0.4717180000000  0.5401750000000  0.5825980000000 1.0
C      1  0.4536810000000  0.4615190000000  0.4277980000000 1.0
C      1  0.5900140000000  0.4474800000000  0.4907900000000 1.0
C      1  0.4630330000000  0.4569970000000  0.5727860000000 1.0
C      1  0.5323000000000  0.4438630000000  0.5701300000000 1.0
C      1  0.4293550000000  0.4436290000000  0.4932670000000 1.0
C      1  0.5380720000000  0.4418780000000  0.4392200000000 1.0
C      1  0.5345560000000  0.5500370000000  0.5603630000000 1.0
C      1  0.4232150000000  0.5580570000000  0.5037870000000 1.0
C      1  0.5199120000000  0.5654780000000  0.4292270000000 1.0
C      1  0.4645590000000  0.4889550000000  0.5845300000000 1.0
C      1  0.4461800000000  0.4893520000000  0.4155710000000 1.0
C      1  0.5978490000000  0.4756600000000  0.4936800000000 1.0
C      1  0.4628920000000  0.5144140000000  0.5943420000000 1.0
C      1  0.4341410000000  0.5098440000000  0.4309560000000 1.0
C      1  0.5975170000000  0.5086900000000  0.4855240000000 1.0
C      1  0.5634220000000  0.4287350000000  0.5009600000000 1.0
C      1  0.4673180000000  0.4321390000000  0.5482360000000 1.0
C      1  0.4797200000000  0.4188120000000  0.4469010000000 1.0
C      1  0.5578810000000  0.5626800000000  0.4874050000000 1.0
C      1  0.4733400000000  0.5759320000000  0.5577100000000 1.0
C      1  0.4536850000000  0.5773370000000  0.4561690000000 1.0
C      1  0.5059180000000  0.4840150000000  0.4121840000000 1.0
C      1  0.5754680000000  0.4827310000000  0.5558220000000 1.0
C      1  0.4248750000000  0.4845490000000  0.5445620000000 1.0
C      1  0.5091280000000  0.5144460000000  0.4085280000000 1.0
C      1  0.5791150000000  0.5151190000000  0.5578560000000 1.0
C      1  0.4078990000000  0.5373890000000  0.5374720000000 1.0
C      1  0.5364840000000  0.5421360000000  0.4707700000000 1.0
C      1  0.4917590000000  0.5522070000000  0.5419460000000 1.0
C      1  0.4567710000000  0.5537390000000  0.4776920000000 1.0
C      1  0.5355680000000  0.4434120000000  0.4881200000000 1.0
C      1  0.4913440000000  0.4560180000000  0.5448640000000 1.0
C      1  0.4756200000000  0.4415740000000  0.4711750000000 1.0
C      1  0.4777430000000  0.4882570000000  0.5124610000000 1.0
C      1  0.5017270000000  0.4863790000000  0.4622750000000 1.0
C      1  0.5204800000000  0.4875030000000  0.5122860000000 1.0
C      1  0.4765770000000  0.5179620000000  0.4988210000000 1.0
C      1  0.5020100000000  0.5198490000000  0.4682880000000 1.0
C      1  0.5181990000000  0.5158800000000  0.4975680000000 1.0
C      1  0.5705780000000  0.5501750000000  0.4516970000000 1.0
C      1  0.4981010000000  0.5522710000000  0.5817220000000 1.0
C      1  0.4208830000000  0.5549290000000  0.4603540000000 1.0
C      1  0.5805360000000  0.4339540000000  0.4654080000000 1.0
C      1  0.4929660000000  0.4431240000000  0.5762890000000 1.0
C      1  0.4419750000000  0.4412560000000  0.4456800000000 1.0
C      1  0.4500580000000  0.4683300000000  0.5434730000000 1.0
C      1  0.4868240000000  0.4689540000000  0.4296120000000 1.0
C      1  0.5653970000000  0.4692790000000  0.5282040000000 1.0
C      1  0.4543520000000  0.5408910000000  0.5545350000000 1.0
C      1  0.4703550000000  0.5353730000000  0.4341570000000 1.0
C      1  0.5664390000000  0.5315760000000  0.5108880000000 1.0
C      1  0.5361620000000  0.4129160000000  0.4512800000000 1.0
C      1  0.5308030000000  0.4160900000000  0.5505720000000 1.0
C      1  0.4452440000000  0.4164470000000  0.4953010000000 1.0
C      1  0.5252850000000  0.5955720000000  0.4442010000000 1.0
C      1  0.5337780000000  0.5784650000000  0.5451450000000 1.0
C      1  0.4430870000000  0.5856400000000  0.5031970000000 1.0
C      1  0.4781950000000  0.4873730000000  0.5448910000000 1.0
C      1  0.4739160000000  0.4701500000000  0.4610470000000 1.0
C      1  0.5450050000000  0.4702450000000  0.5020940000000 1.0
C      1  0.4791890000000  0.5212730000000  0.5483600000000 1.0
C      1  0.4683610000000  0.5244340000000  0.4663030000000 1.0
C      1  0.5480910000000  0.5196540000000  0.4881760000000 1.0
C      1  0.4475950000000  0.4798460000000  0.4689420000000 1.0
C      1  0.5531640000000  0.4758860000000  0.4713040000000 1.0
C      1  0.4952330000000  0.4828410000000  0.5739720000000 1.0
C      1  0.4413520000000  0.5085940000000  0.4612990000000 1.0
C      1  0.5679810000000  0.5029490000000  0.4729610000000 1.0
C      1  0.5010160000000  0.5141170000000  0.5701050000000 1.0
C      1  0.4137700000000  0.4799270000000  0.4610900000000 1.0
C      1  0.5753640000000  0.4770890000000  0.4437750000000 1.0
C      1  0.5161680000000  0.4792190000000  0.6077880000000 1.0
C      1  0.4096780000000  0.5096750000000  0.4720870000000 1.0
C      1  0.5807650000000  0.5058800000000  0.4424410000000 1.0
C      1  0.5182730000000  0.5049050000000  0.5979280000000 1.0
C      1  0.5060390000000  0.5801400000000  0.5660530000000 1.0
C      1  0.4291290000000  0.5822010000000  0.4728510000000 1.0
C      1  0.5504870000000  0.5769890000000  0.4574600000000 1.0
C      1  0.4974810000000  0.4178950000000  0.5548240000000 1.0
C      1  0.4505790000000  0.4125500000000  0.4619130000000 1.0
C      1  0.5625970000000  0.4087120000000  0.4716280000000 1.0
C      1  0.4639730000000  0.5018800000000  0.3970970000000 1.0
C      1  0.5875360000000  0.4883660000000  0.5182910000000 1.0
C      1  0.4228050000000  0.5035250000000  0.5652270000000 1.0
C      1  0.4813360000000  0.5215930000000  0.4083270000000 1.0
C      1  0.5831990000000  0.5138650000000  0.5285180000000 1.0
C      1  0.4253730000000  0.5303830000000  0.5573620000000 1.0
C      1  0.4493920000000  0.5000890000000  0.5031170000000 1.0
C      1  0.5232430000000  0.5069700000000  0.4450620000000 1.0
C      1  0.5322670000000  0.4926390000000  0.5399920000000 1.0
C      1  0.5043340000000  0.3979510000000  0.5002480000000 1.0
C      1  0.5109250000000  0.5874490000000  0.4995680000000 1.0
END
