TITL C-3289333-7213-612 -0.00111463088294337 125000 -873.984143751284 0 0 159 (C1) n - 1
REM
REM in /nfs/bkarasulu/CARBON/AIRSS/Generating-Clusters/AIREBO/with-SteepDescent/Higher-Symm/SD-CG/HFTN-CG
REM
REM
REM
REM
REM
REM ./C.cell (b20cbc046b6831c77cfcea5457e17084)
REM
REM compiler GCC version 9.2.1 20190827 (Red Hat 9.2.1-1)
REM options -cpp -mtune=generic -march=x86-64 -g -O0 -fpre-include=/usr/include/finclude/math-vector-fortran.h
REM seed 498049439 -1628799259 -1891695978 -334667910 -1758373229 2069416055 1659069131 -363325566 -139785944 1062371356 -598998845 -785192377 -807152828 1338508689 -1540418670 19138410 -1288534716 -1570774720 1510567754 152158090 1156271293 955098060 1524714175 -1814680277 361274068 141163425 507736345 -532647488 283244854 1383557803 1907181877 159903210 1322524416
REM
CELL 1.54180   50.00000   50.00000   50.00000   90.00000   90.00000   90.00000
LATT -1
SFAC C  
C      1  0.3971050000000  0.4829320000000  0.5040320000000 1.0
C      1  0.5939050000000  0.4795800000000  0.4959580000000 1.0
C      1  0.4040650000000  0.5193040000000  0.4891610000000 1.0
C      1  0.5923230000000  0.5228470000000  0.5095430000000 1.0
C      1  0.4586610000000  0.4622770000000  0.4907460000000 1.0
C      1  0.5405290000000  0.4457190000000  0.4940870000000 1.0
C      1  0.4640710000000  0.5479720000000  0.4951560000000 1.0
C      1  0.5491810000000  0.5512900000000  0.4973420000000 1.0
C      1  0.4991490000000  0.5556460000000  0.4709020000000 1.0
C      1  0.4672660000000  0.5666570000000  0.5302950000000 1.0
C      1  0.5265310000000  0.4346950000000  0.5296900000000 1.0
C      1  0.4991940000000  0.4332070000000  0.4641950000000 1.0
C      1  0.5364510000000  0.5314720000000  0.4628080000000 1.0
C      1  0.4627590000000  0.5169970000000  0.5434150000000 1.0
C      1  0.5398330000000  0.4842020000000  0.5487220000000 1.0
C      1  0.4581660000000  0.4675280000000  0.4613630000000 1.0
C      1  0.4750770000000  0.4464680000000  0.4468430000000 1.0
C      1  0.5274950000000  0.4567030000000  0.5538970000000 1.0
C      1  0.4770240000000  0.5444180000000  0.5508000000000 1.0
C      1  0.5149070000000  0.5479760000000  0.4422980000000 1.0
C      1  0.4080580000000  0.4297040000000  0.4895810000000 1.0
C      1  0.5844300000000  0.4292680000000  0.5097380000000 1.0
C      1  0.4067180000000  0.5756590000000  0.5055010000000 1.0
C      1  0.5824750000000  0.5778490000000  0.4877960000000 1.0
C      1  0.5053840000000  0.4043770000000  0.5446800000000 1.0
C      1  0.4881690000000  0.3951520000000  0.4611770000000 1.0
C      1  0.5077290000000  0.5967310000000  0.4663170000000 1.0
C      1  0.4945020000000  0.5877540000000  0.5503400000000 1.0
C      1  0.4832850000000  0.4806060000000  0.6022630000000 1.0
C      1  0.5103480000000  0.4706470000000  0.4029740000000 1.0
C      1  0.4796590000000  0.5278560000000  0.4057940000000 1.0
C      1  0.5219100000000  0.5291250000000  0.5906990000000 1.0
C      1  0.6050550000000  0.4948250000000  0.4742390000000 1.0
C      1  0.3938200000000  0.4950530000000  0.5329210000000 1.0
C      1  0.6060430000000  0.5068370000000  0.5297400000000 1.0
C      1  0.3900810000000  0.5106580000000  0.4640660000000 1.0
C      1  0.4655780000000  0.4817920000000  0.4054870000000 1.0
C      1  0.5238180000000  0.4846420000000  0.5923740000000 1.0
C      1  0.4743860000000  0.5190100000000  0.5968290000000 1.0
C      1  0.5215040000000  0.5087420000000  0.4071270000000 1.0
C      1  0.5019060000000  0.5046370000000  0.4329480000000 1.0
C      1  0.4904990000000  0.5135440000000  0.5717020000000 1.0
C      1  0.5037800000000  0.4855030000000  0.5682640000000 1.0
C      1  0.4829650000000  0.4815610000000  0.4296190000000 1.0
C      1  0.4545160000000  0.5872440000000  0.4838780000000 1.0
C      1  0.5358400000000  0.5825810000000  0.5149160000000 1.0
C      1  0.4675830000000  0.4189680000000  0.5075650000000 1.0
C      1  0.5502310000000  0.3876780000000  0.4841680000000 1.0
C      1  0.4384210000000  0.5774290000000  0.5412940000000 1.0
C      1  0.5539350000000  0.5784210000000  0.4494950000000 1.0
C      1  0.4372140000000  0.4229850000000  0.4517290000000 1.0
C      1  0.5546390000000  0.4289180000000  0.5459260000000 1.0
C      1  0.4943540000000  0.4604730000000  0.5472550000000 1.0
C      1  0.5041960000000  0.4586920000000  0.4342220000000 1.0
C      1  0.4848580000000  0.5315530000000  0.4391960000000 1.0
C      1  0.5091050000000  0.5392060000000  0.5608300000000 1.0
C      1  0.3966080000000  0.5207820000000  0.5168420000000 1.0
C      1  0.5973510000000  0.5211950000000  0.4818890000000 1.0
C      1  0.3925550000000  0.4825690000000  0.4760790000000 1.0
C      1  0.6017380000000  0.4803190000000  0.5224720000000 1.0
C      1  0.4327760000000  0.5071890000000  0.4326060000000 1.0
C      1  0.5674950000000  0.4956090000000  0.5649040000000 1.0
C      1  0.4427580000000  0.5009430000000  0.5657440000000 1.0
C      1  0.5581860000000  0.5183300000000  0.4409580000000 1.0
C      1  0.5958740000000  0.5406890000000  0.5618290000000 1.0
C      1  0.4182990000000  0.5441220000000  0.4365380000000 1.0
C      1  0.5739240000000  0.4716830000000  0.4490190000000 1.0
C      1  0.4284070000000  0.4657130000000  0.5543140000000 1.0
C      1  0.5310150000000  0.5288300000000  0.5364400000000 1.0
C      1  0.4861180000000  0.5245800000000  0.4721730000000 1.0
C      1  0.5160910000000  0.4605150000000  0.4661280000000 1.0
C      1  0.5013490000000  0.4741420000000  0.5167980000000 1.0
C      1  0.5602750000000  0.4839250000000  0.4938210000000 1.0
C      1  0.4280170000000  0.4909710000000  0.5126930000000 1.0
C      1  0.5593280000000  0.5256990000000  0.5173110000000 1.0
C      1  0.4365270000000  0.5098020000000  0.4856770000000 1.0
C      1  0.4660660000000  0.4141470000000  0.4524920000000 1.0
C      1  0.5270350000000  0.4224450000000  0.5637040000000 1.0
C      1  0.4655230000000  0.5764070000000  0.5618920000000 1.0
C      1  0.5259640000000  0.5776310000000  0.4504050000000 1.0
C      1  0.5251130000000  0.5004780000000  0.4546150000000 1.0
C      1  0.4848360000000  0.5031270000000  0.5234950000000 1.0
C      1  0.5137990000000  0.5028060000000  0.5413180000000 1.0
C      1  0.4974390000000  0.4945550000000  0.4735290000000 1.0
C      1  0.5298520000000  0.6088940000000  0.5089240000000 1.0
C      1  0.4678800000000  0.5994060000000  0.5056930000000 1.0
C      1  0.5294260000000  0.3936420000000  0.5011810000000 1.0
C      1  0.4672070000000  0.3920260000000  0.5049150000000 1.0
C      1  0.5418730000000  0.4144630000000  0.4450140000000 1.0
C      1  0.4557970000000  0.4230900000000  0.5537780000000 1.0
C      1  0.5420490000000  0.5732400000000  0.5655180000000 1.0
C      1  0.4614660000000  0.5766230000000  0.4377390000000 1.0
C      1  0.4830980000000  0.5690090000000  0.5049190000000 1.0
C      1  0.5131760000000  0.5639000000000  0.4996000000000 1.0
C      1  0.4919410000000  0.4310820000000  0.4946080000000 1.0
C      1  0.5202800000000  0.4241730000000  0.5033370000000 1.0
C      1  0.5146990000000  0.4087880000000  0.4514820000000 1.0
C      1  0.4881750000000  0.4284010000000  0.5567360000000 1.0
C      1  0.5144410000000  0.5715490000000  0.5618180000000 1.0
C      1  0.4860980000000  0.5796970000000  0.4506410000000 1.0
C      1  0.5407820000000  0.4662570000000  0.4174850000000 1.0
C      1  0.4587860000000  0.4739280000000  0.5789310000000 1.0
C      1  0.5537740000000  0.5210900000000  0.5865280000000 1.0
C      1  0.4459280000000  0.5308890000000  0.4088110000000 1.0
C      1  0.5991750000000  0.5103380000000  0.5572300000000 1.0
C      1  0.4018660000000  0.5193160000000  0.4399450000000 1.0
C      1  0.5987850000000  0.4826180000000  0.4496160000000 1.0
C      1  0.4133220000000  0.4903200000000  0.5524530000000 1.0
C      1  0.5804170000000  0.4696890000000  0.5423690000000 1.0
C      1  0.4125090000000  0.4672410000000  0.4615200000000 1.0
C      1  0.5761620000000  0.5355270000000  0.4632630000000 1.0
C      1  0.4141680000000  0.5385600000000  0.5329300000000 1.0
C      1  0.4170320000000  0.4392830000000  0.4642830000000 1.0
C      1  0.5770450000000  0.4399790000000  0.5359210000000 1.0
C      1  0.4159630000000  0.5662440000000  0.5305220000000 1.0
C      1  0.5737890000000  0.5654810000000  0.4643330000000 1.0
C      1  0.5516290000000  0.5551040000000  0.5850330000000 1.0
C      1  0.4598120000000  0.5614450000000  0.4142860000000 1.0
C      1  0.5449270000000  0.4328860000000  0.4242160000000 1.0
C      1  0.4661140000000  0.4406990000000  0.5791840000000 1.0
C      1  0.4505380000000  0.5345330000000  0.4423050000000 1.0
C      1  0.5642750000000  0.5287420000000  0.5579230000000 1.0
C      1  0.4611810000000  0.4680060000000  0.5455330000000 1.0
C      1  0.5504740000000  0.4860370000000  0.4369050000000 1.0
C      1  0.5216100000000  0.5344070000000  0.5078770000000 1.0
C      1  0.4678650000000  0.5152650000000  0.4977080000000 1.0
C      1  0.5269600000000  0.4768940000000  0.4938890000000 1.0
C      1  0.4897240000000  0.4643970000000  0.4872510000000 1.0
C      1  0.5764160000000  0.5762620000000  0.5131020000000 1.0
C      1  0.4172510000000  0.5666140000000  0.4830510000000 1.0
C      1  0.5743660000000  0.4285980000000  0.4824260000000 1.0
C      1  0.4195420000000  0.4379150000000  0.5121140000000 1.0
C      1  0.5355160000000  0.5524750000000  0.6113330000000 1.0
C      1  0.4803240000000  0.5587570000000  0.3915430000000 1.0
C      1  0.5280330000000  0.4420090000000  0.3974970000000 1.0
C      1  0.4764380000000  0.4522170000000  0.6072090000000 1.0
C      1  0.5547270000000  0.5746240000000  0.5392460000000 1.0
C      1  0.4404420000000  0.5725750000000  0.4589120000000 1.0
C      1  0.5601030000000  0.4086530000000  0.4676510000000 1.0
C      1  0.4487210000000  0.4310210000000  0.5264830000000 1.0
C      1  0.5576520000000  0.5163040000000  0.4846570000000 1.0
C      1  0.4340490000000  0.5168700000000  0.5303470000000 1.0
C      1  0.5611830000000  0.4922410000000  0.5257050000000 1.0
C      1  0.4358780000000  0.4885830000000  0.4589010000000 1.0
C      1  0.4403360000000  0.5420240000000  0.4738670000000 1.0
C      1  0.5764820000000  0.5496400000000  0.5343480000000 1.0
C      1  0.4429450000000  0.4632350000000  0.5172260000000 1.0
C      1  0.5650330000000  0.4571180000000  0.4734530000000 1.0
C      1  0.5044000000000  0.3912430000000  0.5194820000000 1.0
C      1  0.4908430000000  0.3839470000000  0.4890980000000 1.0
C      1  0.5045750000000  0.6081100000000  0.4929740000000 1.0
C      1  0.4937910000000  0.6019750000000  0.5246820000000 1.0
C      1  0.4479570000000  0.5160600000000  0.5932240000000 1.0
C      1  0.5466060000000  0.5174830000000  0.4113130000000 1.0
C      1  0.4394280000000  0.4863880000000  0.4085400000000 1.0
C      1  0.5509100000000  0.4808540000000  0.5906690000000 1.0
C      1  0.5037840000000  0.5064840000000  0.6084440000000 1.0
C      1  0.4923810000000  0.4983220000000  0.3946690000000 1.0
C      1  0.5190240000000  0.5099380000000  0.4927190000000 1.0
END
