TITL C-3289333-7213-416 -0.000868194088290579 125000 -196.847760897317 0 0 36 (C1) n - 1
REM
REM in /nfs/bkarasulu/CARBON/AIRSS/Generating-Clusters/AIREBO/with-SteepDescent/Higher-Symm/SD-CG/HFTN-CG
REM
REM
REM
REM
REM
REM ./C.cell (b20cbc046b6831c77cfcea5457e17084)
REM
REM compiler GCC version 9.2.1 20190827 (Red Hat 9.2.1-1)
REM options -cpp -mtune=generic -march=x86-64 -g -O0 -fpre-include=/usr/include/finclude/math-vector-fortran.h
REM seed -973394573 1581999746 775422518 1870620957 132763538 1119578561 1794964672 794041562 1809855822 -948566079 1512711545 218531113 -953278951 501706149 -2109430274 -1880281327 -827937735 -1802059571 685304096 131094511 1627129754 1819389173 -2017602673 -1747854647 -1176934564 1745547372 1503945444 849192343 1808384117 -1254703861 679784199 -443285128 -538823245
REM
CELL 1.54180   50.00000   50.00000   50.00000   90.00000   90.00000   90.00000
LATT -1
SFAC C  
C      1  0.4767390000000  0.5051740000000  0.5553700000000 1.0
C      1  0.4663690000000  0.5405380000000  0.4724420000000 1.0
C      1  0.4702550000000  0.4517180000000  0.4736050000000 1.0
C      1  0.5118630000000  0.4563810000000  0.4999370000000 1.0
C      1  0.5141310000000  0.5270920000000  0.5310650000000 1.0
C      1  0.5243230000000  0.5212320000000  0.4559030000000 1.0
C      1  0.5024830000000  0.5161120000000  0.5572870000000 1.0
C      1  0.4852190000000  0.5562480000000  0.4586390000000 1.0
C      1  0.4800310000000  0.4249250000000  0.4754610000000 1.0
C      1  0.4568890000000  0.5406570000000  0.5294500000000 1.0
C      1  0.4754600000000  0.4981660000000  0.4552070000000 1.0
C      1  0.4623910000000  0.4732150000000  0.5139050000000 1.0
C      1  0.4554650000000  0.5230640000000  0.5508320000000 1.0
C      1  0.4565990000000  0.5181750000000  0.4582630000000 1.0
C      1  0.4515850000000  0.4616890000000  0.4924100000000 1.0
C      1  0.4975470000000  0.5138100000000  0.5050930000000 1.0
C      1  0.5031210000000  0.5029570000000  0.4744310000000 1.0
C      1  0.4935030000000  0.4826130000000  0.5114110000000 1.0
C      1  0.4728080000000  0.5349190000000  0.5007400000000 1.0
C      1  0.4967620000000  0.4694010000000  0.4723820000000 1.0
C      1  0.4755910000000  0.4787940000000  0.5427130000000 1.0
C      1  0.5102170000000  0.4464970000000  0.5324290000000 1.0
C      1  0.5058980000000  0.5576780000000  0.5293880000000 1.0
C      1  0.5194700000000  0.4971970000000  0.4348600000000 1.0
C      1  0.5098250000000  0.5481350000000  0.4499700000000 1.0
C      1  0.5041490000000  0.4249700000000  0.4894460000000 1.0
C      1  0.5159820000000  0.5201070000000  0.5807800000000 1.0
C      1  0.5687550000000  0.5101650000000  0.4827520000000 1.0
C      1  0.5590090000000  0.4832660000000  0.4970060000000 1.0
C      1  0.5631890000000  0.5096060000000  0.5143530000000 1.0
C      1  0.4801020000000  0.5602770000000  0.5207820000000 1.0
C      1  0.4981410000000  0.4815020000000  0.4412230000000 1.0
C      1  0.4949120000000  0.4558800000000  0.5500960000000 1.0
C      1  0.5431400000000  0.4614170000000  0.4968790000000 1.0
C      1  0.5444420000000  0.5226400000000  0.5293820000000 1.0
C      1  0.5536350000000  0.5237850000000  0.4641080000000 1.0
END
