TITL C-3289322-3858-268 0.00309090228858927 125000 -881.919893074411 0 0 170 (C1) n - 1
REM
REM in /nfs/bkarasulu/CARBON/AIRSS/Generating-Clusters/AIREBO/with-SteepDescent/Higher-Symm/SD-CG/HFTN-CG
REM
REM
REM
REM
REM
REM ./C.cell (b20cbc046b6831c77cfcea5457e17084)
REM
REM compiler GCC version 9.2.1 20190827 (Red Hat 9.2.1-1)
REM options -cpp -mtune=generic -march=x86-64 -g -O0 -fpre-include=/usr/include/finclude/math-vector-fortran.h
REM seed -439869202 1804534957 1126808008 -1434294604 -1750394005 931535386 -2135373636 1640278839 1297058669 89767598 1455890866 -1389127857 -774080615 -1998156761 975190845 -255637452 -1275552146 -941247787 -823544681 1669670139 544619593 -291680430 -614611366 -622010774 -797494023 1334139570 1304323243 1806272308 2125957651 -2073505904 -606156573 227272137 -1734264001
REM
CELL 1.54180   50.00000   50.00000   50.00000   90.00000   90.00000   90.00000
LATT -1
SFAC C  
C      1  0.4967260000000  0.4903010000000  0.3921570000000 1.0
C      1  0.3906200000000  0.5094050000000  0.5043360000000 1.0
C      1  0.5038460000000  0.4893290000000  0.6087110000000 1.0
C      1  0.6083320000000  0.5120000000000  0.4972010000000 1.0
C      1  0.5014380000000  0.5453280000000  0.5793660000000 1.0
C      1  0.5839620000000  0.4594440000000  0.4950650000000 1.0
C      1  0.4942820000000  0.5413710000000  0.4162840000000 1.0
C      1  0.4169590000000  0.4585200000000  0.5049150000000 1.0
C      1  0.4819480000000  0.4665540000000  0.4115580000000 1.0
C      1  0.4105160000000  0.5343400000000  0.5161510000000 1.0
C      1  0.5162450000000  0.4651690000000  0.5881920000000 1.0
C      1  0.5870370000000  0.5347240000000  0.4834070000000 1.0
C      1  0.5123320000000  0.4409630000000  0.4079140000000 1.0
C      1  0.4187160000000  0.5721000000000  0.4734510000000 1.0
C      1  0.4746850000000  0.4279140000000  0.5802470000000 1.0
C      1  0.5818210000000  0.5698570000000  0.5240100000000 1.0
C      1  0.5388030000000  0.4251930000000  0.5455700000000 1.0
C      1  0.5481780000000  0.5770170000000  0.4568280000000 1.0
C      1  0.4616820000000  0.4263530000000  0.4539330000000 1.0
C      1  0.4429300000000  0.5848390000000  0.5425680000000 1.0
C      1  0.4441040000000  0.5530630000000  0.4854030000000 1.0
C      1  0.4806070000000  0.4474850000000  0.5540670000000 1.0
C      1  0.5554720000000  0.5488510000000  0.5194760000000 1.0
C      1  0.5172900000000  0.4469550000000  0.4410200000000 1.0
C      1  0.5908290000000  0.4930890000000  0.5540740000000 1.0
C      1  0.5540800000000  0.5066020000000  0.4112880000000 1.0
C      1  0.4099460000000  0.4955820000000  0.4473970000000 1.0
C      1  0.4476430000000  0.5067260000000  0.5900880000000 1.0
C      1  0.4569030000000  0.5831420000000  0.4947800000000 1.0
C      1  0.4794450000000  0.4183360000000  0.5417840000000 1.0
C      1  0.5436360000000  0.5779710000000  0.5160730000000 1.0
C      1  0.5223410000000  0.4187940000000  0.4538790000000 1.0
C      1  0.5184430000000  0.4904100000000  0.4183110000000 1.0
C      1  0.4176240000000  0.5100390000000  0.4836850000000 1.0
C      1  0.4827880000000  0.4895820000000  0.5821540000000 1.0
C      1  0.5829950000000  0.5114130000000  0.5195200000000 1.0
C      1  0.4716310000000  0.5646210000000  0.4267370000000 1.0
C      1  0.4263500000000  0.4344040000000  0.5271900000000 1.0
C      1  0.5262090000000  0.5660020000000  0.5687760000000 1.0
C      1  0.5761580000000  0.4340220000000  0.4738110000000 1.0
C      1  0.4679660000000  0.5027760000000  0.4027800000000 1.0
C      1  0.4025640000000  0.4990400000000  0.5326150000000 1.0
C      1  0.5326220000000  0.4999650000000  0.5985210000000 1.0
C      1  0.5980340000000  0.4993040000000  0.4688090000000 1.0
C      1  0.4923100000000  0.4707690000000  0.4419280000000 1.0
C      1  0.4416230000000  0.5287730000000  0.5095100000000 1.0
C      1  0.5066530000000  0.4692110000000  0.5574980000000 1.0
C      1  0.5570850000000  0.5269860000000  0.4934460000000 1.0
C      1  0.4723980000000  0.5086200000000  0.4344420000000 1.0
C      1  0.4342550000000  0.4928990000000  0.5288460000000 1.0
C      1  0.5288240000000  0.5058390000000  0.5672180000000 1.0
C      1  0.5675200000000  0.4895490000000  0.4725590000000 1.0
C      1  0.4797120000000  0.4462940000000  0.4753370000000 1.0
C      1  0.4825290000000  0.5457470000000  0.5121560000000 1.0
C      1  0.5213440000000  0.4459740000000  0.5244050000000 1.0
C      1  0.5300740000000  0.5549690000000  0.4753270000000 1.0
C      1  0.4590490000000  0.5228380000000  0.4808980000000 1.0
C      1  0.4786740000000  0.4782840000000  0.5403960000000 1.0
C      1  0.5407280000000  0.5183090000000  0.5219840000000 1.0
C      1  0.5217010000000  0.4759570000000  0.4582310000000 1.0
C      1  0.5248430000000  0.5668050000000  0.4139490000000 1.0
C      1  0.4162260000000  0.4321960000000  0.4749540000000 1.0
C      1  0.4697910000000  0.5691830000000  0.5817540000000 1.0
C      1  0.5845870000000  0.4322890000000  0.5243690000000 1.0
C      1  0.6083130000000  0.4896980000000  0.5244300000000 1.0
C      1  0.5271140000000  0.5080750000000  0.3905810000000 1.0
C      1  0.3918310000000  0.4893030000000  0.4758650000000 1.0
C      1  0.4765170000000  0.5112980000000  0.6075540000000 1.0
C      1  0.5410170000000  0.4033830000000  0.5005440000000 1.0
C      1  0.4970090000000  0.5944020000000  0.4575910000000 1.0
C      1  0.4586070000000  0.4031250000000  0.5009340000000 1.0
C      1  0.5001720000000  0.5918690000000  0.5364390000000 1.0
C      1  0.4548370000000  0.4878970000000  0.5626900000000 1.0
C      1  0.5628270000000  0.5109660000000  0.5467850000000 1.0
C      1  0.5465620000000  0.4859860000000  0.4372770000000 1.0
C      1  0.4375440000000  0.5133710000000  0.4562810000000 1.0
C      1  0.4120310000000  0.5271090000000  0.5496150000000 1.0
C      1  0.5495420000000  0.4724190000000  0.5877680000000 1.0
C      1  0.5880450000000  0.5262830000000  0.4504100000000 1.0
C      1  0.4499840000000  0.4754430000000  0.4126880000000 1.0
C      1  0.4212410000000  0.5516860000000  0.5668550000000 1.0
C      1  0.5661320000000  0.4482950000000  0.5773800000000 1.0
C      1  0.5783240000000  0.5498090000000  0.4325960000000 1.0
C      1  0.4334020000000  0.4508970000000  0.4226910000000 1.0
C      1  0.5558530000000  0.4232640000000  0.5201100000000 1.0
C      1  0.5212240000000  0.5776570000000  0.4420720000000 1.0
C      1  0.4449270000000  0.4230340000000  0.4795630000000 1.0
C      1  0.4717570000000  0.5798920000000  0.5507720000000 1.0
C      1  0.3950870000000  0.4871840000000  0.5611630000000 1.0
C      1  0.5606590000000  0.5130840000000  0.6059120000000 1.0
C      1  0.6076210000000  0.4885330000000  0.4405040000000 1.0
C      1  0.4396380000000  0.5157410000000  0.3960930000000 1.0
C      1  0.5376330000000  0.4750890000000  0.5177650000000 1.0
C      1  0.5203930000000  0.5258230000000  0.4607130000000 1.0
C      1  0.4628450000000  0.4750280000000  0.4822080000000 1.0
C      1  0.4822450000000  0.5251170000000  0.5370860000000 1.0
C      1  0.5895260000000  0.4625070000000  0.5284710000000 1.0
C      1  0.5272990000000  0.5357610000000  0.4103660000000 1.0
C      1  0.4110980000000  0.4626640000000  0.4716760000000 1.0
C      1  0.4712730000000  0.5388570000000  0.5910710000000 1.0
C      1  0.4936770000000  0.5748700000000  0.5080760000000 1.0
C      1  0.5120820000000  0.4192830000000  0.5086690000000 1.0
C      1  0.5096530000000  0.5782350000000  0.4840690000000 1.0
C      1  0.4872700000000  0.4198630000000  0.4935680000000 1.0
C      1  0.4458260000000  0.4489880000000  0.4959400000000 1.0
C      1  0.4932040000000  0.5547960000000  0.5495400000000 1.0
C      1  0.5550500000000  0.4495000000000  0.5036870000000 1.0
C      1  0.5041210000000  0.5514470000000  0.4453850000000 1.0
C      1  0.4469430000000  0.5326810000000  0.5681290000000 1.0
C      1  0.5672540000000  0.4686530000000  0.5522490000000 1.0
C      1  0.5522440000000  0.5306320000000  0.4332590000000 1.0
C      1  0.4326730000000  0.4703070000000  0.4482150000000 1.0
C      1  0.5575600000000  0.4597630000000  0.4651290000000 1.0
C      1  0.4666180000000  0.5379470000000  0.4447120000000 1.0
C      1  0.4426600000000  0.4618700000000  0.5351220000000 1.0
C      1  0.5339910000000  0.5358670000000  0.5582520000000 1.0
C      1  0.4345900000000  0.5809620000000  0.5169120000000 1.0
C      1  0.5086900000000  0.4139100000000  0.5510330000000 1.0
C      1  0.5503920000000  0.5871000000000  0.4874250000000 1.0
C      1  0.4917240000000  0.4139700000000  0.4486220000000 1.0
C      1  0.4341950000000  0.5460190000000  0.4473900000000 1.0
C      1  0.4440650000000  0.4560300000000  0.5676450000000 1.0
C      1  0.5664930000000  0.5430290000000  0.5574920000000 1.0
C      1  0.5555950000000  0.4536810000000  0.4317230000000 1.0
C      1  0.4983470000000  0.5145790000000  0.5651900000000 1.0
C      1  0.5662030000000  0.4877410000000  0.5043500000000 1.0
C      1  0.5038840000000  0.5133120000000  0.4337490000000 1.0
C      1  0.4351070000000  0.4872530000000  0.4976270000000 1.0
C      1  0.4484940000000  0.4116260000000  0.5297700000000 1.0
C      1  0.5286900000000  0.5860680000000  0.5455220000000 1.0
C      1  0.5479710000000  0.4149070000000  0.4740320000000 1.0
C      1  0.4700710000000  0.5869100000000  0.4451100000000 1.0
C      1  0.5780810000000  0.4983970000000  0.4341860000000 1.0
C      1  0.4343250000000  0.5021570000000  0.4243270000000 1.0
C      1  0.4235000000000  0.5005480000000  0.5665570000000 1.0
C      1  0.5670050000000  0.4988090000000  0.5782740000000 1.0
C      1  0.4483150000000  0.5860100000000  0.4635560000000 1.0
C      1  0.4560070000000  0.4055450000000  0.5625570000000 1.0
C      1  0.5619360000000  0.5923590000000  0.5403030000000 1.0
C      1  0.5538880000000  0.4241280000000  0.4420090000000 1.0
C      1  0.4739000000000  0.6006510000000  0.5165340000000 1.0
C      1  0.5226760000000  0.3934230000000  0.5277460000000 1.0
C      1  0.5257840000000  0.6057490000000  0.4727200000000 1.0
C      1  0.4773650000000  0.3951820000000  0.4731000000000 1.0
C      1  0.5514080000000  0.5162240000000  0.4627620000000 1.0
C      1  0.4621980000000  0.4824360000000  0.4508390000000 1.0
C      1  0.4514020000000  0.5202500000000  0.5395540000000 1.0
C      1  0.5372170000000  0.4805590000000  0.5497170000000 1.0
C      1  0.5176650000000  0.5421090000000  0.5296200000000 1.0
C      1  0.5296340000000  0.4552500000000  0.4840090000000 1.0
C      1  0.4858630000000  0.5419760000000  0.4724620000000 1.0
C      1  0.4703390000000  0.4557360000000  0.5163410000000 1.0
C      1  0.4846620000000  0.4343250000000  0.4222700000000 1.0
C      1  0.4123160000000  0.5651820000000  0.5061860000000 1.0
C      1  0.5082320000000  0.4333660000000  0.5790640000000 1.0
C      1  0.5774440000000  0.5665640000000  0.4912940000000 1.0
C      1  0.5108070000000  0.5000350000000  0.4766750000000 1.0
C      1  0.4813230000000  0.4992580000000  0.4911680000000 1.0
C      1  0.4895920000000  0.4996600000000  0.5217820000000 1.0
C      1  0.5175690000000  0.4980270000000  0.5078130000000 1.0
C      1  0.5907690000000  0.5405030000000  0.5356010000000 1.0
C      1  0.5337240000000  0.4617720000000  0.4081820000000 1.0
C      1  0.4103550000000  0.5398090000000  0.4689580000000 1.0
C      1  0.4680530000000  0.4598870000000  0.5897240000000 1.0
C      1  0.4243530000000  0.5777560000000  0.5623750000000 1.0
C      1  0.5551290000000  0.4242420000000  0.5710740000000 1.0
C      1  0.5734260000000  0.5752380000000  0.4408110000000 1.0
C      1  0.4451370000000  0.4268100000000  0.4282810000000 1.0
C      1  0.5099140000000  0.5402430000000  0.4964800000000 1.0
C      1  0.4999290000000  0.4570930000000  0.5004510000000 1.0
END
