TITL C-3289333-7213-376 0.00483843210588825 125000 -1078.93093543805 0 0 191 (C1) n - 1
REM
REM in /nfs/bkarasulu/CARBON/AIRSS/Generating-Clusters/AIREBO/with-SteepDescent/Higher-Symm/SD-CG/HFTN-CG
REM
REM
REM
REM
REM
REM ./C.cell (b20cbc046b6831c77cfcea5457e17084)
REM
REM compiler GCC version 9.2.1 20190827 (Red Hat 9.2.1-1)
REM options -cpp -mtune=generic -march=x86-64 -g -O0 -fpre-include=/usr/include/finclude/math-vector-fortran.h
REM seed 1289951977 464244793 1497666380 1070426488 -1589579692 -300430770 1416345002 -654823671 84801857 1269310718 1929885846 -133740117 -1380462911 -2004680071 1794890532 1221823749 2028632252 -682938465 990347006 2082464390 957338359 1875859404 -16842231 820572816 1322537557 613973689 -1275730903 1295492171 -1705679779 1884541491 753530529 424006413 -1997958782
REM
CELL 1.54180   50.00000   50.00000   50.00000   90.00000   90.00000   90.00000
LATT -1
SFAC C  
C      1  0.5536120000000  0.5966810000000  0.5408810000000 1.0
C      1  0.5335780000000  0.5554920000000  0.5994220000000 1.0
C      1  0.5954340000000  0.5346890000000  0.5524500000000 1.0
C      1  0.4370040000000  0.4005680000000  0.5278050000000 1.0
C      1  0.4404420000000  0.5925870000000  0.4734940000000 1.0
C      1  0.5757530000000  0.4097650000000  0.4829860000000 1.0
C      1  0.4655130000000  0.4430490000000  0.5904660000000 1.0
C      1  0.4644530000000  0.5614550000000  0.4048820000000 1.0
C      1  0.5237890000000  0.4314860000000  0.4208450000000 1.0
C      1  0.4049870000000  0.4697590000000  0.5517900000000 1.0
C      1  0.3985830000000  0.5391900000000  0.4373460000000 1.0
C      1  0.5896610000000  0.4751780000000  0.4243100000000 1.0
C      1  0.5567200000000  0.5325030000000  0.4353880000000 1.0
C      1  0.4354630000000  0.5670340000000  0.5451760000000 1.0
C      1  0.5337070000000  0.4178380000000  0.5825060000000 1.0
C      1  0.4447890000000  0.4660270000000  0.4406500000000 1.0
C      1  0.4342520000000  0.5435650000000  0.5823400000000 1.0
C      1  0.5684060000000  0.4577800000000  0.5855760000000 1.0
C      1  0.5791650000000  0.4343370000000  0.5482140000000 1.0
C      1  0.5719010000000  0.5691410000000  0.4566490000000 1.0
C      1  0.4139640000000  0.4403940000000  0.4574270000000 1.0
C      1  0.4528360000000  0.5780870000000  0.5637280000000 1.0
C      1  0.4526780000000  0.4239070000000  0.4371390000000 1.0
C      1  0.5417750000000  0.5670990000000  0.4492000000000 1.0
C      1  0.4785030000000  0.4332740000000  0.5524690000000 1.0
C      1  0.5414460000000  0.4850060000000  0.4451480000000 1.0
C      1  0.4389820000000  0.5429980000000  0.4742890000000 1.0
C      1  0.5122260000000  0.5593640000000  0.5486420000000 1.0
C      1  0.5310000000000  0.4292750000000  0.4599640000000 1.0
C      1  0.4881280000000  0.5725880000000  0.4598080000000 1.0
C      1  0.4513750000000  0.5198560000000  0.4335450000000 1.0
C      1  0.4476140000000  0.4894390000000  0.5591230000000 1.0
C      1  0.5560540000000  0.5147210000000  0.5616880000000 1.0
C      1  0.5735430000000  0.4568610000000  0.4721550000000 1.0
C      1  0.5717290000000  0.5526870000000  0.5056490000000 1.0
C      1  0.4426830000000  0.4473590000000  0.5119750000000 1.0
C      1  0.4151110000000  0.4873950000000  0.4805560000000 1.0
C      1  0.4907320000000  0.4118670000000  0.4905810000000 1.0
C      1  0.4749550000000  0.4841540000000  0.4224760000000 1.0
C      1  0.5843640000000  0.5242140000000  0.4811700000000 1.0
C      1  0.5894000000000  0.4836600000000  0.5142410000000 1.0
C      1  0.4132220000000  0.5262000000000  0.5143780000000 1.0
C      1  0.5215750000000  0.5926110000000  0.4907800000000 1.0
C      1  0.5130610000000  0.4068990000000  0.5222930000000 1.0
C      1  0.4807560000000  0.5738990000000  0.5106630000000 1.0
C      1  0.5166890000000  0.5143610000000  0.4158010000000 1.0
C      1  0.5185360000000  0.5018640000000  0.5831880000000 1.0
C      1  0.4772750000000  0.5106660000000  0.5827840000000 1.0
C      1  0.5457840000000  0.5991000000000  0.4600490000000 1.0
C      1  0.4569120000000  0.5394670000000  0.6010950000000 1.0
C      1  0.5961190000000  0.4538730000000  0.5398000000000 1.0
C      1  0.4579490000000  0.4057420000000  0.4567420000000 1.0
C      1  0.4668820000000  0.6057420000000  0.5563810000000 1.0
C      1  0.5474660000000  0.4116100000000  0.5551310000000 1.0
C      1  0.5386070000000  0.4577370000000  0.5876030000000 1.0
C      1  0.5437540000000  0.5421050000000  0.4089880000000 1.0
C      1  0.4471220000000  0.4467580000000  0.4132060000000 1.0
C      1  0.4096060000000  0.5540760000000  0.5419870000000 1.0
C      1  0.4020370000000  0.4609310000000  0.4501140000000 1.0
C      1  0.5941210000000  0.5487070000000  0.4512640000000 1.0
C      1  0.5445640000000  0.5404310000000  0.4934820000000 1.0
C      1  0.4891230000000  0.5361700000000  0.5382810000000 1.0
C      1  0.5364690000000  0.4782300000000  0.5274900000000 1.0
C      1  0.4659450000000  0.4544860000000  0.4804990000000 1.0
C      1  0.4640300000000  0.5347600000000  0.5197500000000 1.0
C      1  0.5398900000000  0.4488690000000  0.5117810000000 1.0
C      1  0.5134210000000  0.4624800000000  0.5444890000000 1.0
C      1  0.5294490000000  0.5409140000000  0.4631430000000 1.0
C      1  0.4836140000000  0.4637320000000  0.4564220000000 1.0
C      1  0.4485600000000  0.5136320000000  0.5352460000000 1.0
C      1  0.4610210000000  0.4889770000000  0.4593900000000 1.0
C      1  0.5481210000000  0.5134290000000  0.4621960000000 1.0
C      1  0.4480210000000  0.3904490000000  0.5037850000000 1.0
C      1  0.4989590000000  0.4462590000000  0.4106340000000 1.0
C      1  0.3892630000000  0.5155300000000  0.4478110000000 1.0
C      1  0.5434940000000  0.6100180000000  0.5194180000000 1.0
C      1  0.5585450000000  0.4010760000000  0.5060790000000 1.0
C      1  0.4501890000000  0.6183600000000  0.4860540000000 1.0
C      1  0.4865680000000  0.5478000000000  0.3957050000000 1.0
C      1  0.4907820000000  0.4522300000000  0.5958360000000 1.0
C      1  0.5093520000000  0.5451390000000  0.6082260000000 1.0
C      1  0.6068750000000  0.4918990000000  0.4453340000000 1.0
C      1  0.6076200000000  0.5119540000000  0.5428230000000 1.0
C      1  0.3922130000000  0.4926070000000  0.5422370000000 1.0
C      1  0.5792640000000  0.5871400000000  0.5412650000000 1.0
C      1  0.5328600000000  0.5809770000000  0.5886350000000 1.0
C      1  0.5874350000000  0.5363520000000  0.5784260000000 1.0
C      1  0.4143510000000  0.4166920000000  0.5267380000000 1.0
C      1  0.4084770000000  0.5867870000000  0.4665450000000 1.0
C      1  0.5947540000000  0.4205270000000  0.4568430000000 1.0
C      1  0.4586590000000  0.4175930000000  0.5833760000000 1.0
C      1  0.4640500000000  0.5854990000000  0.4185320000000 1.0
C      1  0.5391710000000  0.4035830000000  0.4305020000000 1.0
C      1  0.4140310000000  0.4701520000000  0.5779680000000 1.0
C      1  0.4110520000000  0.5423450000000  0.4129880000000 1.0
C      1  0.5625860000000  0.4693590000000  0.4064200000000 1.0
C      1  0.5378780000000  0.3825620000000  0.5029330000000 1.0
C      1  0.4841880000000  0.5231180000000  0.3834850000000 1.0
C      1  0.3791920000000  0.4925940000000  0.5184070000000 1.0
C      1  0.4714710000000  0.6232130000000  0.4978670000000 1.0
C      1  0.4724090000000  0.3760790000000  0.5039000000000 1.0
C      1  0.5185050000000  0.6198050000000  0.5199180000000 1.0
C      1  0.4989280000000  0.4679560000000  0.3941400000000 1.0
C      1  0.5066780000000  0.5230350000000  0.6246600000000 1.0
C      1  0.4939940000000  0.4711460000000  0.6148050000000 1.0
C      1  0.6216730000000  0.5117530000000  0.5196680000000 1.0
C      1  0.6204110000000  0.4879940000000  0.4693360000000 1.0
C      1  0.3769940000000  0.5168280000000  0.4723620000000 1.0
C      1  0.4795550000000  0.4978640000000  0.5510260000000 1.0
C      1  0.5697840000000  0.4941630000000  0.4795420000000 1.0
C      1  0.4910620000000  0.5558610000000  0.4852100000000 1.0
C      1  0.5069660000000  0.5136170000000  0.5564870000000 1.0
C      1  0.5018470000000  0.4889550000000  0.4427280000000 1.0
C      1  0.5086270000000  0.5214780000000  0.4478630000000 1.0
C      1  0.4450590000000  0.4945520000000  0.4848790000000 1.0
C      1  0.4250980000000  0.4948650000000  0.5193260000000 1.0
C      1  0.5603360000000  0.4972140000000  0.5119540000000 1.0
C      1  0.5139730000000  0.4334820000000  0.5028730000000 1.0
C      1  0.5190300000000  0.5624500000000  0.4978770000000 1.0
C      1  0.4742640000000  0.4377920000000  0.5037100000000 1.0
C      1  0.5306580000000  0.5137060000000  0.5101040000000 1.0
C      1  0.5173410000000  0.5425220000000  0.5222850000000 1.0
C      1  0.5334150000000  0.5081960000000  0.5432840000000 1.0
C      1  0.4531840000000  0.4779010000000  0.5103100000000 1.0
C      1  0.4560900000000  0.5233980000000  0.4886730000000 1.0
C      1  0.5473330000000  0.4695450000000  0.4863230000000 1.0
C      1  0.4876050000000  0.4529950000000  0.5280450000000 1.0
C      1  0.4876870000000  0.5251080000000  0.4823780000000 1.0
C      1  0.5095680000000  0.4487760000000  0.4727910000000 1.0
C      1  0.4839960000000  0.4851510000000  0.5197610000000 1.0
C      1  0.4752820000000  0.5169130000000  0.4527050000000 1.0
C      1  0.5194250000000  0.4812590000000  0.4708150000000 1.0
C      1  0.4493090000000  0.4792340000000  0.4045110000000 1.0
C      1  0.4110550000000  0.4605820000000  0.4915870000000 1.0
C      1  0.4855400000000  0.4069030000000  0.4620480000000 1.0
C      1  0.5479690000000  0.5095080000000  0.4042860000000 1.0
C      1  0.5423360000000  0.4876500000000  0.5870090000000 1.0
C      1  0.4470240000000  0.5083750000000  0.5942570000000 1.0
C      1  0.5978050000000  0.5553520000000  0.4835850000000 1.0
C      1  0.5989090000000  0.4529020000000  0.5107310000000 1.0
C      1  0.4035220000000  0.5567520000000  0.5102280000000 1.0
C      1  0.5132990000000  0.5935360000000  0.4580430000000 1.0
C      1  0.5193960000000  0.4039510000000  0.5483810000000 1.0
C      1  0.4840240000000  0.5858780000000  0.5404590000000 1.0
C      1  0.4459850000000  0.4655850000000  0.5802250000000 1.0
C      1  0.5862900000000  0.4504190000000  0.4431440000000 1.0
C      1  0.4609970000000  0.5816420000000  0.4505230000000 1.0
C      1  0.5554150000000  0.5394530000000  0.5842580000000 1.0
C      1  0.5422460000000  0.4595870000000  0.4260140000000 1.0
C      1  0.4423900000000  0.5441850000000  0.4163140000000 1.0
C      1  0.4120200000000  0.5566610000000  0.4582480000000 1.0
C      1  0.4202840000000  0.4474020000000  0.5364850000000 1.0
C      1  0.5805950000000  0.5553960000000  0.5341470000000 1.0
C      1  0.5569280000000  0.4080850000000  0.4573680000000 1.0
C      1  0.5336760000000  0.5790480000000  0.5571960000000 1.0
C      1  0.4533180000000  0.4103780000000  0.5507350000000 1.0
C      1  0.5115940000000  0.5480570000000  0.4133860000000 1.0
C      1  0.4067070000000  0.5203300000000  0.5472280000000 1.0
C      1  0.5564620000000  0.4242670000000  0.5268440000000 1.0
C      1  0.4769570000000  0.4450750000000  0.4302340000000 1.0
C      1  0.4857450000000  0.5434810000000  0.5883590000000 1.0
C      1  0.5132860000000  0.4508700000000  0.5736000000000 1.0
C      1  0.5940700000000  0.4847030000000  0.5492040000000 1.0
C      1  0.5915620000000  0.5180870000000  0.4482950000000 1.0
C      1  0.4086500000000  0.4921700000000  0.4478980000000 1.0
C      1  0.4502140000000  0.5637750000000  0.5181670000000 1.0
C      1  0.4415240000000  0.4050190000000  0.4803450000000 1.0
C      1  0.5543360000000  0.6025940000000  0.4912910000000 1.0
C      1  0.5739350000000  0.5793610000000  0.4867930000000 1.0
C      1  0.4836030000000  0.5638540000000  0.5664060000000 1.0
C      1  0.5703250000000  0.4865710000000  0.5675870000000 1.0
C      1  0.4284950000000  0.4319680000000  0.4857450000000 1.0
C      1  0.4300590000000  0.5675700000000  0.4940700000000 1.0
C      1  0.5865490000000  0.4392500000000  0.4909550000000 1.0
C      1  0.5027090000000  0.4206170000000  0.5685240000000 1.0
C      1  0.5117750000000  0.5674200000000  0.4360530000000 1.0
C      1  0.5039080000000  0.4188440000000  0.4453810000000 1.0
C      1  0.4267270000000  0.5146840000000  0.5682270000000 1.0
C      1  0.4342240000000  0.4956110000000  0.4302320000000 1.0
C      1  0.5682650000000  0.5009130000000  0.4303380000000 1.0
C      1  0.4954850000000  0.4991180000000  0.4005610000000 1.0
C      1  0.3952440000000  0.5062490000000  0.4953080000000 1.0
C      1  0.5038770000000  0.3832010000000  0.5032950000000 1.0
C      1  0.4981000000000  0.4996750000000  0.6061530000000 1.0
C      1  0.6063100000000  0.5018990000000  0.4938850000000 1.0
C      1  0.4939290000000  0.6045510000000  0.5065650000000 1.0
C      1  0.4425690000000  0.5568250000000  0.4454810000000 1.0
C      1  0.5574590000000  0.4371210000000  0.4415660000000 1.0
C      1  0.4466340000000  0.4433940000000  0.5553470000000 1.0
C      1  0.5581680000000  0.5577670000000  0.5578420000000 1.0
C      1  0.5040880000000  0.4990530000000  0.4957760000000 1.0
END
