TITL C-3289328-6581-189 -0.00471153017796392 125000 -314.07183871982 0 0 52 (C1) n - 1
REM
REM in /nfs/bkarasulu/CARBON/AIRSS/Generating-Clusters/AIREBO/with-SteepDescent/Higher-Symm/SD-CG/HFTN-CG
REM
REM
REM
REM
REM
REM ./C.cell (b20cbc046b6831c77cfcea5457e17084)
REM
REM compiler GCC version 9.2.1 20190827 (Red Hat 9.2.1-1)
REM options -cpp -mtune=generic -march=x86-64 -g -O0 -fpre-include=/usr/include/finclude/math-vector-fortran.h
REM seed 1276430660 1754526264 -1931041904 1603516539 690101036 -1925092936 -1199350256 -1867690403 -560274868 1287833903 1666711476 -36562837 1705250630 363588685 -1744391873 -838310056 1631831942 -1490450744 1253865888 1912953645 -284850045 -1403053952 53361284 -350459399 -2018605563 -2111054890 -1882431636 -1146449460 1088156996 369884161 1025275351 1758811541 -1623354162
REM
CELL 1.54180   50.00000   50.00000   50.00000   90.00000   90.00000   90.00000
LATT -1
SFAC C  
C      1  0.5548430000000  0.4847030000000  0.5319450000000 1.0
C      1  0.5533580000000  0.5187280000000  0.4665690000000 1.0
C      1  0.5495210000000  0.5156600000000  0.5344850000000 1.0
C      1  0.5548190000000  0.4860030000000  0.4714720000000 1.0
C      1  0.5346640000000  0.5589840000000  0.5276710000000 1.0
C      1  0.5431030000000  0.4410650000000  0.4739120000000 1.0
C      1  0.5413820000000  0.4398550000000  0.5256240000000 1.0
C      1  0.5403280000000  0.5500480000000  0.4729520000000 1.0
C      1  0.5072680000000  0.4817580000000  0.4799850000000 1.0
C      1  0.5029610000000  0.5096070000000  0.5077030000000 1.0
C      1  0.5062830000000  0.5131800000000  0.4790120000000 1.0
C      1  0.5024430000000  0.4797740000000  0.5103370000000 1.0
C      1  0.5131010000000  0.5536070000000  0.4696730000000 1.0
C      1  0.5133010000000  0.4421590000000  0.5284840000000 1.0
C      1  0.5152410000000  0.4426730000000  0.4689940000000 1.0
C      1  0.5068790000000  0.5550480000000  0.5256500000000 1.0
C      1  0.5032140000000  0.5295370000000  0.4516700000000 1.0
C      1  0.5047620000000  0.4704070000000  0.5396130000000 1.0
C      1  0.5065250000000  0.4685370000000  0.4510980000000 1.0
C      1  0.4952020000000  0.5259950000000  0.5327150000000 1.0
C      1  0.4941050000000  0.4293050000000  0.5122490000000 1.0
C      1  0.4930470000000  0.5695990000000  0.4820720000000 1.0
C      1  0.4896200000000  0.5710270000000  0.5103450000000 1.0
C      1  0.4951390000000  0.4294550000000  0.4837580000000 1.0
C      1  0.4787400000000  0.4810680000000  0.5529060000000 1.0
C      1  0.4765660000000  0.5135760000000  0.4522770000000 1.0
C      1  0.4781780000000  0.5090540000000  0.5567900000000 1.0
C      1  0.4773480000000  0.4857640000000  0.4539430000000 1.0
C      1  0.4444270000000  0.4865520000000  0.4894170000000 1.0
C      1  0.4625940000000  0.5209160000000  0.5219160000000 1.0
C      1  0.4497580000000  0.5168430000000  0.4906880000000 1.0
C      1  0.4483940000000  0.4900380000000  0.5196030000000 1.0
C      1  0.4522650000000  0.5549850000000  0.4597590000000 1.0
C      1  0.4523910000000  0.4439520000000  0.5364010000000 1.0
C      1  0.4529260000000  0.4451390000000  0.4634740000000 1.0
C      1  0.4582470000000  0.5638920000000  0.5476080000000 1.0
C      1  0.5605450000000  0.5376530000000  0.4934360000000 1.0
C      1  0.5561240000000  0.4620450000000  0.5149660000000 1.0
C      1  0.5570310000000  0.4628190000000  0.4864110000000 1.0
C      1  0.5535460000000  0.5391990000000  0.5201370000000 1.0
C      1  0.4671590000000  0.5790740000000  0.5258940000000 1.0
C      1  0.4706230000000  0.4253500000000  0.4702980000000 1.0
C      1  0.4688790000000  0.4254890000000  0.5245480000000 1.0
C      1  0.4701290000000  0.5748520000000  0.4662990000000 1.0
C      1  0.5285970000000  0.4858580000000  0.5500190000000 1.0
C      1  0.5298470000000  0.5166670000000  0.4418910000000 1.0
C      1  0.5223180000000  0.5158960000000  0.5505900000000 1.0
C      1  0.5334120000000  0.4880800000000  0.4505140000000 1.0
C      1  0.4561510000000  0.5278390000000  0.4658420000000 1.0
C      1  0.4559940000000  0.4716770000000  0.5388860000000 1.0
C      1  0.4559260000000  0.4727700000000  0.4673700000000 1.0
C      1  0.4607760000000  0.5362400000000  0.5501340000000 1.0
END
