TITL C-3289320-4661-734 0.0069727040391024 125000 -281.974894341058 0 0 53 (C1) n - 1
REM
REM in /nfs/bkarasulu/CARBON/AIRSS/Generating-Clusters/AIREBO/with-SteepDescent/Higher-Symm/SD-CG/HFTN-CG
REM
REM
REM
REM
REM
REM ./C.cell (b20cbc046b6831c77cfcea5457e17084)
REM
REM compiler GCC version 9.2.1 20190827 (Red Hat 9.2.1-1)
REM options -cpp -mtune=generic -march=x86-64 -g -O0 -fpre-include=/usr/include/finclude/math-vector-fortran.h
REM seed 541649164 643653899 1810215569 1669324861 1560555000 507812338 2044892266 242002284 1012511607 1030003681 2050462133 -1060493786 2001062331 370853871 -2125778970 433869832 1924841326 -1967878376 1351291787 1256751087 220027230 1638253304 -424638706 1897300859 -1900551669 -1115616877 -1874134057 -731328554 1334551273 819186085 1554461288 -131343464 -829270104
REM
CELL 1.54180   50.00000   50.00000   50.00000   90.00000   90.00000   90.00000
LATT -1
SFAC C  
C      1  0.5361570000000  0.5101190000000  0.5256480000000 1.0
C      1  0.4823210000000  0.5180110000000  0.5263560000000 1.0
C      1  0.4939800000000  0.4632520000000  0.5249220000000 1.0
C      1  0.5353200000000  0.5161150000000  0.4730010000000 1.0
C      1  0.4839930000000  0.5213020000000  0.4704690000000 1.0
C      1  0.4987730000000  0.4723780000000  0.4726330000000 1.0
C      1  0.4752110000000  0.5542970000000  0.5402150000000 1.0
C      1  0.4818060000000  0.4552340000000  0.5529680000000 1.0
C      1  0.5552780000000  0.4925800000000  0.5476290000000 1.0
C      1  0.4599660000000  0.5330590000000  0.4247040000000 1.0
C      1  0.4738120000000  0.4542220000000  0.4583550000000 1.0
C      1  0.5358160000000  0.5120020000000  0.4333190000000 1.0
C      1  0.5022370000000  0.5533020000000  0.4550080000000 1.0
C      1  0.4460380000000  0.4929650000000  0.4462430000000 1.0
C      1  0.5352420000000  0.4640800000000  0.4584600000000 1.0
C      1  0.5213490000000  0.5433090000000  0.5553510000000 1.0
C      1  0.4531660000000  0.4947450000000  0.5406380000000 1.0
C      1  0.5283070000000  0.4597250000000  0.5527670000000 1.0
C      1  0.5239660000000  0.4886980000000  0.5603050000000 1.0
C      1  0.4936100000000  0.5304040000000  0.5559610000000 1.0
C      1  0.4747950000000  0.4833120000000  0.5568000000000 1.0
C      1  0.5209020000000  0.4881200000000  0.4396840000000 1.0
C      1  0.4867460000000  0.5274720000000  0.4391430000000 1.0
C      1  0.4703550000000  0.4797060000000  0.4402300000000 1.0
C      1  0.4580640000000  0.5324680000000  0.5073850000000 1.0
C      1  0.4969490000000  0.4373810000000  0.5090810000000 1.0
C      1  0.5633070000000  0.5209160000000  0.5098590000000 1.0
C      1  0.4604660000000  0.5365970000000  0.4827860000000 1.0
C      1  0.5009540000000  0.4406240000000  0.4846150000000 1.0
C      1  0.5620500000000  0.5233280000000  0.4848220000000 1.0
C      1  0.4554760000000  0.5265430000000  0.5454360000000 1.0
C      1  0.5068580000000  0.4437330000000  0.5623990000000 1.0
C      1  0.5426410000000  0.5237930000000  0.5561010000000 1.0
C      1  0.4397110000000  0.5151520000000  0.4303690000000 1.0
C      1  0.5067810000000  0.4514680000000  0.4470330000000 1.0
C      1  0.5257990000000  0.5360400000000  0.4488720000000 1.0
C      1  0.4983360000000  0.5606130000000  0.4862900000000 1.0
C      1  0.4419230000000  0.4882630000000  0.4766840000000 1.0
C      1  0.5458520000000  0.4666240000000  0.4908900000000 1.0
C      1  0.5207350000000  0.5605170000000  0.5308920000000 1.0
C      1  0.4499710000000  0.4817410000000  0.5090740000000 1.0
C      1  0.5403560000000  0.4553160000000  0.5226260000000 1.0
C      1  0.5101010000000  0.5293390000000  0.4857170000000 1.0
C      1  0.4753020000000  0.4935150000000  0.4806370000000 1.0
C      1  0.5223670000000  0.4896810000000  0.4855350000000 1.0
C      1  0.5124920000000  0.5304000000000  0.5167530000000 1.0
C      1  0.4814590000000  0.4896370000000  0.5131060000000 1.0
C      1  0.5205520000000  0.4822680000000  0.5172730000000 1.0
C      1  0.4527940000000  0.4574290000000  0.4849260000000 1.0
C      1  0.4946150000000  0.5667240000000  0.5152010000000 1.0
C      1  0.5636290000000  0.4784750000000  0.5177630000000 1.0
C      1  0.4930980000000  0.4952010000000  0.4380130000000 1.0
C      1  0.4978810000000  0.4996140000000  0.5611170000000 1.0
END
