TITL C-3289320-4661-544 -0.00153917562673268 125000 -372.332735901339 0 0 71 (C1) n - 1
REM
REM in /nfs/bkarasulu/CARBON/AIRSS/Generating-Clusters/AIREBO/with-SteepDescent/Higher-Symm/SD-CG/HFTN-CG
REM
REM
REM
REM
REM
REM ./C.cell (b20cbc046b6831c77cfcea5457e17084)
REM
REM compiler GCC version 9.2.1 20190827 (Red Hat 9.2.1-1)
REM options -cpp -mtune=generic -march=x86-64 -g -O0 -fpre-include=/usr/include/finclude/math-vector-fortran.h
REM seed 213735719 -461479030 635433829 -110153039 1549627461 1167062215 -1148262882 1172139819 -1731126796 1374643122 158085569 -1425384159 -1495462351 -1713491129 316538524 1585579085 -296809289 -1940616660 131463440 -2013255707 1414739878 -1097853825 1306703684 820253448 -2130624576 347212655 262457654 1904943607 -618479589 -400793096 -128943903 685195428 -481884338
REM
CELL 1.54180   50.00000   50.00000   50.00000   90.00000   90.00000   90.00000
LATT -1
SFAC C  
C      1  0.4430670000000  0.5122350000000  0.4512490000000 1.0
C      1  0.5562410000000  0.4960440000000  0.4381090000000 1.0
C      1  0.5597520000000  0.5167620000000  0.5538450000000 1.0
C      1  0.4444610000000  0.4804960000000  0.5623300000000 1.0
C      1  0.4992830000000  0.5292620000000  0.4375550000000 1.0
C      1  0.5577720000000  0.4650530000000  0.4913680000000 1.0
C      1  0.5001870000000  0.5343970000000  0.5582160000000 1.0
C      1  0.4373930000000  0.4654740000000  0.5003310000000 1.0
C      1  0.5796560000000  0.4878910000000  0.4866870000000 1.0
C      1  0.5050550000000  0.5184210000000  0.5868720000000 1.0
C      1  0.4163140000000  0.4904670000000  0.5059510000000 1.0
C      1  0.4817400000000  0.5081630000000  0.4178870000000 1.0
C      1  0.5518080000000  0.4556990000000  0.5190970000000 1.0
C      1  0.4691070000000  0.5428470000000  0.5482070000000 1.0
C      1  0.4424980000000  0.4578730000000  0.4690870000000 1.0
C      1  0.5283060000000  0.5421210000000  0.4430260000000 1.0
C      1  0.5306760000000  0.4933900000000  0.4836740000000 1.0
C      1  0.5169630000000  0.5064270000000  0.5351630000000 1.0
C      1  0.4676140000000  0.4918590000000  0.5176880000000 1.0
C      1  0.4835520000000  0.5043750000000  0.4714350000000 1.0
C      1  0.5749640000000  0.5037960000000  0.4197470000000 1.0
C      1  0.5834790000000  0.5137570000000  0.5714970000000 1.0
C      1  0.4247150000000  0.4791340000000  0.5844640000000 1.0
C      1  0.4526200000000  0.5006940000000  0.4243050000000 1.0
C      1  0.4329760000000  0.4772990000000  0.5312940000000 1.0
C      1  0.4680040000000  0.5330180000000  0.4411280000000 1.0
C      1  0.5633470000000  0.4763820000000  0.4597600000000 1.0
C      1  0.5309900000000  0.5241160000000  0.5683160000000 1.0
C      1  0.5795340000000  0.5058580000000  0.5063950000000 1.0
C      1  0.4868240000000  0.4984900000000  0.5875370000000 1.0
C      1  0.4216160000000  0.5210470000000  0.4988470000000 1.0
C      1  0.5110010000000  0.4964890000000  0.4180430000000 1.0
C      1  0.5400790000000  0.5656710000000  0.4432840000000 1.0
C      1  0.5563990000000  0.4367670000000  0.5360780000000 1.0
C      1  0.4487420000000  0.5583080000000  0.5496130000000 1.0
C      1  0.4414760000000  0.4337470000000  0.4580520000000 1.0
C      1  0.4836680000000  0.5129120000000  0.5376540000000 1.0
C      1  0.4643980000000  0.4802730000000  0.4858810000000 1.0
C      1  0.5153520000000  0.5173960000000  0.4650910000000 1.0
C      1  0.5333270000000  0.4841440000000  0.5166210000000 1.0
C      1  0.4646740000000  0.4678180000000  0.5387230000000 1.0
C      1  0.4625900000000  0.5295270000000  0.4733650000000 1.0
C      1  0.5318250000000  0.4665460000000  0.4655450000000 1.0
C      1  0.5355410000000  0.5331360000000  0.5362280000000 1.0
C      1  0.5403760000000  0.5472070000000  0.5123240000000 1.0
C      1  0.4895210000000  0.4528130000000  0.5343000000000 1.0
C      1  0.4720030000000  0.5469630000000  0.4947140000000 1.0
C      1  0.5089530000000  0.4509510000000  0.4626910000000 1.0
C      1  0.5171920000000  0.5418640000000  0.4887840000000 1.0
C      1  0.5032250000000  0.4692150000000  0.5114040000000 1.0
C      1  0.4943130000000  0.5315400000000  0.5112650000000 1.0
C      1  0.4881130000000  0.4559050000000  0.4849070000000 1.0
C      1  0.5336070000000  0.5825460000000  0.4631210000000 1.0
C      1  0.5590200000000  0.4163450000000  0.5522910000000 1.0
C      1  0.4288580000000  0.5753720000000  0.5490120000000 1.0
C      1  0.4583570000000  0.4141510000000  0.4681410000000 1.0
C      1  0.4787120000000  0.5736760000000  0.4882170000000 1.0
C      1  0.4889230000000  0.4092410000000  0.4641070000000 1.0
C      1  0.5376000000000  0.5756810000000  0.4950510000000 1.0
C      1  0.4868710000000  0.4232000000000  0.5201480000000 1.0
C      1  0.5677620000000  0.5630280000000  0.5035210000000 1.0
C      1  0.4926810000000  0.4230280000000  0.5509610000000 1.0
C      1  0.4627060000000  0.5956440000000  0.4891950000000 1.0
C      1  0.5062590000000  0.4267420000000  0.4504900000000 1.0
C      1  0.5599560000000  0.5035630000000  0.5250500000000 1.0
C      1  0.4714770000000  0.4969880000000  0.5651500000000 1.0
C      1  0.4370980000000  0.4995310000000  0.4794550000000 1.0
C      1  0.5290460000000  0.5025490000000  0.4377160000000 1.0
C      1  0.5072540000000  0.5736740000000  0.4816910000000 1.0
C      1  0.4788920000000  0.4249850000000  0.4923140000000 1.0
C      1  0.5016320000000  0.5007450000000  0.4987670000000 1.0
END
