TITL C-3289326-3776-218 -0.0030853305585429 125000 -766.347035042562 0 0 138 (C1) n - 1
REM
REM in /nfs/bkarasulu/CARBON/AIRSS/Generating-Clusters/AIREBO/with-SteepDescent/Higher-Symm/SD-CG/HFTN-CG
REM
REM
REM
REM
REM
REM ./C.cell (b20cbc046b6831c77cfcea5457e17084)
REM
REM compiler GCC version 9.2.1 20190827 (Red Hat 9.2.1-1)
REM options -cpp -mtune=generic -march=x86-64 -g -O0 -fpre-include=/usr/include/finclude/math-vector-fortran.h
REM seed -107451844 60377951 -1437663148 309374449 1729003921 298728023 -649863854 1496242775 -1921534459 -1696969699 -892290354 -1725072791 1691171085 891632675 378139363 1679703507 -1479437261 -1776701984 635898415 1441003476 1114199532 1766433630 -1766867918 893922011 -898473225 1709532124 -1100583342 -2025006516 1944564731 -852225875 1593059436 -590945088 876041038
REM
CELL 1.54180   50.00000   50.00000   50.00000   90.00000   90.00000   90.00000
LATT -1
SFAC C  
C      1  0.5708300000000  0.4668570000000  0.5498450000000 1.0
C      1  0.5491580000000  0.5758190000000  0.4724140000000 1.0
C      1  0.4710160000000  0.5452420000000  0.5703420000000 1.0
C      1  0.4275770000000  0.4677810000000  0.4509030000000 1.0
C      1  0.5727250000000  0.5365490000000  0.4464650000000 1.0
C      1  0.4223570000000  0.5264140000000  0.5515490000000 1.0
C      1  0.4471580000000  0.5677410000000  0.5320260000000 1.0
C      1  0.5488620000000  0.4220380000000  0.5313460000000 1.0
C      1  0.4524590000000  0.4274260000000  0.4713350000000 1.0
C      1  0.5247660000000  0.5529660000000  0.4314210000000 1.0
C      1  0.4747540000000  0.4527980000000  0.4289920000000 1.0
C      1  0.5255880000000  0.4477780000000  0.5747640000000 1.0
C      1  0.5436950000000  0.4751000000000  0.5679490000000 1.0
C      1  0.4778060000000  0.5596040000000  0.5444800000000 1.0
C      1  0.5715530000000  0.5607630000000  0.4668860000000 1.0
C      1  0.4513880000000  0.4756560000000  0.4343490000000 1.0
C      1  0.4484840000000  0.5209120000000  0.5656150000000 1.0
C      1  0.5463920000000  0.5272900000000  0.4354460000000 1.0
C      1  0.5195410000000  0.5700350000000  0.4577170000000 1.0
C      1  0.5206900000000  0.4295070000000  0.5486220000000 1.0
C      1  0.4801440000000  0.4381390000000  0.4547760000000 1.0
C      1  0.4243720000000  0.5526440000000  0.5364000000000 1.0
C      1  0.4288730000000  0.4444010000000  0.4706350000000 1.0
C      1  0.5675370000000  0.4408430000000  0.5281680000000 1.0
C      1  0.4793810000000  0.4414840000000  0.5378480000000 1.0
C      1  0.5457190000000  0.4806860000000  0.4383630000000 1.0
C      1  0.4354140000000  0.5437500000000  0.4834490000000 1.0
C      1  0.5232480000000  0.4399530000000  0.4549480000000 1.0
C      1  0.4742540000000  0.5608180000000  0.4534670000000 1.0
C      1  0.5179120000000  0.5605960000000  0.5388300000000 1.0
C      1  0.4624340000000  0.4835400000000  0.5641510000000 1.0
C      1  0.5466210000000  0.5177760000000  0.5511520000000 1.0
C      1  0.4656440000000  0.5184460000000  0.4317540000000 1.0
C      1  0.5569440000000  0.5386990000000  0.5188520000000 1.0
C      1  0.4312330000000  0.4548900000000  0.5160890000000 1.0
C      1  0.5637450000000  0.4509220000000  0.4854390000000 1.0
C      1  0.5441980000000  0.4263340000000  0.4722140000000 1.0
C      1  0.4377740000000  0.4838790000000  0.5424730000000 1.0
C      1  0.4665830000000  0.5494270000000  0.4289900000000 1.0
C      1  0.4490390000000  0.4304170000000  0.5272030000000 1.0
C      1  0.4518130000000  0.5712360000000  0.4719660000000 1.0
C      1  0.5486050000000  0.5630660000000  0.5288970000000 1.0
C      1  0.5651540000000  0.4852370000000  0.4650990000000 1.0
C      1  0.5762540000000  0.5236450000000  0.5378950000000 1.0
C      1  0.4388390000000  0.5119460000000  0.4487300000000 1.0
C      1  0.5325340000000  0.5433170000000  0.5643100000000 1.0
C      1  0.5243480000000  0.4584610000000  0.4309500000000 1.0
C      1  0.4731850000000  0.4536190000000  0.5662040000000 1.0
C      1  0.4519330000000  0.4394350000000  0.5829280000000 1.0
C      1  0.5805700000000  0.4629180000000  0.4455350000000 1.0
C      1  0.4286690000000  0.5830230000000  0.4521500000000 1.0
C      1  0.5499990000000  0.4446470000000  0.4146610000000 1.0
C      1  0.4458620000000  0.5618140000000  0.4137180000000 1.0
C      1  0.5530520000000  0.5598120000000  0.5802910000000 1.0
C      1  0.4190360000000  0.4638590000000  0.5586200000000 1.0
C      1  0.5908960000000  0.5433330000000  0.5560830000000 1.0
C      1  0.4177780000000  0.5344430000000  0.4382080000000 1.0
C      1  0.5664500000000  0.5807810000000  0.5420180000000 1.0
C      1  0.4307940000000  0.4152170000000  0.5485180000000 1.0
C      1  0.5640450000000  0.4143330000000  0.4491830000000 1.0
C      1  0.5803550000000  0.4374060000000  0.4599430000000 1.0
C      1  0.4289820000000  0.4570380000000  0.5846010000000 1.0
C      1  0.4373010000000  0.5868610000000  0.4252040000000 1.0
C      1  0.4136100000000  0.4401990000000  0.5419250000000 1.0
C      1  0.4181700000000  0.5549950000000  0.4581280000000 1.0
C      1  0.5930170000000  0.5691570000000  0.5432860000000 1.0
C      1  0.5736060000000  0.4606120000000  0.4180900000000 1.0
C      1  0.5783140000000  0.5457900000000  0.5819410000000 1.0
C      1  0.4234660000000  0.5437410000000  0.4118530000000 1.0
C      1  0.5564740000000  0.5860350000000  0.5687530000000 1.0
C      1  0.5547340000000  0.4173890000000  0.4223660000000 1.0
C      1  0.4435700000000  0.4137580000000  0.5738700000000 1.0
C      1  0.5451720000000  0.4741110000000  0.4978170000000 1.0
C      1  0.4978390000000  0.5460080000000  0.4681320000000 1.0
C      1  0.4692440000000  0.5076560000000  0.5434600000000 1.0
C      1  0.4554290000000  0.4735330000000  0.5011420000000 1.0
C      1  0.5408690000000  0.5285280000000  0.4996200000000 1.0
C      1  0.4563360000000  0.5238670000000  0.4950380000000 1.0
C      1  0.4949700000000  0.5391140000000  0.5258560000000 1.0
C      1  0.5096540000000  0.4543620000000  0.5292470000000 1.0
C      1  0.5020030000000  0.4579390000000  0.4717070000000 1.0
C      1  0.5313470000000  0.5043390000000  0.4555230000000 1.0
C      1  0.4735610000000  0.4934280000000  0.4521950000000 1.0
C      1  0.5257820000000  0.4918430000000  0.5441220000000 1.0
C      1  0.4994820000000  0.4723590000000  0.5546660000000 1.0
C      1  0.4836390000000  0.5341390000000  0.4966690000000 1.0
C      1  0.5447600000000  0.5034310000000  0.4846670000000 1.0
C      1  0.5025600000000  0.4849670000000  0.4582990000000 1.0
C      1  0.4993150000000  0.5125460000000  0.5389230000000 1.0
C      1  0.5040570000000  0.5233890000000  0.4485580000000 1.0
C      1  0.5216010000000  0.5455400000000  0.4920620000000 1.0
C      1  0.5168040000000  0.4640640000000  0.5017010000000 1.0
C      1  0.4780400000000  0.4559250000000  0.4951200000000 1.0
C      1  0.4523980000000  0.5013440000000  0.5168280000000 1.0
C      1  0.4522220000000  0.4976880000000  0.4771210000000 1.0
C      1  0.5482170000000  0.4757180000000  0.5275020000000 1.0
C      1  0.5951310000000  0.5172580000000  0.4575550000000 1.0
C      1  0.4661310000000  0.5876960000000  0.5188050000000 1.0
C      1  0.5123550000000  0.4719080000000  0.5922610000000 1.0
C      1  0.4050890000000  0.5060320000000  0.5411390000000 1.0
C      1  0.5972150000000  0.4800500000000  0.5342580000000 1.0
C      1  0.4096680000000  0.4885300000000  0.4626710000000 1.0
C      1  0.5297610000000  0.5943210000000  0.4877480000000 1.0
C      1  0.4657250000000  0.4049360000000  0.4893050000000 1.0
C      1  0.5277060000000  0.4063200000000  0.5169160000000 1.0
C      1  0.4934950000000  0.4646150000000  0.4066090000000 1.0
C      1  0.5150910000000  0.5319450000000  0.4111430000000 1.0
C      1  0.4890630000000  0.5349470000000  0.5928470000000 1.0
C      1  0.4667170000000  0.5129790000000  0.5926970000000 1.0
C      1  0.5020720000000  0.5955860000000  0.4718190000000 1.0
C      1  0.5890090000000  0.4577270000000  0.5155860000000 1.0
C      1  0.5365770000000  0.5101890000000  0.4075910000000 1.0
C      1  0.5314230000000  0.4961900000000  0.5916930000000 1.0
C      1  0.4709530000000  0.4863190000000  0.4086570000000 1.0
C      1  0.4909670000000  0.5898500000000  0.5362280000000 1.0
C      1  0.4900140000000  0.4088490000000  0.4689440000000 1.0
C      1  0.5040970000000  0.4023610000000  0.5357600000000 1.0
C      1  0.4106680000000  0.4689110000000  0.4870490000000 1.0
C      1  0.4062440000000  0.5387210000000  0.5171020000000 1.0
C      1  0.5938380000000  0.5411230000000  0.4796030000000 1.0
C      1  0.5183300000000  0.4144380000000  0.4871650000000 1.0
C      1  0.4858750000000  0.5169020000000  0.4065500000000 1.0
C      1  0.4158980000000  0.4852540000000  0.5164450000000 1.0
C      1  0.4769290000000  0.4121250000000  0.5205990000000 1.0
C      1  0.5196460000000  0.5888090000000  0.5199040000000 1.0
C      1  0.4751710000000  0.5844460000000  0.4886070000000 1.0
C      1  0.4811500000000  0.4825690000000  0.5925260000000 1.0
C      1  0.5238560000000  0.4798620000000  0.4050600000000 1.0
C      1  0.5872430000000  0.4753370000000  0.4882870000000 1.0
C      1  0.4171970000000  0.5166780000000  0.4738780000000 1.0
C      1  0.5936000000000  0.5052640000000  0.5224550000000 1.0
C      1  0.5172450000000  0.5242620000000  0.5839300000000 1.0
C      1  0.4113220000000  0.5162100000000  0.5031290000000 1.0
C      1  0.4926450000000  0.4322850000000  0.5007280000000 1.0
C      1  0.5044130000000  0.4970710000000  0.4270280000000 1.0
C      1  0.5921060000000  0.5089390000000  0.4904870000000 1.0
C      1  0.5027380000000  0.5686120000000  0.5006770000000 1.0
C      1  0.4980500000000  0.5023450000000  0.5706320000000 1.0
END
