TITL C-3289322-3858-613 -0.000592682824192558 125000 -720.188777753534 0 0 135 (C1) n - 1
REM
REM in /nfs/bkarasulu/CARBON/AIRSS/Generating-Clusters/AIREBO/with-SteepDescent/Higher-Symm/SD-CG/HFTN-CG
REM
REM
REM
REM
REM
REM ./C.cell (b20cbc046b6831c77cfcea5457e17084)
REM
REM compiler GCC version 9.2.1 20190827 (Red Hat 9.2.1-1)
REM options -cpp -mtune=generic -march=x86-64 -g -O0 -fpre-include=/usr/include/finclude/math-vector-fortran.h
REM seed -1299490005 1265220053 -1909400068 -1206614524 607634972 -672998096 1070637545 -1980236473 723120441 -1252098662 -161308449 -542613543 1187959554 -460085167 1747411370 1857819031 1528166185 483165796 -559943085 319495762 -1246010897 -1014653132 -1085948792 -2116892841 -1022853787 -239259746 -328799521 733733703 -620249863 -1176260952 1332253786 1930326992 732226482
REM
CELL 1.54180   50.00000   50.00000   50.00000   90.00000   90.00000   90.00000
LATT -1
SFAC C  
C      1  0.5149760000000  0.4865630000000  0.4349760000000 1.0
C      1  0.5880070000000  0.5253220000000  0.4933280000000 1.0
C      1  0.5623480000000  0.4038270000000  0.4437880000000 1.0
C      1  0.4282270000000  0.4707790000000  0.5101440000000 1.0
C      1  0.4547790000000  0.5690800000000  0.5742980000000 1.0
C      1  0.5631830000000  0.4420090000000  0.4736630000000 1.0
C      1  0.5064260000000  0.5856880000000  0.5561540000000 1.0
C      1  0.4652600000000  0.4091820000000  0.4643350000000 1.0
C      1  0.5024970000000  0.5392040000000  0.4363430000000 1.0
C      1  0.4980250000000  0.5163800000000  0.4824200000000 1.0
C      1  0.5291910000000  0.5438390000000  0.5438240000000 1.0
C      1  0.4305400000000  0.4628930000000  0.4461700000000 1.0
C      1  0.4084870000000  0.5041890000000  0.4898500000000 1.0
C      1  0.5003840000000  0.5114210000000  0.4518740000000 1.0
C      1  0.5174230000000  0.4305210000000  0.4482150000000 1.0
C      1  0.5449380000000  0.4843400000000  0.4957730000000 1.0
C      1  0.4401700000000  0.4403150000000  0.5373200000000 1.0
C      1  0.5136880000000  0.5344370000000  0.4079680000000 1.0
C      1  0.5188620000000  0.3991090000000  0.4611910000000 1.0
C      1  0.5501440000000  0.4253050000000  0.4558950000000 1.0
C      1  0.4132830000000  0.4737290000000  0.5375380000000 1.0
C      1  0.5227280000000  0.4805180000000  0.4631260000000 1.0
C      1  0.5129940000000  0.4352110000000  0.4816010000000 1.0
C      1  0.4660070000000  0.4596300000000  0.5481070000000 1.0
C      1  0.5303510000000  0.4510360000000  0.5601930000000 1.0
C      1  0.5099900000000  0.4263920000000  0.5501120000000 1.0
C      1  0.5179670000000  0.5911840000000  0.4592960000000 1.0
C      1  0.4285890000000  0.5522580000000  0.4965880000000 1.0
C      1  0.4991560000000  0.5594840000000  0.5395050000000 1.0
C      1  0.5157980000000  0.5081250000000  0.4002640000000 1.0
C      1  0.4641670000000  0.4106920000000  0.5169760000000 1.0
C      1  0.5112910000000  0.5470080000000  0.5960640000000 1.0
C      1  0.5614670000000  0.4722810000000  0.4686040000000 1.0
C      1  0.4481150000000  0.4216820000000  0.4891820000000 1.0
C      1  0.5438110000000  0.5404750000000  0.5972740000000 1.0
C      1  0.4335200000000  0.4332930000000  0.4632710000000 1.0
C      1  0.4797710000000  0.5343640000000  0.5513950000000 1.0
C      1  0.5599820000000  0.5294850000000  0.5455400000000 1.0
C      1  0.4299840000000  0.4310710000000  0.5138750000000 1.0
C      1  0.5971680000000  0.5102610000000  0.4754380000000 1.0
C      1  0.4132420000000  0.4345020000000  0.4390380000000 1.0
C      1  0.4748470000000  0.4510760000000  0.4229640000000 1.0
C      1  0.4891730000000  0.5923540000000  0.4534650000000 1.0
C      1  0.5171940000000  0.5773020000000  0.5810700000000 1.0
C      1  0.4805870000000  0.4329950000000  0.5591630000000 1.0
C      1  0.4811370000000  0.4946680000000  0.5114430000000 1.0
C      1  0.4557480000000  0.5407530000000  0.5075470000000 1.0
C      1  0.4167640000000  0.4865360000000  0.4615430000000 1.0
C      1  0.4213750000000  0.5412270000000  0.4748130000000 1.0
C      1  0.5080210000000  0.5449730000000  0.4979020000000 1.0
C      1  0.4063400000000  0.5218280000000  0.5103620000000 1.0
C      1  0.5657380000000  0.4699750000000  0.4349320000000 1.0
C      1  0.4913380000000  0.4945330000000  0.3985150000000 1.0
C      1  0.4710700000000  0.5634620000000  0.5230050000000 1.0
C      1  0.5307180000000  0.5699380000000  0.4443190000000 1.0
C      1  0.5002850000000  0.4554920000000  0.5754420000000 1.0
C      1  0.5600360000000  0.4782880000000  0.5230830000000 1.0
C      1  0.5563720000000  0.5160100000000  0.5935710000000 1.0
C      1  0.5505920000000  0.5581360000000  0.4279750000000 1.0
C      1  0.4721300000000  0.5072920000000  0.6012760000000 1.0
C      1  0.4135450000000  0.5118170000000  0.4121810000000 1.0
C      1  0.4778620000000  0.5509130000000  0.5900210000000 1.0
C      1  0.5153280000000  0.4436530000000  0.5223930000000 1.0
C      1  0.4686270000000  0.5330120000000  0.4783500000000 1.0
C      1  0.4538580000000  0.5015670000000  0.5553990000000 1.0
C      1  0.5182180000000  0.5464420000000  0.4654820000000 1.0
C      1  0.5130350000000  0.4970010000000  0.5353490000000 1.0
C      1  0.5410380000000  0.5586390000000  0.5720570000000 1.0
C      1  0.5523700000000  0.5906550000000  0.4984210000000 1.0
C      1  0.5379480000000  0.5366770000000  0.5117440000000 1.0
C      1  0.5691160000000  0.4364900000000  0.5000280000000 1.0
C      1  0.5388910000000  0.4918060000000  0.4152970000000 1.0
C      1  0.5473750000000  0.5346440000000  0.4658630000000 1.0
C      1  0.5156750000000  0.4890260000000  0.6118340000000 1.0
C      1  0.5030270000000  0.4898200000000  0.5797800000000 1.0
C      1  0.5066960000000  0.4725180000000  0.5151230000000 1.0
C      1  0.5397460000000  0.4933900000000  0.5952180000000 1.0
C      1  0.4067410000000  0.4456390000000  0.5036890000000 1.0
C      1  0.4896560000000  0.4094850000000  0.4548440000000 1.0
C      1  0.4696190000000  0.4488600000000  0.3931800000000 1.0
C      1  0.5334280000000  0.4824460000000  0.5664520000000 1.0
C      1  0.4589810000000  0.4697900000000  0.5182720000000 1.0
C      1  0.4768990000000  0.4536420000000  0.4964060000000 1.0
C      1  0.5124190000000  0.4040950000000  0.5245530000000 1.0
C      1  0.4980820000000  0.4577290000000  0.4414100000000 1.0
C      1  0.4410330000000  0.5180990000000  0.4651430000000 1.0
C      1  0.5799280000000  0.5915500000000  0.5467130000000 1.0
C      1  0.5365210000000  0.3969950000000  0.5088620000000 1.0
C      1  0.4460730000000  0.5346680000000  0.5559100000000 1.0
C      1  0.4449220000000  0.5421180000000  0.5893020000000 1.0
C      1  0.4244070000000  0.4864420000000  0.5557740000000 1.0
C      1  0.5203650000000  0.4633490000000  0.4881470000000 1.0
C      1  0.4904480000000  0.5262020000000  0.5201620000000 1.0
C      1  0.4686500000000  0.5863120000000  0.4762290000000 1.0
C      1  0.4397490000000  0.4913120000000  0.4861430000000 1.0
C      1  0.5329030000000  0.4360450000000  0.4184460000000 1.0
C      1  0.4920290000000  0.4248380000000  0.5062810000000 1.0
C      1  0.5163550000000  0.5197110000000  0.5567840000000 1.0
C      1  0.4845400000000  0.4874040000000  0.5513400000000 1.0
C      1  0.4250460000000  0.5282480000000  0.5296330000000 1.0
C      1  0.4626900000000  0.5047380000000  0.4343300000000 1.0
C      1  0.4803070000000  0.4840690000000  0.4540910000000 1.0
C      1  0.5267760000000  0.5924100000000  0.4862500000000 1.0
C      1  0.5634360000000  0.5635760000000  0.5479860000000 1.0
C      1  0.4731650000000  0.5606120000000  0.4195900000000 1.0
C      1  0.4640800000000  0.4093610000000  0.5450840000000 1.0
C      1  0.4714790000000  0.5599610000000  0.4595340000000 1.0
C      1  0.5824280000000  0.4565280000000  0.5137110000000 1.0
C      1  0.5649450000000  0.5064950000000  0.4308140000000 1.0
C      1  0.4771210000000  0.5859720000000  0.5020950000000 1.0
C      1  0.4291650000000  0.5047770000000  0.4365190000000 1.0
C      1  0.4789750000000  0.5848230000000  0.4263670000000 1.0
C      1  0.4938400000000  0.5225880000000  0.5800440000000 1.0
C      1  0.5623310000000  0.5423900000000  0.4915320000000 1.0
C      1  0.5459520000000  0.4593560000000  0.4152050000000 1.0
C      1  0.5442330000000  0.4267570000000  0.5160180000000 1.0
C      1  0.5206510000000  0.5915890000000  0.5303810000000 1.0
C      1  0.4544070000000  0.4943410000000  0.5883910000000 1.0
C      1  0.4530770000000  0.5103470000000  0.5225560000000 1.0
C      1  0.5741010000000  0.5164340000000  0.5711450000000 1.0
C      1  0.5226540000000  0.5084820000000  0.5047990000000 1.0
C      1  0.5514970000000  0.4497860000000  0.5377480000000 1.0
C      1  0.5464360000000  0.4983440000000  0.5416860000000 1.0
C      1  0.5329630000000  0.3885360000000  0.4823710000000 1.0
C      1  0.5066840000000  0.5778590000000  0.5048500000000 1.0
C      1  0.5585470000000  0.5335260000000  0.4397920000000 1.0
C      1  0.5697330000000  0.5723570000000  0.4887620000000 1.0
C      1  0.4669750000000  0.4808550000000  0.3982560000000 1.0
C      1  0.4500580000000  0.5667130000000  0.5452530000000 1.0
C      1  0.5509920000000  0.5893110000000  0.5290460000000 1.0
C      1  0.5995420000000  0.5066290000000  0.5698650000000 1.0
C      1  0.5818430000000  0.4948220000000  0.4566140000000 1.0
C      1  0.4696450000000  0.4822280000000  0.4817970000000 1.0
C      1  0.4698110000000  0.5333560000000  0.4384170000000 1.0
C      1  0.4519130000000  0.4731040000000  0.4279830000000 1.0
END
