TITL C-3289335-9438-729 -0.000329689801425753 125000 -985.284202402153 0 0 198 (C1) n - 1
REM
REM in /nfs/bkarasulu/CARBON/AIRSS/Generating-Clusters/AIREBO/with-SteepDescent/Higher-Symm/SD-CG/HFTN-CG
REM
REM
REM
REM
REM
REM ./C.cell (b20cbc046b6831c77cfcea5457e17084)
REM
REM compiler GCC version 9.2.1 20190827 (Red Hat 9.2.1-1)
REM options -cpp -mtune=generic -march=x86-64 -g -O0 -fpre-include=/usr/include/finclude/math-vector-fortran.h
REM seed -708385280 805696805 1993436059 480350107 717374882 1711687331 -1639568994 560171758 65918915 -1778018902 -1077551687 -414550656 -1571794338 1441787487 -705647948 1264177183 -1553580009 -878555576 -1542873808 -1841841118 1344060847 1591360524 1029198892 843233070 -315858722 2038063550 -2076495773 -13415433 585072630 411939670 -274465446 -603615171 -1868302564
REM
CELL 1.54180   50.00000   50.00000   50.00000   90.00000   90.00000   90.00000
LATT -1
SFAC C  
C      1  0.5591140000000  0.4591020000000  0.5926380000000 1.0
C      1  0.5649250000000  0.5690130000000  0.5620110000000 1.0
C      1  0.5536540000000  0.5933700000000  0.4395540000000 1.0
C      1  0.5695790000000  0.4805600000000  0.4075200000000 1.0
C      1  0.5674190000000  0.4066300000000  0.4914240000000 1.0
C      1  0.5066750000000  0.4261430000000  0.5690330000000 1.0
C      1  0.5016850000000  0.5422090000000  0.6025230000000 1.0
C      1  0.5040370000000  0.5979270000000  0.4909940000000 1.0
C      1  0.5043380000000  0.5213850000000  0.3956570000000 1.0
C      1  0.5033740000000  0.4052970000000  0.4473400000000 1.0
C      1  0.5362500000000  0.4823440000000  0.5841660000000 1.0
C      1  0.5484110000000  0.5666550000000  0.5337840000000 1.0
C      1  0.5506180000000  0.5597050000000  0.4432880000000 1.0
C      1  0.5434310000000  0.4691060000000  0.4259960000000 1.0
C      1  0.5479120000000  0.4264690000000  0.5109720000000 1.0
C      1  0.5793330000000  0.5634260000000  0.4707290000000 1.0
C      1  0.5776320000000  0.5047060000000  0.4383470000000 1.0
C      1  0.5811480000000  0.4476510000000  0.4731690000000 1.0
C      1  0.5662020000000  0.4639000000000  0.5462760000000 1.0
C      1  0.5825400000000  0.5273100000000  0.5546060000000 1.0
C      1  0.4945990000000  0.4569200000000  0.4252160000000 1.0
C      1  0.4984380000000  0.4130940000000  0.5183850000000 1.0
C      1  0.4950430000000  0.4953200000000  0.5770500000000 1.0
C      1  0.4980310000000  0.5671010000000  0.5379880000000 1.0
C      1  0.4971560000000  0.5559050000000  0.4339430000000 1.0
C      1  0.5724510000000  0.4185660000000  0.4671990000000 1.0
C      1  0.5671660000000  0.4452310000000  0.5704580000000 1.0
C      1  0.5728990000000  0.5455960000000  0.5741070000000 1.0
C      1  0.5699780000000  0.5922810000000  0.4653710000000 1.0
C      1  0.5745660000000  0.5094450000000  0.4047160000000 1.0
C      1  0.4668380000000  0.5228520000000  0.4412100000000 1.0
C      1  0.4689620000000  0.4626710000000  0.4592700000000 1.0
C      1  0.4693030000000  0.4475120000000  0.5296320000000 1.0
C      1  0.4648720000000  0.5125630000000  0.5608220000000 1.0
C      1  0.4714680000000  0.5569020000000  0.5080680000000 1.0
C      1  0.5402410000000  0.5391400000000  0.5521030000000 1.0
C      1  0.5458920000000  0.5626990000000  0.4768440000000 1.0
C      1  0.5450860000000  0.5021470000000  0.4304690000000 1.0
C      1  0.5498640000000  0.4490480000000  0.4856090000000 1.0
C      1  0.5344090000000  0.4714830000000  0.5519760000000 1.0
C      1  0.4422650000000  0.4814210000000  0.4496460000000 1.0
C      1  0.4412440000000  0.4469230000000  0.5017790000000 1.0
C      1  0.4374770000000  0.4837250000000  0.5567920000000 1.0
C      1  0.4377120000000  0.5447200000000  0.5282430000000 1.0
C      1  0.4411250000000  0.5455280000000  0.4653490000000 1.0
C      1  0.4523110000000  0.4377960000000  0.4323260000000 1.0
C      1  0.4474070000000  0.4177140000000  0.5448020000000 1.0
C      1  0.4470970000000  0.5099330000000  0.5944960000000 1.0
C      1  0.4489420000000  0.5950760000000  0.5194620000000 1.0
C      1  0.4502820000000  0.5489510000000  0.4167190000000 1.0
C      1  0.6060110000000  0.4863860000000  0.4768140000000 1.0
C      1  0.6048810000000  0.4749860000000  0.5035140000000 1.0
C      1  0.6058870000000  0.4948720000000  0.5236550000000 1.0
C      1  0.6046910000000  0.5213660000000  0.5114020000000 1.0
C      1  0.6040440000000  0.5184240000000  0.4796510000000 1.0
C      1  0.4476270000000  0.5352200000000  0.4971160000000 1.0
C      1  0.4480030000000  0.5122210000000  0.4628610000000 1.0
C      1  0.4529280000000  0.4734130000000  0.4872380000000 1.0
C      1  0.4445050000000  0.4705500000000  0.5261610000000 1.0
C      1  0.4552590000000  0.5200190000000  0.5344290000000 1.0
C      1  0.5514100000000  0.5369980000000  0.5952730000000 1.0
C      1  0.5571870000000  0.6038940000000  0.4878620000000 1.0
C      1  0.5562340000000  0.5282700000000  0.3953230000000 1.0
C      1  0.5561800000000  0.4145670000000  0.4455810000000 1.0
C      1  0.5573370000000  0.4199110000000  0.5662850000000 1.0
C      1  0.4784340000000  0.4993940000000  0.4710700000000 1.0
C      1  0.4852250000000  0.4771400000000  0.4945620000000 1.0
C      1  0.4744370000000  0.4865690000000  0.5241900000000 1.0
C      1  0.4789520000000  0.5183660000000  0.5160820000000 1.0
C      1  0.4780300000000  0.5245800000000  0.4861770000000 1.0
C      1  0.5320430000000  0.6148870000000  0.4837370000000 1.0
C      1  0.5335830000000  0.5217450000000  0.3815210000000 1.0
C      1  0.5353110000000  0.3968880000000  0.4454980000000 1.0
C      1  0.5342690000000  0.4131540000000  0.5796420000000 1.0
C      1  0.5296720000000  0.5499920000000  0.6182640000000 1.0
C      1  0.4036000000000  0.5378110000000  0.4565400000000 1.0
C      1  0.4041020000000  0.4712120000000  0.4460280000000 1.0
C      1  0.4033720000000  0.4453150000000  0.5145090000000 1.0
C      1  0.4003940000000  0.4981980000000  0.5564930000000 1.0
C      1  0.3997130000000  0.5536050000000  0.5209510000000 1.0
C      1  0.4213000000000  0.5190420000000  0.5733980000000 1.0
C      1  0.4223940000000  0.5760410000000  0.5078020000000 1.0
C      1  0.4245070000000  0.5306540000000  0.4298390000000 1.0
C      1  0.4241550000000  0.4434340000000  0.4505920000000 1.0
C      1  0.4196610000000  0.4380820000000  0.5436340000000 1.0
C      1  0.4678610000000  0.4325330000000  0.4729710000000 1.0
C      1  0.4662380000000  0.4540110000000  0.5628730000000 1.0
C      1  0.4686300000000  0.5463580000000  0.5612790000000 1.0
C      1  0.4714510000000  0.5688960000000  0.4758240000000 1.0
C      1  0.4718920000000  0.4988560000000  0.4210520000000 1.0
C      1  0.5299610000000  0.4431780000000  0.5345410000000 1.0
C      1  0.5298420000000  0.5133330000000  0.5717020000000 1.0
C      1  0.5334920000000  0.5673270000000  0.5058500000000 1.0
C      1  0.5362520000000  0.5305710000000  0.4379350000000 1.0
C      1  0.5348280000000  0.4547600000000  0.4556040000000 1.0
C      1  0.5867930000000  0.5715290000000  0.5244610000000 1.0
C      1  0.5826380000000  0.5532110000000  0.4311050000000 1.0
C      1  0.5812330000000  0.4581970000000  0.4263080000000 1.0
C      1  0.5861860000000  0.4242110000000  0.5220130000000 1.0
C      1  0.5782080000000  0.4924610000000  0.5820490000000 1.0
C      1  0.4977500000000  0.4977780000000  0.4431260000000 1.0
C      1  0.4965780000000  0.4470930000000  0.4833840000000 1.0
C      1  0.4889060000000  0.4757900000000  0.5499030000000 1.0
C      1  0.4927160000000  0.5337120000000  0.5416400000000 1.0
C      1  0.4982440000000  0.5501410000000  0.4766580000000 1.0
C      1  0.5601190000000  0.4100990000000  0.5382370000000 1.0
C      1  0.5546330000000  0.5053160000000  0.6012400000000 1.0
C      1  0.5620030000000  0.5927910000000  0.5167900000000 1.0
C      1  0.5559970000000  0.5549420000000  0.4100400000000 1.0
C      1  0.5546670000000  0.4369820000000  0.4259120000000 1.0
C      1  0.5535610000000  0.5279080000000  0.5257430000000 1.0
C      1  0.5538160000000  0.5254360000000  0.4743570000000 1.0
C      1  0.5548750000000  0.4861770000000  0.4721790000000 1.0
C      1  0.5550110000000  0.4668420000000  0.5143000000000 1.0
C      1  0.5653730000000  0.4988220000000  0.5194050000000 1.0
C      1  0.5132130000000  0.4652570000000  0.3994960000000 1.0
C      1  0.5225550000000  0.4080610000000  0.4996260000000 1.0
C      1  0.5102430000000  0.4669710000000  0.6000990000000 1.0
C      1  0.5077670000000  0.5747450000000  0.5677350000000 1.0
C      1  0.5205290000000  0.5875940000000  0.4393770000000 1.0
C      1  0.4831310000000  0.4539750000000  0.3872090000000 1.0
C      1  0.4807660000000  0.3855120000000  0.5195170000000 1.0
C      1  0.4849380000000  0.4727290000000  0.6107090000000 1.0
C      1  0.4852870000000  0.5946110000000  0.5641840000000 1.0
C      1  0.4865190000000  0.5879740000000  0.4378780000000 1.0
C      1  0.4699100000000  0.5351560000000  0.5933620000000 1.0
C      1  0.4700930000000  0.5982430000000  0.4929590000000 1.0
C      1  0.4712990000000  0.5267870000000  0.4016600000000 1.0
C      1  0.4704210000000  0.4125430000000  0.4461570000000 1.0
C      1  0.4744510000000  0.4214070000000  0.5652720000000 1.0
C      1  0.4522110000000  0.4676020000000  0.6069610000000 1.0
C      1  0.4573170000000  0.5836570000000  0.5700700000000 1.0
C      1  0.4597340000000  0.5925400000000  0.4409560000000 1.0
C      1  0.4514170000000  0.4661570000000  0.3886940000000 1.0
C      1  0.4644510000000  0.3803380000000  0.4984330000000 1.0
C      1  0.4165430000000  0.5267250000000  0.5086410000000 1.0
C      1  0.4171470000000  0.5147570000000  0.4768220000000 1.0
C      1  0.4210340000000  0.4745880000000  0.4753370000000 1.0
C      1  0.4156520000000  0.4765680000000  0.5091050000000 1.0
C      1  0.4254830000000  0.5073060000000  0.5354150000000 1.0
C      1  0.5080920000000  0.5957290000000  0.5226440000000 1.0
C      1  0.5017530000000  0.5526830000000  0.4027770000000 1.0
C      1  0.5057110000000  0.4191240000000  0.4195630000000 1.0
C      1  0.5039970000000  0.4009320000000  0.5480740000000 1.0
C      1  0.5007230000000  0.5113700000000  0.6031840000000 1.0
C      1  0.4630440000000  0.4840230000000  0.5792150000000 1.0
C      1  0.4643790000000  0.5718760000000  0.5389490000000 1.0
C      1  0.4676020000000  0.5536720000000  0.4456270000000 1.0
C      1  0.4645190000000  0.4666260000000  0.4200650000000 1.0
C      1  0.4532790000000  0.4223090000000  0.5133630000000 1.0
C      1  0.5319700000000  0.3950400000000  0.5295920000000 1.0
C      1  0.5264420000000  0.5012920000000  0.6178980000000 1.0
C      1  0.5345610000000  0.6039890000000  0.5307190000000 1.0
C      1  0.5274880000000  0.5697370000000  0.4123470000000 1.0
C      1  0.5260830000000  0.4364120000000  0.4115370000000 1.0
C      1  0.5220100000000  0.4835900000000  0.4794540000000 1.0
C      1  0.5218920000000  0.4726860000000  0.5092510000000 1.0
C      1  0.5235730000000  0.5003350000000  0.5263910000000 1.0
C      1  0.5270570000000  0.5258990000000  0.5066290000000 1.0
C      1  0.5252880000000  0.5146390000000  0.4772520000000 1.0
C      1  0.5825530000000  0.4757050000000  0.4554240000000 1.0
C      1  0.5843970000000  0.4517730000000  0.5061910000000 1.0
C      1  0.5825310000000  0.4938820000000  0.5483490000000 1.0
C      1  0.5852860000000  0.5401300000000  0.5253340000000 1.0
C      1  0.5827480000000  0.5321550000000  0.4578070000000 1.0
C      1  0.4341200000000  0.5645870000000  0.5526540000000 1.0
C      1  0.4381380000000  0.5783050000000  0.4534150000000 1.0
C      1  0.4345560000000  0.4806040000000  0.4165100000000 1.0
C      1  0.4498600000000  0.4020850000000  0.4914380000000 1.0
C      1  0.4275030000000  0.4681970000000  0.5869600000000 1.0
C      1  0.5174510000000  0.5760620000000  0.4686440000000 1.0
C      1  0.5158480000000  0.4955010000000  0.4144250000000 1.0
C      1  0.5132920000000  0.4196000000000  0.4738320000000 1.0
C      1  0.5093960000000  0.4567620000000  0.5692890000000 1.0
C      1  0.5250310000000  0.5518310000000  0.5797390000000 1.0
C      1  0.4406480000000  0.5810980000000  0.4834780000000 1.0
C      1  0.4418130000000  0.5107190000000  0.4104280000000 1.0
C      1  0.4400350000000  0.4159970000000  0.4631440000000 1.0
C      1  0.4352660000000  0.4460740000000  0.5693080000000 1.0
C      1  0.4398370000000  0.5459710000000  0.5793840000000 1.0
C      1  0.5010160000000  0.4469820000000  0.5171050000000 1.0
C      1  0.5085120000000  0.5104320000000  0.5497210000000 1.0
C      1  0.5050970000000  0.5518130000000  0.5084450000000 1.0
C      1  0.5079390000000  0.5290500000000  0.4518090000000 1.0
C      1  0.5030980000000  0.4669790000000  0.4565720000000 1.0
C      1  0.4784870000000  0.4303930000000  0.4112890000000 1.0
C      1  0.4703090000000  0.3929190000000  0.5489440000000 1.0
C      1  0.4723700000000  0.5011330000000  0.6141040000000 1.0
C      1  0.4783270000000  0.6055540000000  0.5336960000000 1.0
C      1  0.4715560000000  0.5663530000000  0.4001330000000 1.0
C      1  0.4096790000000  0.5048440000000  0.4463210000000 1.0
C      1  0.4160930000000  0.4419400000000  0.4834570000000 1.0
C      1  0.4048980000000  0.4685730000000  0.5403620000000 1.0
C      1  0.4043050000000  0.5315290000000  0.5464140000000 1.0
C      1  0.4090800000000  0.5522540000000  0.4874400000000 1.0
C      1  0.4461990000000  0.5014310000000  0.5007130000000 1.0
C      1  0.5741780000000  0.5062400000000  0.4904640000000 1.0
C      1  0.3961200000000  0.5009330000000  0.5079110000000 1.0
END
