TITL C-3289332-8317-512 0.00141842636568015 125000 -775.635284866983 0 0 124 (C1) n - 1
REM
REM in /nfs/bkarasulu/CARBON/AIRSS/Generating-Clusters/AIREBO/with-SteepDescent/Higher-Symm/SD-CG/HFTN-CG
REM
REM
REM
REM
REM
REM ./C.cell (b20cbc046b6831c77cfcea5457e17084)
REM
REM compiler GCC version 9.2.1 20190827 (Red Hat 9.2.1-1)
REM options -cpp -mtune=generic -march=x86-64 -g -O0 -fpre-include=/usr/include/finclude/math-vector-fortran.h
REM seed -2082608439 1730475434 1367105456 1655221116 899254812 57146221 -1333740832 1927554613 1102398900 -1111627937 1941092184 -1537145821 -508064412 -1652855113 -993905495 1476039856 1802561159 -1383703082 -902898338 1678946925 -1225602475 -301841691 374179867 -654801178 41582052 -714511573 -100812319 995886791 692645111 1837343040 -1967634915 1169624612 -1721580
REM
CELL 1.54180   50.00000   50.00000   50.00000   90.00000   90.00000   90.00000
LATT -1
SFAC C  
C      1  0.4236390000000  0.5006330000000  0.4588060000000 1.0
C      1  0.5002670000000  0.4587000000000  0.4200410000000 1.0
C      1  0.4611000000000  0.4210860000000  0.5012840000000 1.0
C      1  0.4239430000000  0.4983170000000  0.5406970000000 1.0
C      1  0.5757900000000  0.5003610000000  0.5401470000000 1.0
C      1  0.5754050000000  0.4985590000000  0.4587110000000 1.0
C      1  0.5000390000000  0.5396920000000  0.5781270000000 1.0
C      1  0.4972170000000  0.4574050000000  0.5806610000000 1.0
C      1  0.4981980000000  0.5404210000000  0.4203420000000 1.0
C      1  0.4602960000000  0.5778830000000  0.4973480000000 1.0
C      1  0.5378070000000  0.4233550000000  0.4981680000000 1.0
C      1  0.5377940000000  0.5770720000000  0.5006510000000 1.0
C      1  0.4229300000000  0.4604560000000  0.5014730000000 1.0
C      1  0.5008580000000  0.4213960000000  0.4578360000000 1.0
C      1  0.4612480000000  0.5001990000000  0.4216640000000 1.0
C      1  0.4231290000000  0.5381190000000  0.4983590000000 1.0
C      1  0.5767730000000  0.5388870000000  0.5015550000000 1.0
C      1  0.5743320000000  0.4617530000000  0.4987430000000 1.0
C      1  0.5007110000000  0.5778890000000  0.5407190000000 1.0
C      1  0.4983560000000  0.5776600000000  0.4577320000000 1.0
C      1  0.4973850000000  0.4188080000000  0.5414730000000 1.0
C      1  0.4614010000000  0.4986720000000  0.5777720000000 1.0
C      1  0.5367990000000  0.4993580000000  0.4212610000000 1.0
C      1  0.5381730000000  0.5005130000000  0.5773450000000 1.0
C      1  0.4795750000000  0.6005870000000  0.4985330000000 1.0
C      1  0.5990710000000  0.4994120000000  0.4767020000000 1.0
C      1  0.4988560000000  0.4760680000000  0.6033790000000 1.0
C      1  0.4797740000000  0.3978970000000  0.4995320000000 1.0
C      1  0.5192420000000  0.6002710000000  0.4995630000000 1.0
C      1  0.5194620000000  0.3995990000000  0.4993660000000 1.0
C      1  0.5997250000000  0.4990150000000  0.5230610000000 1.0
C      1  0.4000200000000  0.4996120000000  0.5230040000000 1.0
C      1  0.3998760000000  0.4991710000000  0.4765760000000 1.0
C      1  0.4987800000000  0.5227400000000  0.3965430000000 1.0
C      1  0.4989920000000  0.4762030000000  0.3963880000000 1.0
C      1  0.4998710000000  0.5222460000000  0.6019980000000 1.0
C      1  0.4796720000000  0.4995460000000  0.6014690000000 1.0
C      1  0.5981220000000  0.4795000000000  0.4996810000000 1.0
C      1  0.4997350000000  0.6011450000000  0.4757960000000 1.0
C      1  0.4789080000000  0.4993930000000  0.3977330000000 1.0
C      1  0.5194350000000  0.4990560000000  0.6007400000000 1.0
C      1  0.5186120000000  0.4995010000000  0.3975430000000 1.0
C      1  0.5992130000000  0.5191970000000  0.5003620000000 1.0
C      1  0.4003670000000  0.5191080000000  0.4993640000000 1.0
C      1  0.4001780000000  0.4794250000000  0.5002710000000 1.0
C      1  0.4993130000000  0.3962170000000  0.5226330000000 1.0
C      1  0.4997530000000  0.3981590000000  0.4761420000000 1.0
C      1  0.4993240000000  0.6012190000000  0.5224050000000 1.0
C      1  0.5253030000000  0.4911720000000  0.4504660000000 1.0
C      1  0.4913540000000  0.4495870000000  0.5302540000000 1.0
C      1  0.4529300000000  0.5280720000000  0.4899600000000 1.0
C      1  0.5265190000000  0.5085640000000  0.5481700000000 1.0
C      1  0.4730220000000  0.4896080000000  0.5489840000000 1.0
C      1  0.4729140000000  0.5084440000000  0.4510120000000 1.0
C      1  0.4912960000000  0.5483580000000  0.4699530000000 1.0
C      1  0.5068110000000  0.4513190000000  0.4697590000000 1.0
C      1  0.5077480000000  0.5480110000000  0.5289410000000 1.0
C      1  0.4532200000000  0.4705790000000  0.5097310000000 1.0
C      1  0.5465810000000  0.5279840000000  0.5091240000000 1.0
C      1  0.5447270000000  0.4724100000000  0.4900810000000 1.0
C      1  0.5256140000000  0.4521680000000  0.4897740000000 1.0
C      1  0.4917550000000  0.5285270000000  0.4505030000000 1.0
C      1  0.4534530000000  0.4899440000000  0.5292380000000 1.0
C      1  0.5268690000000  0.5476590000000  0.5091330000000 1.0
C      1  0.4720280000000  0.5483000000000  0.4896190000000 1.0
C      1  0.4724990000000  0.4504990000000  0.5100420000000 1.0
C      1  0.4913870000000  0.4690840000000  0.5499550000000 1.0
C      1  0.5064680000000  0.4709500000000  0.4501640000000 1.0
C      1  0.5074060000000  0.5282780000000  0.5484370000000 1.0
C      1  0.4531280000000  0.5086230000000  0.4705460000000 1.0
C      1  0.5460980000000  0.5083320000000  0.5284420000000 1.0
C      1  0.5450710000000  0.4913070000000  0.4700960000000 1.0
C      1  0.4528930000000  0.4293010000000  0.4728890000000 1.0
C      1  0.4303830000000  0.4726430000000  0.4484200000000 1.0
C      1  0.4718020000000  0.4514800000000  0.4310990000000 1.0
C      1  0.4492340000000  0.5734180000000  0.5255150000000 1.0
C      1  0.5491370000000  0.4297170000000  0.5260200000000 1.0
C      1  0.5473410000000  0.5711640000000  0.4722920000000 1.0
C      1  0.4299820000000  0.5264410000000  0.5515160000000 1.0
C      1  0.5660990000000  0.4717390000000  0.5477520000000 1.0
C      1  0.5690820000000  0.5266130000000  0.4487970000000 1.0
C      1  0.4709730000000  0.5482700000000  0.5723130000000 1.0
C      1  0.5255400000000  0.4517170000000  0.5700510000000 1.0
C      1  0.5270050000000  0.5488270000000  0.4291000000000 1.0
C      1  0.4524260000000  0.4716200000000  0.4309100000000 1.0
C      1  0.4303070000000  0.4521890000000  0.4728500000000 1.0
C      1  0.4726320000000  0.4290320000000  0.4480450000000 1.0
C      1  0.4514020000000  0.5273150000000  0.5701210000000 1.0
C      1  0.5467140000000  0.5281460000000  0.4267930000000 1.0
C      1  0.5490710000000  0.4725670000000  0.5702320000000 1.0
C      1  0.4287430000000  0.5476540000000  0.5267870000000 1.0
C      1  0.5725730000000  0.5500380000000  0.4733480000000 1.0
C      1  0.5661300000000  0.4523180000000  0.5272620000000 1.0
C      1  0.4725300000000  0.5706510000000  0.5502440000000 1.0
C      1  0.5265820000000  0.5705830000000  0.4472720000000 1.0
C      1  0.5257400000000  0.4293240000000  0.5472580000000 1.0
C      1  0.5501080000000  0.5307620000000  0.5715220000000 1.0
C      1  0.5307650000000  0.5711760000000  0.5518860000000 1.0
C      1  0.5703580000000  0.5509210000000  0.5315180000000 1.0
C      1  0.5495660000000  0.4690850000000  0.4277100000000 1.0
C      1  0.4489870000000  0.5304650000000  0.4278390000000 1.0
C      1  0.4485570000000  0.4679090000000  0.5719000000000 1.0
C      1  0.5306690000000  0.4285160000000  0.4472940000000 1.0
C      1  0.4680200000000  0.5711530000000  0.4468830000000 1.0
C      1  0.4672940000000  0.4268590000000  0.5525550000000 1.0
C      1  0.5690600000000  0.4495050000000  0.4682390000000 1.0
C      1  0.4287180000000  0.5506370000000  0.4676660000000 1.0
C      1  0.4286160000000  0.4480360000000  0.5316130000000 1.0
C      1  0.5504800000000  0.5709510000000  0.5313300000000 1.0
C      1  0.5304380000000  0.5511740000000  0.5716380000000 1.0
C      1  0.5697130000000  0.5307500000000  0.5515260000000 1.0
C      1  0.5499450000000  0.4291120000000  0.4680720000000 1.0
C      1  0.4480010000000  0.4275650000000  0.5316570000000 1.0
C      1  0.4481330000000  0.5711680000000  0.4672790000000 1.0
C      1  0.5304130000000  0.4484040000000  0.4275450000000 1.0
C      1  0.4673700000000  0.4467310000000  0.5726600000000 1.0
C      1  0.4681900000000  0.5510230000000  0.4274300000000 1.0
C      1  0.5693000000000  0.4689670000000  0.4475910000000 1.0
C      1  0.4289740000000  0.4680510000000  0.5519280000000 1.0
C      1  0.4290720000000  0.5305660000000  0.4474500000000 1.0
C      1  0.4615260000000  0.5428660000000  0.5342380000000 1.0
C      1  0.5286900000000  0.4618250000000  0.5377040000000 1.0
C      1  0.5416960000000  0.5384800000000  0.4648120000000 1.0
C      1  0.4627850000000  0.4615680000000  0.4687330000000 1.0
END
