TITL C-3289330-4660-165 -0.000143107292389587 125000 -329.120801926776 0 0 64 (C1) n - 1
REM
REM in /nfs/bkarasulu/CARBON/AIRSS/Generating-Clusters/AIREBO/with-SteepDescent/Higher-Symm/SD-CG/HFTN-CG
REM
REM
REM
REM
REM
REM ./C.cell (b20cbc046b6831c77cfcea5457e17084)
REM
REM compiler GCC version 9.2.1 20190827 (Red Hat 9.2.1-1)
REM options -cpp -mtune=generic -march=x86-64 -g -O0 -fpre-include=/usr/include/finclude/math-vector-fortran.h
REM seed 2135466044 -650082007 811653431 1235399572 28745117 442190246 -2029787596 -1861139827 945253581 896829363 -1086379225 1750984464 11603586 373014382 1533507113 -302459679 467898130 -528421829 1834883478 -1202131914 -1018235808 -1841874399 -199069936 -1923436545 1264712395 -1795603721 -1142271615 -2087789797 467493357 1833708400 618256166 -1329374278 -1907437702
REM
CELL 1.54180   50.00000   50.00000   50.00000   90.00000   90.00000   90.00000
LATT -1
SFAC C  
C      1  0.5238360000000  0.4714970000000  0.5676530000000 1.0
C      1  0.4669030000000  0.5785150000000  0.5148040000000 1.0
C      1  0.6117850000000  0.5164200000000  0.4811870000000 1.0
C      1  0.5094170000000  0.5370080000000  0.4217870000000 1.0
C      1  0.4847570000000  0.4734910000000  0.4324220000000 1.0
C      1  0.4902370000000  0.5216440000000  0.5764660000000 1.0
C      1  0.4617780000000  0.4273640000000  0.4899620000000 1.0
C      1  0.5475340000000  0.5657980000000  0.4808290000000 1.0
C      1  0.5071010000000  0.3957350000000  0.5460500000000 1.0
C      1  0.5708870000000  0.4860850000000  0.5333350000000 1.0
C      1  0.4261530000000  0.5068160000000  0.5222780000000 1.0
C      1  0.4317330000000  0.4858110000000  0.4807710000000 1.0
C      1  0.5214150000000  0.5674270000000  0.4734060000000 1.0
C      1  0.4718090000000  0.5027690000000  0.5835770000000 1.0
C      1  0.5635790000000  0.4644170000000  0.5180230000000 1.0
C      1  0.5035960000000  0.4195290000000  0.5375160000000 1.0
C      1  0.4493420000000  0.4080650000000  0.4788330000000 1.0
C      1  0.4661200000000  0.5566480000000  0.5356530000000 1.0
C      1  0.4659160000000  0.4897040000000  0.4304330000000 1.0
C      1  0.5365700000000  0.4951220000000  0.5728150000000 1.0
C      1  0.5050000000000  0.5523010000000  0.4002730000000 1.0
C      1  0.5886530000000  0.5183670000000  0.4918030000000 1.0
C      1  0.4228160000000  0.5264940000000  0.5059350000000 1.0
C      1  0.4414680000000  0.4623390000000  0.4917990000000 1.0
C      1  0.4807000000000  0.4919880000000  0.5514560000000 1.0
C      1  0.4997090000000  0.5521180000000  0.4755910000000 1.0
C      1  0.5456050000000  0.4720480000000  0.4912100000000 1.0
C      1  0.4642050000000  0.5137070000000  0.4491530000000 1.0
C      1  0.5161370000000  0.5052500000000  0.4613830000000 1.0
C      1  0.5356370000000  0.5167100000000  0.5500550000000 1.0
C      1  0.5022990000000  0.4484360000000  0.5279800000000 1.0
C      1  0.4954850000000  0.5435600000000  0.5294340000000 1.0
C      1  0.4983100000000  0.4541170000000  0.4767930000000 1.0
C      1  0.5596300000000  0.5220300000000  0.5021540000000 1.0
C      1  0.4659430000000  0.4842160000000  0.5011000000000 1.0
C      1  0.4519850000000  0.5362130000000  0.4914050000000 1.0
C      1  0.4815380000000  0.5510710000000  0.4993380000000 1.0
C      1  0.5037050000000  0.4686180000000  0.5499420000000 1.0
C      1  0.5405650000000  0.5048370000000  0.4849500000000 1.0
C      1  0.4780960000000  0.4526350000000  0.5044680000000 1.0
C      1  0.5178380000000  0.4549550000000  0.5007120000000 1.0
C      1  0.5545850000000  0.5518520000000  0.5038250000000 1.0
C      1  0.4940200000000  0.5299150000000  0.4512690000000 1.0
C      1  0.5021290000000  0.5178780000000  0.5461700000000 1.0
C      1  0.5053310000000  0.4739220000000  0.4551100000000 1.0
C      1  0.5575380000000  0.5094930000000  0.5302200000000 1.0
C      1  0.4562680000000  0.5067380000000  0.4775290000000 1.0
C      1  0.4587670000000  0.4992810000000  0.5280140000000 1.0
C      1  0.4428240000000  0.5369330000000  0.4377470000000 1.0
C      1  0.4594450000000  0.4665060000000  0.5560480000000 1.0
C      1  0.5343540000000  0.4707390000000  0.4442660000000 1.0
C      1  0.4701380000000  0.5535890000000  0.4455860000000 1.0
C      1  0.4417850000000  0.4393290000000  0.5562960000000 1.0
C      1  0.4559110000000  0.4502180000000  0.5294260000000 1.0
C      1  0.5174850000000  0.5626300000000  0.5381030000000 1.0
C      1  0.4451950000000  0.5532830000000  0.4659810000000 1.0
C      1  0.5580360000000  0.4599050000000  0.4633190000000 1.0
C      1  0.5476830000000  0.5622860000000  0.5283850000000 1.0
C      1  0.5393420000000  0.5468890000000  0.5550550000000 1.0
C      1  0.5536400000000  0.4919860000000  0.4576630000000 1.0
C      1  0.5280760000000  0.5184160000000  0.4339230000000 1.0
C      1  0.5443960000000  0.4421480000000  0.5171960000000 1.0
C      1  0.4580440000000  0.5306210000000  0.5243910000000 1.0
C      1  0.4960900000000  0.4257370000000  0.4644460000000 1.0
END
