TITL C-3289324-3781-567 0.000150087485295628 125000 -280.872176848511 0 0 52 (C1) n - 1
REM
REM in /nfs/bkarasulu/CARBON/AIRSS/Generating-Clusters/AIREBO/with-SteepDescent/Higher-Symm/SD-CG/HFTN-CG
REM
REM
REM
REM
REM
REM ./C.cell (b20cbc046b6831c77cfcea5457e17084)
REM
REM compiler GCC version 9.2.1 20190827 (Red Hat 9.2.1-1)
REM options -cpp -mtune=generic -march=x86-64 -g -O0 -fpre-include=/usr/include/finclude/math-vector-fortran.h
REM seed -1490453857 1820353516 -1607536216 778139443 77187598 -112404537 -1111203706 799830854 -1128836089 -1925263282 -907522554 -1698957509 -439930761 513207384 -849852684 -2001393502 1117923090 125513701 -1005589383 -1149395353 1440038298 -168213783 2046960560 -1531692131 -2074924439 -2106007470 1755210007 561365855 -1194587955 -332133611 -1742218391 1898820628 -1675320482
REM
CELL 1.54180   50.00000   50.00000   50.00000   90.00000   90.00000   90.00000
LATT -1
SFAC C  
C      1  0.5078500000000  0.4660350000000  0.4459490000000 1.0
C      1  0.4556260000000  0.4684630000000  0.5143210000000 1.0
C      1  0.5389780000000  0.4581300000000  0.5380500000000 1.0
C      1  0.5109150000000  0.4542400000000  0.5817110000000 1.0
C      1  0.5449410000000  0.4559970000000  0.4568780000000 1.0
C      1  0.4289270000000  0.4628870000000  0.4706490000000 1.0
C      1  0.5006890000000  0.4741360000000  0.5560230000000 1.0
C      1  0.5377000000000  0.4681740000000  0.4801300000000 1.0
C      1  0.4589700000000  0.4789190000000  0.4711270000000 1.0
C      1  0.4322930000000  0.4750820000000  0.5004300000000 1.0
C      1  0.5377470000000  0.4631150000000  0.5658540000000 1.0
C      1  0.5334120000000  0.4673050000000  0.4299340000000 1.0
C      1  0.4978470000000  0.5271930000000  0.5564120000000 1.0
C      1  0.5706410000000  0.5136860000000  0.4709980000000 1.0
C      1  0.4543170000000  0.5431740000000  0.4578850000000 1.0
C      1  0.4809060000000  0.5489170000000  0.5171010000000 1.0
C      1  0.5473630000000  0.5293400000000  0.5235150000000 1.0
C      1  0.5092350000000  0.5416420000000  0.4638630000000 1.0
C      1  0.4346980000000  0.5010920000000  0.4798050000000 1.0
C      1  0.5232500000000  0.4912360000000  0.5742830000000 1.0
C      1  0.5527180000000  0.4892020000000  0.4361040000000 1.0
C      1  0.5154970000000  0.5181130000000  0.5774340000000 1.0
C      1  0.5703090000000  0.5091550000000  0.4429870000000 1.0
C      1  0.4346170000000  0.5253110000000  0.4663150000000 1.0
C      1  0.4743840000000  0.4474220000000  0.5202990000000 1.0
C      1  0.5306520000000  0.4358270000000  0.5203900000000 1.0
C      1  0.4920940000000  0.4467570000000  0.4633680000000 1.0
C      1  0.4939250000000  0.5747220000000  0.5554890000000 1.0
C      1  0.5206500000000  0.5622630000000  0.4508330000000 1.0
C      1  0.4388200000000  0.5902620000000  0.4637700000000 1.0
C      1  0.5585960000000  0.5222940000000  0.4992170000000 1.0
C      1  0.4820500000000  0.5355280000000  0.4614360000000 1.0
C      1  0.4914890000000  0.5506290000000  0.5435480000000 1.0
C      1  0.5439000000000  0.4968030000000  0.4835520000000 1.0
C      1  0.4763690000000  0.5078050000000  0.4751030000000 1.0
C      1  0.4954620000000  0.5016760000000  0.5380060000000 1.0
C      1  0.5011400000000  0.4620530000000  0.5263790000000 1.0
C      1  0.5161910000000  0.4545420000000  0.4968230000000 1.0
C      1  0.4863850000000  0.4688020000000  0.4887670000000 1.0
C      1  0.4947650000000  0.4225040000000  0.4787270000000 1.0
C      1  0.4800350000000  0.4227330000000  0.5079780000000 1.0
C      1  0.5118840000000  0.4161260000000  0.5067860000000 1.0
C      1  0.5267700000000  0.4838220000000  0.5212460000000 1.0
C      1  0.5035510000000  0.4891190000000  0.4675870000000 1.0
C      1  0.4778620000000  0.4913480000000  0.5128680000000 1.0
C      1  0.4638670000000  0.5688570000000  0.5097540000000 1.0
C      1  0.4512540000000  0.5973820000000  0.5180720000000 1.0
C      1  0.4494830000000  0.5872440000000  0.4874310000000 1.0
C      1  0.5263590000000  0.5144740000000  0.5316640000000 1.0
C      1  0.5237560000000  0.5239600000000  0.4799290000000 1.0
C      1  0.4864780000000  0.5280950000000  0.5004540000000 1.0
C      1  0.5073880000000  0.5011770000000  0.4991530000000 1.0
END
