TITL C-3289325-7307-655 131.02674098619 125000 -882.723192405477 0 0 173 (C1) n - 1
REM
REM in /nfs/bkarasulu/CARBON/AIRSS/Generating-Clusters/AIREBO/with-SteepDescent/Higher-Symm/SD-CG/HFTN-CG
REM
REM
REM
REM
REM
REM ./C.cell (b20cbc046b6831c77cfcea5457e17084)
REM
REM compiler GCC version 9.2.1 20190827 (Red Hat 9.2.1-1)
REM options -cpp -mtune=generic -march=x86-64 -g -O0 -fpre-include=/usr/include/finclude/math-vector-fortran.h
REM seed 1457637606 1072859697 -1850786971 219395523 -298295707 66774426 2098494823 1630807954 -1767851117 355428169 2044742423 -1471030877 -1125396809 1504465530 1601736202 -1108132584 1008890910 -1702414120 -547863251 -1360593624 -1747152756 862522808 -643644196 634375922 -179566211 2071699629 1811855508 -1347718404 1738948610 -1240858886 -1504436755 -13887429 -110134842
REM
CELL 1.54180   50.00000   50.00000   50.00000   90.00000   90.00000   90.00000
LATT -1
SFAC C  
C      1  0.4358510000000  0.3918170000000  0.5400330000000 1.0
C      1  0.4973650000000  0.3997650000000  0.4250850000000 1.0
C      1  0.5689450000000  0.4103120000000  0.5507110000000 1.0
C      1  0.5826310000000  0.4915460000000  0.5613480000000 1.0
C      1  0.4133800000000  0.4994890000000  0.5309510000000 1.0
C      1  0.5087120000000  0.4910110000000  0.3967540000000 1.0
C      1  0.5010990000000  0.5919250000000  0.5238000000000 1.0
C      1  0.4867360000000  0.5841520000000  0.4939660000000 1.0
C      1  0.5174460000000  0.5887610000000  0.4800650000000 1.0
C      1  0.5096200000000  0.5598120000000  0.5211930000000 1.0
C      1  0.4770510000000  0.5518540000000  0.4985000000000 1.0
C      1  0.5077380000000  0.5507220000000  0.4886330000000 1.0
C      1  0.4460040000000  0.4618080000000  0.5400270000000 1.0
C      1  0.5078220000000  0.4545640000000  0.4382020000000 1.0
C      1  0.5519510000000  0.4529650000000  0.5255280000000 1.0
C      1  0.4935430000000  0.5551180000000  0.4623630000000 1.0
C      1  0.5348790000000  0.5423390000000  0.5314170000000 1.0
C      1  0.4710790000000  0.5533910000000  0.5279640000000 1.0
C      1  0.4300670000000  0.4405200000000  0.4588960000000 1.0
C      1  0.5549510000000  0.4377560000000  0.4622970000000 1.0
C      1  0.5023520000000  0.4400510000000  0.5730100000000 1.0
C      1  0.4774070000000  0.4942930000000  0.4096280000000 1.0
C      1  0.5869170000000  0.4920990000000  0.5276200000000 1.0
C      1  0.4361930000000  0.4994810000000  0.5561690000000 1.0
C      1  0.4883510000000  0.4965430000000  0.5671590000000 1.0
C      1  0.4494500000000  0.4998040000000  0.4523770000000 1.0
C      1  0.5663060000000  0.4949530000000  0.4777860000000 1.0
C      1  0.4754960000000  0.4615430000000  0.4349210000000 1.0
C      1  0.5588390000000  0.4607630000000  0.4964280000000 1.0
C      1  0.4719640000000  0.4567800000000  0.5531760000000 1.0
C      1  0.5546650000000  0.5498690000000  0.4776420000000 1.0
C      1  0.5000610000000  0.5427490000000  0.5700620000000 1.0
C      1  0.4382260000000  0.5431980000000  0.4665300000000 1.0
C      1  0.4214440000000  0.4692480000000  0.5611760000000 1.0
C      1  0.4895670000000  0.4628860000000  0.4039700000000 1.0
C      1  0.5942250000000  0.4588980000000  0.5285490000000 1.0
C      1  0.4534780000000  0.5327750000000  0.5409670000000 1.0
C      1  0.4904300000000  0.5345770000000  0.4375750000000 1.0
C      1  0.5624270000000  0.5290030000000  0.5229510000000 1.0
C      1  0.5440080000000  0.4177620000000  0.4388810000000 1.0
C      1  0.5336140000000  0.4321130000000  0.5792970000000 1.0
C      1  0.4063290000000  0.4267190000000  0.4609910000000 1.0
C      1  0.5231500000000  0.4628480000000  0.4091790000000 1.0
C      1  0.5688370000000  0.4647550000000  0.5505000000000 1.0
C      1  0.4164150000000  0.4683470000000  0.5264400000000 1.0
C      1  0.5784680000000  0.5432130000000  0.4463230000000 1.0
C      1  0.5086390000000  0.5345680000000  0.5991820000000 1.0
C      1  0.4066460000000  0.5383720000000  0.4577040000000 1.0
C      1  0.5081890000000  0.4725480000000  0.5811490000000 1.0
C      1  0.4285610000000  0.4743530000000  0.4621620000000 1.0
C      1  0.5694560000000  0.4681910000000  0.4569870000000 1.0
C      1  0.4530060000000  0.5602350000000  0.5776110000000 1.0
C      1  0.4551230000000  0.5660960000000  0.4208310000000 1.0
C      1  0.5841420000000  0.5659450000000  0.4992140000000 1.0
C      1  0.4414660000000  0.5776270000000  0.4734190000000 1.0
C      1  0.5575630000000  0.5926580000000  0.4527080000000 1.0
C      1  0.5031940000000  0.5756820000000  0.5690140000000 1.0
C      1  0.5545410000000  0.5933910000000  0.5116520000000 1.0
C      1  0.4480980000000  0.5937800000000  0.5484490000000 1.0
C      1  0.4818290000000  0.5998550000000  0.4357550000000 1.0
C      1  0.4653450000000  0.4066730000000  0.5175880000000 1.0
C      1  0.4962870000000  0.4165890000000  0.4696770000000 1.0
C      1  0.5270480000000  0.4188640000000  0.5242800000000 1.0
C      1  0.5534010000000  0.4145660000000  0.5729180000000 1.0
C      1  0.4340970000000  0.3945400000000  0.5101800000000 1.0
C      1  0.5247170000000  0.4011560000000  0.4296290000000 1.0
C      1  0.5699760000000  0.5614260000000  0.5298650000000 1.0
C      1  0.4371700000000  0.5615780000000  0.5475370000000 1.0
C      1  0.4890280000000  0.5634380000000  0.4196400000000 1.0
C      1  0.5132610000000  0.4405580000000  0.5432100000000 1.0
C      1  0.4554080000000  0.4439520000000  0.4777640000000 1.0
C      1  0.5210440000000  0.4393830000000  0.4645390000000 1.0
C      1  0.3990430000000  0.5101220000000  0.4942780000000 1.0
C      1  0.5484830000000  0.5083560000000  0.4233030000000 1.0
C      1  0.5483680000000  0.5035210000000  0.5807840000000 1.0
C      1  0.4707180000000  0.5256840000000  0.5680270000000 1.0
C      1  0.4549120000000  0.5308520000000  0.4395970000000 1.0
C      1  0.5705540000000  0.5246300000000  0.4917310000000 1.0
C      1  0.5762540000000  0.4961020000000  0.4387910000000 1.0
C      1  0.5211660000000  0.4967850000000  0.6004370000000 1.0
C      1  0.4025580000000  0.4962470000000  0.4630460000000 1.0
C      1  0.5445130000000  0.5405570000000  0.4465490000000 1.0
C      1  0.5315060000000  0.5377050000000  0.5602860000000 1.0
C      1  0.4257930000000  0.5301590000000  0.4953730000000 1.0
C      1  0.4003590000000  0.5473440000000  0.5086130000000 1.0
C      1  0.5354430000000  0.5445590000000  0.4135390000000 1.0
C      1  0.5572350000000  0.5422880000000  0.5772940000000 1.0
C      1  0.5331310000000  0.5387040000000  0.4976140000000 1.0
C      1  0.4965750000000  0.5330510000000  0.5376550000000 1.0
C      1  0.4645390000000  0.5286390000000  0.4824050000000 1.0
C      1  0.4856570000000  0.3831850000000  0.5102170000000 1.0
C      1  0.5049510000000  0.3916200000000  0.4862020000000 1.0
C      1  0.5152090000000  0.3922660000000  0.5169480000000 1.0
C      1  0.5292280000000  0.5103170000000  0.5083650000000 1.0
C      1  0.4792050000000  0.5124370000000  0.5182180000000 1.0
C      1  0.4914680000000  0.5132900000000  0.4709540000000 1.0
C      1  0.5660960000000  0.4223230000000  0.4907180000000 1.0
C      1  0.4710620000000  0.4274630000000  0.5684020000000 1.0
C      1  0.4561010000000  0.4274680000000  0.4413280000000 1.0
C      1  0.4916430000000  0.5104140000000  0.6072310000000 1.0
C      1  0.4091490000000  0.5152360000000  0.4388270000000 1.0
C      1  0.5920290000000  0.5160310000000  0.4555990000000 1.0
C      1  0.4172550000000  0.4661790000000  0.4311530000000 1.0
C      1  0.5994170000000  0.4549240000000  0.4589400000000 1.0
C      1  0.4874810000000  0.4622440000000  0.6046020000000 1.0
C      1  0.4753990000000  0.5241100000000  0.3952120000000 1.0
C      1  0.6006830000000  0.5227300000000  0.5322180000000 1.0
C      1  0.4236140000000  0.5287820000000  0.5669870000000 1.0
C      1  0.5352620000000  0.5028000000000  0.4794750000000 1.0
C      1  0.5096480000000  0.5018930000000  0.5417980000000 1.0
C      1  0.4589190000000  0.4946010000000  0.4834970000000 1.0
C      1  0.5205110000000  0.5865060000000  0.5487520000000 1.0
C      1  0.4529830000000  0.5879540000000  0.4957810000000 1.0
C      1  0.5285660000000  0.5930130000000  0.4520860000000 1.0
C      1  0.5471510000000  0.4694780000000  0.4311290000000 1.0
C      1  0.5384090000000  0.4676340000000  0.5662300000000 1.0
C      1  0.4297620000000  0.4662650000000  0.4952350000000 1.0
C      1  0.4741370000000  0.5820520000000  0.5359130000000 1.0
C      1  0.4834340000000  0.5830810000000  0.4601670000000 1.0
C      1  0.5437380000000  0.5797930000000  0.4895500000000 1.0
C      1  0.4482020000000  0.5325250000000  0.4074910000000 1.0
C      1  0.6004390000000  0.5289090000000  0.5036330000000 1.0
C      1  0.4468160000000  0.5314030000000  0.5915220000000 1.0
C      1  0.5248890000000  0.5151650000000  0.4000980000000 1.0
C      1  0.5788900000000  0.5181770000000  0.5776510000000 1.0
C      1  0.3908390000000  0.5210180000000  0.5258500000000 1.0
C      1  0.4766740000000  0.5726090000000  0.5847500000000 1.0
C      1  0.4381400000000  0.5678430000000  0.4430810000000 1.0
C      1  0.5786780000000  0.5709390000000  0.4660010000000 1.0
C      1  0.4882870000000  0.4262410000000  0.5292150000000 1.0
C      1  0.4744760000000  0.4260840000000  0.4911950000000 1.0
C      1  0.5329310000000  0.4304140000000  0.4948150000000 1.0
C      1  0.6043150000000  0.5069130000000  0.4804460000000 1.0
C      1  0.4637970000000  0.5045580000000  0.6009460000000 1.0
C      1  0.4288290000000  0.5086910000000  0.4190950000000 1.0
C      1  0.5349060000000  0.5431500000000  0.6023300000000 1.0
C      1  0.3904910000000  0.5493230000000  0.4772870000000 1.0
C      1  0.5665240000000  0.5498770000000  0.4151820000000 1.0
C      1  0.5832960000000  0.5421850000000  0.5541960000000 1.0
C      1  0.4074560000000  0.5457770000000  0.5422180000000 1.0
C      1  0.5039390000000  0.5417640000000  0.4006760000000 1.0
C      1  0.4978250000000  0.4701090000000  0.5389240000000 1.0
C      1  0.4688860000000  0.4676150000000  0.4653280000000 1.0
C      1  0.5337890000000  0.4691250000000  0.4750120000000 1.0
C      1  0.5872120000000  0.4492910000000  0.4873960000000 1.0
C      1  0.4651750000000  0.4560620000000  0.5863360000000 1.0
C      1  0.4462390000000  0.4532830000000  0.4215040000000 1.0
C      1  0.5210380000000  0.4710340000000  0.5064790000000 1.0
C      1  0.4814740000000  0.4696170000000  0.5103310000000 1.0
C      1  0.4959810000000  0.4800510000000  0.4699670000000 1.0
C      1  0.5575600000000  0.4914540000000  0.5104740000000 1.0
C      1  0.4670930000000  0.4954090000000  0.5425640000000 1.0
C      1  0.4812590000000  0.5019630000000  0.4405460000000 1.0
C      1  0.5672810000000  0.4844100000000  0.4081510000000 1.0
C      1  0.5466750000000  0.4745210000000  0.5984530000000 1.0
C      1  0.4004570000000  0.4776720000000  0.4904170000000 1.0
C      1  0.5209280000000  0.4845930000000  0.4472930000000 1.0
C      1  0.5359900000000  0.4813970000000  0.5352200000000 1.0
C      1  0.4510760000000  0.4842140000000  0.5147250000000 1.0
C      1  0.5554260000000  0.5064900000000  0.5474590000000 1.0
C      1  0.4394890000000  0.5157730000000  0.5198730000000 1.0
C      1  0.5201610000000  0.5178350000000  0.4395870000000 1.0
C      1  0.4459950000000  0.4815130000000  0.5833310000000 1.0
C      1  0.4457430000000  0.4859090000000  0.4119340000000 1.0
C      1  0.5990820000000  0.4792040000000  0.4985970000000 1.0
C      1  0.4384740000000  0.5834720000000  0.5190190000000 1.0
C      1  0.5101460000000  0.5876350000000  0.4308480000000 1.0
C      1  0.5473830000000  0.5845620000000  0.5397180000000 1.0
C      1  0.4798140000000  0.4123560000000  0.4436730000000 1.0
C      1  0.5588340000000  0.4214380000000  0.5238360000000 1.0
C      1  0.4576750000000  0.4079150000000  0.5506990000000 1.0
C      1  0.4994690000000  0.4963950000000  0.4995780000000 1.0
C      1  0.5024530000000  0.4427010000000  0.5036390000000 1.0
END
