TITL C-3289333-7213-786 -0.00193499882198185 125000 -611.903825071396 0 0 107 (C1) n - 1
REM
REM in /nfs/bkarasulu/CARBON/AIRSS/Generating-Clusters/AIREBO/with-SteepDescent/Higher-Symm/SD-CG/HFTN-CG
REM
REM
REM
REM
REM
REM ./C.cell (b20cbc046b6831c77cfcea5457e17084)
REM
REM compiler GCC version 9.2.1 20190827 (Red Hat 9.2.1-1)
REM options -cpp -mtune=generic -march=x86-64 -g -O0 -fpre-include=/usr/include/finclude/math-vector-fortran.h
REM seed 1482308958 1814337307 -805875391 -966261330 697209451 -779741496 -1063502471 1717429521 -1148291091 27396247 -3459181 -1155106314 -1965596626 798073280 1791070258 495885942 -1721566339 -222973425 -570338258 -720070556 858465921 -680381361 -2038745106 -1559080208 1278734819 313772688 -734544226 -310055840 1001069052 1997705262 182118256 676421083 462212731
REM
CELL 1.54180   50.00000   50.00000   50.00000   90.00000   90.00000   90.00000
LATT -1
SFAC C  
C      1  0.5545060000000  0.4955500000000  0.5694670000000 1.0
C      1  0.4898090000000  0.5709520000000  0.5517180000000 1.0
C      1  0.5734890000000  0.5546100000000  0.4958470000000 1.0
C      1  0.5675190000000  0.5182900000000  0.4220920000000 1.0
C      1  0.4337180000000  0.4630060000000  0.4252570000000 1.0
C      1  0.4356490000000  0.5149120000000  0.5743490000000 1.0
C      1  0.4763410000000  0.4276610000000  0.4389670000000 1.0
C      1  0.5218950000000  0.5674630000000  0.4357220000000 1.0
C      1  0.5149370000000  0.4228080000000  0.5561880000000 1.0
C      1  0.5658930000000  0.4397780000000  0.5273620000000 1.0
C      1  0.4276310000000  0.5657580000000  0.5200570000000 1.0
C      1  0.4342120000000  0.4393430000000  0.4774970000000 1.0
C      1  0.5071110000000  0.5700110000000  0.4582880000000 1.0
C      1  0.5697330000000  0.4606500000000  0.5100700000000 1.0
C      1  0.4584520000000  0.4999280000000  0.5774910000000 1.0
C      1  0.4914260000000  0.4243740000000  0.5393160000000 1.0
C      1  0.4997460000000  0.5915470000000  0.5326850000000 1.0
C      1  0.4932560000000  0.4244480000000  0.4607960000000 1.0
C      1  0.5903700000000  0.5315430000000  0.4958760000000 1.0
C      1  0.4112660000000  0.4761550000000  0.4977140000000 1.0
C      1  0.4256040000000  0.5420000000000  0.5065980000000 1.0
C      1  0.4418770000000  0.4905000000000  0.4200630000000 1.0
C      1  0.5435650000000  0.5053740000000  0.4248280000000 1.0
C      1  0.5331900000000  0.4961580000000  0.5882620000000 1.0
C      1  0.5292820000000  0.4597390000000  0.4362180000000 1.0
C      1  0.4479690000000  0.4456150000000  0.5236290000000 1.0
C      1  0.4324940000000  0.5224180000000  0.4603850000000 1.0
C      1  0.5250870000000  0.5331480000000  0.5585200000000 1.0
C      1  0.4776140000000  0.4571350000000  0.5575130000000 1.0
C      1  0.4589670000000  0.5360140000000  0.4432620000000 1.0
C      1  0.4609950000000  0.5634010000000  0.4720750000000 1.0
C      1  0.5510390000000  0.4383290000000  0.4619430000000 1.0
C      1  0.5279530000000  0.5608540000000  0.5389960000000 1.0
C      1  0.4359470000000  0.4681590000000  0.5390630000000 1.0
C      1  0.5653020000000  0.5296510000000  0.5335100000000 1.0
C      1  0.5700690000000  0.4662940000000  0.4587300000000 1.0
C      1  0.4351840000000  0.5276310000000  0.5503990000000 1.0
C      1  0.5327480000000  0.5427350000000  0.4339290000000 1.0
C      1  0.5353530000000  0.4327330000000  0.5315380000000 1.0
C      1  0.4207800000000  0.4596860000000  0.4555440000000 1.0
C      1  0.5785470000000  0.5276050000000  0.4465850000000 1.0
C      1  0.5657500000000  0.4793170000000  0.5452080000000 1.0
C      1  0.5252970000000  0.4504300000000  0.5653130000000 1.0
C      1  0.4774550000000  0.5474430000000  0.5729700000000 1.0
C      1  0.4662920000000  0.4563480000000  0.4322920000000 1.0
C      1  0.5501330000000  0.5581050000000  0.4779560000000 1.0
C      1  0.4489360000000  0.4169920000000  0.4834770000000 1.0
C      1  0.4518340000000  0.5700140000000  0.5322650000000 1.0
C      1  0.4602530000000  0.4817280000000  0.5535990000000 1.0
C      1  0.4860300000000  0.5485890000000  0.4595640000000 1.0
C      1  0.5515570000000  0.4618970000000  0.4860020000000 1.0
C      1  0.4608460000000  0.5033800000000  0.4403700000000 1.0
C      1  0.5455940000000  0.4832270000000  0.4463650000000 1.0
C      1  0.5437340000000  0.5126930000000  0.5451030000000 1.0
C      1  0.4939400000000  0.4550020000000  0.5289030000000 1.0
C      1  0.4995720000000  0.5423270000000  0.5404040000000 1.0
C      1  0.5173270000000  0.4424240000000  0.4602140000000 1.0
C      1  0.5500670000000  0.5511070000000  0.5173070000000 1.0
C      1  0.4431120000000  0.4642460000000  0.4975090000000 1.0
C      1  0.4446940000000  0.5396590000000  0.4838420000000 1.0
C      1  0.5234550000000  0.4272810000000  0.5044410000000 1.0
C      1  0.4270410000000  0.5154600000000  0.5229550000000 1.0
C      1  0.5141270000000  0.5184290000000  0.4260400000000 1.0
C      1  0.5228920000000  0.5719770000000  0.4856600000000 1.0
C      1  0.4804340000000  0.4226700000000  0.4895310000000 1.0
C      1  0.4744950000000  0.5811630000000  0.5162080000000 1.0
C      1  0.4040840000000  0.4807920000000  0.4707400000000 1.0
C      1  0.5875840000000  0.5119350000000  0.4712710000000 1.0
C      1  0.5842050000000  0.4877050000000  0.5193460000000 1.0
C      1  0.5163600000000  0.4702350000000  0.5881200000000 1.0
C      1  0.4850850000000  0.5181790000000  0.5827790000000 1.0
C      1  0.4887810000000  0.4743560000000  0.4228340000000 1.0
C      1  0.4650130000000  0.5861400000000  0.4867800000000 1.0
C      1  0.5934620000000  0.4818480000000  0.4621560000000 1.0
C      1  0.4890860000000  0.4531460000000  0.5819980000000 1.0
C      1  0.4675800000000  0.4261470000000  0.5208420000000 1.0
C      1  0.5242290000000  0.5843210000000  0.5164960000000 1.0
C      1  0.5382130000000  0.4174440000000  0.4834730000000 1.0
C      1  0.5871260000000  0.5185630000000  0.5203850000000 1.0
C      1  0.4172190000000  0.4848760000000  0.5253160000000 1.0
C      1  0.4054520000000  0.5066330000000  0.4610690000000 1.0
C      1  0.4839440000000  0.5310920000000  0.4236620000000 1.0
C      1  0.5123230000000  0.4633400000000  0.4155640000000 1.0
C      1  0.5174710000000  0.5201990000000  0.5849550000000 1.0
C      1  0.4775370000000  0.5275980000000  0.5253950000000 1.0
C      1  0.5226910000000  0.5381080000000  0.5065850000000 1.0
C      1  0.5256440000000  0.4948020000000  0.5248620000000 1.0
C      1  0.5007840000000  0.4718120000000  0.4646080000000 1.0
C      1  0.4964930000000  0.5187100000000  0.4732900000000 1.0
C      1  0.4983740000000  0.4850370000000  0.5379430000000 1.0
C      1  0.5230050000000  0.4730950000000  0.4887400000000 1.0
C      1  0.4756280000000  0.5342940000000  0.4951550000000 1.0
C      1  0.4743140000000  0.4673340000000  0.4843430000000 1.0
C      1  0.5459820000000  0.5079190000000  0.4690560000000 1.0
C      1  0.4543510000000  0.4999610000000  0.4735770000000 1.0
C      1  0.4715330000000  0.4984880000000  0.5279360000000 1.0
C      1  0.4966020000000  0.5589710000000  0.5028840000000 1.0
C      1  0.4996730000000  0.4495050000000  0.4977280000000 1.0
C      1  0.4495990000000  0.4966910000000  0.5053810000000 1.0
C      1  0.4939110000000  0.4991360000000  0.4455470000000 1.0
C      1  0.5656380000000  0.4984680000000  0.4935010000000 1.0
C      1  0.4976080000000  0.4898640000000  0.5687220000000 1.0
C      1  0.5502330000000  0.5365930000000  0.4570240000000 1.0
C      1  0.4600160000000  0.5449760000000  0.5461100000000 1.0
C      1  0.4532690000000  0.4691620000000  0.4591940000000 1.0
C      1  0.5378570000000  0.4660040000000  0.5384460000000 1.0
C      1  0.5220590000000  0.5067990000000  0.4932070000000 1.0
END
