TITL C-3289322-3858-346 9.84408110308234e-05 125000 -843.252148415753 0 0 160 (C1) n - 1
REM
REM in /nfs/bkarasulu/CARBON/AIRSS/Generating-Clusters/AIREBO/with-SteepDescent/Higher-Symm/SD-CG/HFTN-CG
REM
REM
REM
REM
REM
REM ./C.cell (b20cbc046b6831c77cfcea5457e17084)
REM
REM compiler GCC version 9.2.1 20190827 (Red Hat 9.2.1-1)
REM options -cpp -mtune=generic -march=x86-64 -g -O0 -fpre-include=/usr/include/finclude/math-vector-fortran.h
REM seed 1520032287 1975500677 1976179832 342862718 803571068 536314759 128621586 1294381128 -385048994 1729605189 -461013456 1632632258 -1714138785 -912323519 350891745 1934668830 792004725 850680635 -120109325 -595821427 -2105902155 -1559830983 1833891619 1932245597 -1272749812 508923074 -1559516527 1691984854 2049259856 1548765698 1418920208 -589152704 1796861739
REM
CELL 1.54180   50.00000   50.00000   50.00000   90.00000   90.00000   90.00000
LATT -1
SFAC C  
C      1  0.4517190000000  0.4638660000000  0.4851360000000 1.0
C      1  0.4516500000000  0.5159670000000  0.4658960000000 1.0
C      1  0.4494930000000  0.5343830000000  0.4949310000000 1.0
C      1  0.4519860000000  0.4970640000000  0.5356170000000 1.0
C      1  0.4489610000000  0.4680500000000  0.5180720000000 1.0
C      1  0.5287320000000  0.5036050000000  0.6040170000000 1.0
C      1  0.5315000000000  0.4079310000000  0.5364350000000 1.0
C      1  0.5328430000000  0.4351300000000  0.4221520000000 1.0
C      1  0.5345630000000  0.5541850000000  0.4134860000000 1.0
C      1  0.5365140000000  0.5927640000000  0.5369400000000 1.0
C      1  0.4162260000000  0.5256250000000  0.5650270000000 1.0
C      1  0.4258370000000  0.4537380000000  0.5467100000000 1.0
C      1  0.4262390000000  0.4340110000000  0.4789010000000 1.0
C      1  0.4143110000000  0.5196330000000  0.4400510000000 1.0
C      1  0.4148770000000  0.5768630000000  0.4970610000000 1.0
C      1  0.3923250000000  0.5168050000000  0.5227510000000 1.0
C      1  0.4029010000000  0.4904340000000  0.5190510000000 1.0
C      1  0.4149290000000  0.4883420000000  0.4871520000000 1.0
C      1  0.4147470000000  0.5218890000000  0.4799400000000 1.0
C      1  0.4068520000000  0.5349700000000  0.5036350000000 1.0
C      1  0.5867130000000  0.5540920000000  0.4780190000000 1.0
C      1  0.5796240000000  0.5238590000000  0.5526270000000 1.0
C      1  0.5790770000000  0.4633880000000  0.5398370000000 1.0
C      1  0.5817070000000  0.4479220000000  0.4764330000000 1.0
C      1  0.5790050000000  0.5000850000000  0.4402400000000 1.0
C      1  0.4499220000000  0.4838490000000  0.4159200000000 1.0
C      1  0.4635770000000  0.5877410000000  0.4321340000000 1.0
C      1  0.4473850000000  0.5546990000000  0.5651090000000 1.0
C      1  0.4639820000000  0.4634450000000  0.5924350000000 1.0
C      1  0.4636620000000  0.3999880000000  0.4961820000000 1.0
C      1  0.4743150000000  0.4817830000000  0.5657410000000 1.0
C      1  0.4819690000000  0.4377220000000  0.5083180000000 1.0
C      1  0.4776650000000  0.4716280000000  0.4464910000000 1.0
C      1  0.4771670000000  0.5432160000000  0.4522040000000 1.0
C      1  0.4525030000000  0.5436980000000  0.5240680000000 1.0
C      1  0.5692960000000  0.5056980000000  0.5726780000000 1.0
C      1  0.5713110000000  0.4360490000000  0.5299450000000 1.0
C      1  0.5735960000000  0.4481780000000  0.4433880000000 1.0
C      1  0.5766120000000  0.5334870000000  0.4331000000000 1.0
C      1  0.5782510000000  0.5697210000000  0.5029340000000 1.0
C      1  0.4572070000000  0.4316620000000  0.4898020000000 1.0
C      1  0.4517020000000  0.4925490000000  0.4469030000000 1.0
C      1  0.4566890000000  0.5589970000000  0.4743150000000 1.0
C      1  0.4585460000000  0.5258670000000  0.5524860000000 1.0
C      1  0.4596890000000  0.4565500000000  0.5482190000000 1.0
C      1  0.4433730000000  0.4565980000000  0.4325950000000 1.0
C      1  0.4462350000000  0.5608980000000  0.4340870000000 1.0
C      1  0.4396610000000  0.5742370000000  0.5463410000000 1.0
C      1  0.4426020000000  0.4888350000000  0.5887810000000 1.0
C      1  0.4417320000000  0.4109560000000  0.5197580000000 1.0
C      1  0.5403590000000  0.4103790000000  0.5095030000000 1.0
C      1  0.5457360000000  0.4537890000000  0.4052370000000 1.0
C      1  0.5525950000000  0.5727090000000  0.4255720000000 1.0
C      1  0.5543830000000  0.5709400000000  0.5483540000000 1.0
C      1  0.5407670000000  0.4802020000000  0.5914350000000 1.0
C      1  0.5547960000000  0.4810720000000  0.5135130000000 1.0
C      1  0.5577130000000  0.4827980000000  0.4692440000000 1.0
C      1  0.5595230000000  0.5182070000000  0.4719030000000 1.0
C      1  0.5628830000000  0.5399390000000  0.5087140000000 1.0
C      1  0.5511020000000  0.5127660000000  0.5253040000000 1.0
C      1  0.4990790000000  0.5620440000000  0.3810920000000 1.0
C      1  0.4939520000000  0.6180470000000  0.5150910000000 1.0
C      1  0.4944530000000  0.5271710000000  0.6243710000000 1.0
C      1  0.4986980000000  0.3878540000000  0.5619600000000 1.0
C      1  0.4963650000000  0.4075870000000  0.4138020000000 1.0
C      1  0.4946410000000  0.5038540000000  0.6036900000000 1.0
C      1  0.4974900000000  0.4059720000000  0.5364330000000 1.0
C      1  0.4989040000000  0.4366430000000  0.4240590000000 1.0
C      1  0.5006180000000  0.5555940000000  0.4103620000000 1.0
C      1  0.4878020000000  0.5891180000000  0.5211310000000 1.0
C      1  0.5901170000000  0.4929710000000  0.4708900000000 1.0
C      1  0.5901620000000  0.5228670000000  0.4858940000000 1.0
C      1  0.5889370000000  0.5211690000000  0.5199880000000 1.0
C      1  0.5922510000000  0.4876800000000  0.5252220000000 1.0
C      1  0.5832560000000  0.4732900000000  0.4977630000000 1.0
C      1  0.4118450000000  0.4551740000000  0.4940020000000 1.0
C      1  0.4105030000000  0.4950690000000  0.4449840000000 1.0
C      1  0.4130390000000  0.5663290000000  0.4741050000000 1.0
C      1  0.4040470000000  0.5364010000000  0.5434400000000 1.0
C      1  0.4147150000000  0.4797580000000  0.5429620000000 1.0
C      1  0.4891210000000  0.4385570000000  0.5415550000000 1.0
C      1  0.4973880000000  0.4459050000000  0.4567550000000 1.0
C      1  0.4966790000000  0.5279150000000  0.4297290000000 1.0
C      1  0.4803610000000  0.5786180000000  0.4896330000000 1.0
C      1  0.4828660000000  0.5144480000000  0.5735780000000 1.0
C      1  0.5673710000000  0.4740100000000  0.4219850000000 1.0
C      1  0.5694270000000  0.5605510000000  0.4525170000000 1.0
C      1  0.5709930000000  0.5499560000000  0.5604460000000 1.0
C      1  0.5651480000000  0.4725790000000  0.5689620000000 1.0
C      1  0.5675810000000  0.4252490000000  0.4974770000000 1.0
C      1  0.5221560000000  0.4769490000000  0.5035300000000 1.0
C      1  0.5296060000000  0.4940080000000  0.4809850000000 1.0
C      1  0.5316840000000  0.5224440000000  0.4917480000000 1.0
C      1  0.5147870000000  0.5272300000000  0.5183570000000 1.0
C      1  0.5215820000000  0.4976310000000  0.5267630000000 1.0
C      1  0.4594360000000  0.5894130000000  0.5362340000000 1.0
C      1  0.4613910000000  0.4994850000000  0.6093480000000 1.0
C      1  0.4639050000000  0.4006360000000  0.5361420000000 1.0
C      1  0.4650890000000  0.4393440000000  0.4266270000000 1.0
C      1  0.4670530000000  0.5520560000000  0.4146040000000 1.0
C      1  0.4950140000000  0.4326650000000  0.5734990000000 1.0
C      1  0.4963120000000  0.4138770000000  0.4614310000000 1.0
C      1  0.4941410000000  0.5062480000000  0.4038530000000 1.0
C      1  0.4929540000000  0.5974460000000  0.4684980000000 1.0
C      1  0.4902860000000  0.5468070000000  0.5810220000000 1.0
C      1  0.4312480000000  0.4986580000000  0.5625450000000 1.0
C      1  0.4298790000000  0.4395330000000  0.5182650000000 1.0
C      1  0.4301350000000  0.4724910000000  0.4611630000000 1.0
C      1  0.4315260000000  0.5423800000000  0.4585750000000 1.0
C      1  0.4216420000000  0.5579830000000  0.5239290000000 1.0
C      1  0.5177640000000  0.5867420000000  0.4544950000000 1.0
C      1  0.5121940000000  0.5614990000000  0.5692580000000 1.0
C      1  0.5146900000000  0.4508750000000  0.5837020000000 1.0
C      1  0.5173970000000  0.4042520000000  0.4784890000000 1.0
C      1  0.5143720000000  0.4871370000000  0.4015730000000 1.0
C      1  0.4808860000000  0.5261790000000  0.4905480000000 1.0
C      1  0.4775020000000  0.5132020000000  0.5199200000000 1.0
C      1  0.4854280000000  0.4839720000000  0.5175420000000 1.0
C      1  0.4788500000000  0.4777270000000  0.4878890000000 1.0
C      1  0.4810450000000  0.5020930000000  0.4720160000000 1.0
C      1  0.4658710000000  0.5604970000000  0.5859320000000 1.0
C      1  0.4718840000000  0.4331390000000  0.5887420000000 1.0
C      1  0.4725500000000  0.4011800000000  0.4651310000000 1.0
C      1  0.4675110000000  0.4973520000000  0.3989680000000 1.0
C      1  0.4736500000000  0.6084890000000  0.4510830000000 1.0
C      1  0.4967520000000  0.3970700000000  0.5035710000000 1.0
C      1  0.5055020000000  0.4613830000000  0.4016860000000 1.0
C      1  0.4960910000000  0.5817220000000  0.4316450000000 1.0
C      1  0.5091170000000  0.5845070000000  0.5472460000000 1.0
C      1  0.4967140000000  0.4702850000000  0.5986430000000 1.0
C      1  0.5534870000000  0.5876150000000  0.5120950000000 1.0
C      1  0.5496680000000  0.5190500000000  0.5892380000000 1.0
C      1  0.5507830000000  0.4254480000000  0.5482810000000 1.0
C      1  0.5519220000000  0.4275950000000  0.4412640000000 1.0
C      1  0.5498690000000  0.5273110000000  0.4130170000000 1.0
C      1  0.5236570000000  0.4831430000000  0.5574560000000 1.0
C      1  0.5291950000000  0.4380910000000  0.4979450000000 1.0
C      1  0.5227650000000  0.4889160000000  0.4511510000000 1.0
C      1  0.5221070000000  0.5435420000000  0.4724110000000 1.0
C      1  0.5304740000000  0.5532970000000  0.5346770000000 1.0
C      1  0.5479170000000  0.4505230000000  0.4736570000000 1.0
C      1  0.5463590000000  0.5094840000000  0.4417760000000 1.0
C      1  0.5401080000000  0.5614050000000  0.4950600000000 1.0
C      1  0.5361340000000  0.5273130000000  0.5521620000000 1.0
C      1  0.5391780000000  0.4633160000000  0.5369940000000 1.0
C      1  0.5421260000000  0.5481510000000  0.5783560000000 1.0
C      1  0.5410920000000  0.4485880000000  0.5674600000000 1.0
C      1  0.5482360000000  0.4164340000000  0.4709180000000 1.0
C      1  0.5428630000000  0.4941440000000  0.4096930000000 1.0
C      1  0.5423000000000  0.5769420000000  0.4648780000000 1.0
C      1  0.5114530000000  0.5126070000000  0.5615200000000 1.0
C      1  0.5187530000000  0.4442230000000  0.5258620000000 1.0
C      1  0.5254920000000  0.4592480000000  0.4530680000000 1.0
C      1  0.5239780000000  0.5328200000000  0.4455050000000 1.0
C      1  0.5109440000000  0.5659620000000  0.5119480000000 1.0
C      1  0.4955400000000  0.4986240000000  0.4456190000000 1.0
C      1  0.4948370000000  0.5500210000000  0.4791180000000 1.0
C      1  0.4868390000000  0.5455710000000  0.5246230000000 1.0
C      1  0.4956470000000  0.4719160000000  0.5428210000000 1.0
C      1  0.5010320000000  0.4542830000000  0.4895250000000 1.0
END
