TITL C-3289326-3776-332 -637.994589954692 125000 -349.480890948349 0 0 65 (C1) n - 1
REM
REM in /nfs/bkarasulu/CARBON/AIRSS/Generating-Clusters/AIREBO/with-SteepDescent/Higher-Symm/SD-CG/HFTN-CG
REM
REM
REM
REM
REM
REM ./C.cell (b20cbc046b6831c77cfcea5457e17084)
REM
REM compiler GCC version 9.2.1 20190827 (Red Hat 9.2.1-1)
REM options -cpp -mtune=generic -march=x86-64 -g -O0 -fpre-include=/usr/include/finclude/math-vector-fortran.h
REM seed 1285332785 1258106761 -801172159 332035491 -1104184812 -738044954 88980507 2022115748 2010166186 661539318 -1930196778 -1212315909 518207209 -1827720272 -470442128 698407921 -1312069684 -787442556 -1882607712 -74306389 1543858724 330289042 1343987690 141382306 410495356 1852653883 617655437 608302905 103437214 -1642853457 1334105510 117834400 -731293988
REM
CELL 1.54180   50.00000   50.00000   50.00000   90.00000   90.00000   90.00000
LATT -1
SFAC C  
C      1  0.4503880000000  0.4993060000000  0.4611640000000 1.0
C      1  0.5257690000000  0.5013500000000  0.4353910000000 1.0
C      1  0.5664380000000  0.4943820000000  0.5005780000000 1.0
C      1  0.5176100000000  0.5018700000000  0.5595600000000 1.0
C      1  0.4401520000000  0.5024190000000  0.5368020000000 1.0
C      1  0.4968140000000  0.5550310000000  0.5600810000000 1.0
C      1  0.4243250000000  0.5526590000000  0.5153590000000 1.0
C      1  0.4639770000000  0.5505730000000  0.4563580000000 1.0
C      1  0.5500700000000  0.5532240000000  0.4498850000000 1.0
C      1  0.5511490000000  0.5666150000000  0.5285370000000 1.0
C      1  0.4457200000000  0.4695180000000  0.5414860000000 1.0
C      1  0.4451310000000  0.4660810000000  0.4568100000000 1.0
C      1  0.5169720000000  0.4685050000000  0.4351040000000 1.0
C      1  0.5716730000000  0.4614350000000  0.4939730000000 1.0
C      1  0.5254730000000  0.4689340000000  0.5626790000000 1.0
C      1  0.5554070000000  0.5171890000000  0.4795320000000 1.0
C      1  0.5385410000000  0.5232540000000  0.5433800000000 1.0
C      1  0.4597910000000  0.5269640000000  0.5452060000000 1.0
C      1  0.4374620000000  0.5200380000000  0.4833320000000 1.0
C      1  0.5053850000000  0.5261400000000  0.4449870000000 1.0
C      1  0.4593980000000  0.5430360000000  0.4868820000000 1.0
C      1  0.5214170000000  0.5460770000000  0.4608690000000 1.0
C      1  0.5306220000000  0.5335880000000  0.4912830000000 1.0
C      1  0.5158640000000  0.5248800000000  0.5194080000000 1.0
C      1  0.4533160000000  0.5475810000000  0.5229210000000 1.0
C      1  0.4761870000000  0.5424060000000  0.5681310000000 1.0
C      1  0.4157700000000  0.5393580000000  0.4951620000000 1.0
C      1  0.4781570000000  0.5411440000000  0.4377920000000 1.0
C      1  0.5681820000000  0.5384360000000  0.4606020000000 1.0
C      1  0.5549310000000  0.5486940000000  0.5461260000000 1.0
C      1  0.5092330000000  0.5657850000000  0.4823390000000 1.0
C      1  0.5273730000000  0.5618970000000  0.5098630000000 1.0
C      1  0.5021090000000  0.5542140000000  0.5297230000000 1.0
C      1  0.4771270000000  0.5634050000000  0.5159800000000 1.0
C      1  0.4820300000000  0.5678010000000  0.4875280000000 1.0
C      1  0.4939630000000  0.4923570000000  0.4274210000000 1.0
C      1  0.5713730000000  0.4826410000000  0.4683720000000 1.0
C      1  0.5501730000000  0.4898090000000  0.5598620000000 1.0
C      1  0.4603850000000  0.4912900000000  0.5627010000000 1.0
C      1  0.4319510000000  0.4805140000000  0.4845370000000 1.0
C      1  0.4890890000000  0.4837160000000  0.4764930000000 1.0
C      1  0.5195060000000  0.4805240000000  0.4798070000000 1.0
C      1  0.5284540000000  0.4815210000000  0.5092670000000 1.0
C      1  0.5007970000000  0.4946980000000  0.5240240000000 1.0
C      1  0.4771560000000  0.4880930000000  0.5038530000000 1.0
C      1  0.5536010000000  0.4400770000000  0.4774740000000 1.0
C      1  0.5360940000000  0.4443860000000  0.5444670000000 1.0
C      1  0.4730980000000  0.4529790000000  0.5493970000000 1.0
C      1  0.4438520000000  0.4487320000000  0.4866190000000 1.0
C      1  0.4954430000000  0.4448480000000  0.4425850000000 1.0
C      1  0.4600400000000  0.4618110000000  0.5131170000000 1.0
C      1  0.4758380000000  0.4577650000000  0.4647250000000 1.0
C      1  0.5274990000000  0.4536250000000  0.4638170000000 1.0
C      1  0.5450970000000  0.4544730000000  0.5134270000000 1.0
C      1  0.5021390000000  0.4642460000000  0.5391110000000 1.0
C      1  0.4466240000000  0.4987690000000  0.5063600000000 1.0
C      1  0.4805470000000  0.5049980000000  0.4546940000000 1.0
C      1  0.5411700000000  0.4937970000000  0.4614040000000 1.0
C      1  0.5518290000000  0.4971730000000  0.5274210000000 1.0
C      1  0.4866060000000  0.5071940000000  0.5522840000000 1.0
C      1  0.4746820000000  0.4340060000000  0.4887990000000 1.0
C      1  0.5036530000000  0.4304890000000  0.4726230000000 1.0
C      1  0.5268680000000  0.4302740000000  0.4960540000000 1.0
C      1  0.5118160000000  0.4354860000000  0.5236730000000 1.0
C      1  0.4806930000000  0.4359160000000  0.5207990000000 1.0
END
