TITL C-3289335-9438-360 -0.000392088126603285 125000 -459.487808944166 0 0 86 (C1) n - 1
REM
REM in /nfs/bkarasulu/CARBON/AIRSS/Generating-Clusters/AIREBO/with-SteepDescent/Higher-Symm/SD-CG/HFTN-CG
REM
REM
REM
REM
REM
REM ./C.cell (b20cbc046b6831c77cfcea5457e17084)
REM
REM compiler GCC version 9.2.1 20190827 (Red Hat 9.2.1-1)
REM options -cpp -mtune=generic -march=x86-64 -g -O0 -fpre-include=/usr/include/finclude/math-vector-fortran.h
REM seed 1244805390 403090736 9253184 -215173980 -1199602162 1971047286 -2020085593 1047575382 872698620 -1261591873 1237233622 -838746198 8801182 749724171 -1409355579 1927592301 1284539838 -1445041464 865402518 -1344221699 1679739144 316510618 696821314 -663340564 2093314906 47869205 260897933 -1729259923 1594615821 1406079507 -1372080982 358224242 1423682275
REM
CELL 1.54180   50.00000   50.00000   50.00000   90.00000   90.00000   90.00000
LATT -1
SFAC C  
C      1  0.5420680000000  0.4454910000000  0.5484880000000 1.0
C      1  0.5511870000000  0.5492970000000  0.5537100000000 1.0
C      1  0.5315550000000  0.5485710000000  0.4546820000000 1.0
C      1  0.5398910000000  0.4510670000000  0.4589880000000 1.0
C      1  0.4520240000000  0.4407390000000  0.4578700000000 1.0
C      1  0.4592480000000  0.5449670000000  0.4521920000000 1.0
C      1  0.4482200000000  0.5587750000000  0.5444270000000 1.0
C      1  0.4524630000000  0.4638430000000  0.5623750000000 1.0
C      1  0.4857360000000  0.5252200000000  0.4447150000000 1.0
C      1  0.4932550000000  0.4493330000000  0.4819600000000 1.0
C      1  0.4769600000000  0.4858490000000  0.5550810000000 1.0
C      1  0.4557510000000  0.5866230000000  0.5304110000000 1.0
C      1  0.5279230000000  0.5171740000000  0.5579270000000 1.0
C      1  0.5212250000000  0.4502870000000  0.5147770000000 1.0
C      1  0.5250430000000  0.4751440000000  0.4423840000000 1.0
C      1  0.5407460000000  0.5785530000000  0.4663040000000 1.0
C      1  0.4354160000000  0.4695920000000  0.4848100000000 1.0
C      1  0.4309580000000  0.4855620000000  0.5240060000000 1.0
C      1  0.4234070000000  0.5288910000000  0.5053130000000 1.0
C      1  0.4273600000000  0.5092190000000  0.4628720000000 1.0
C      1  0.5755500000000  0.4648840000000  0.5113320000000 1.0
C      1  0.5721600000000  0.4862700000000  0.4680870000000 1.0
C      1  0.5725570000000  0.5247460000000  0.4873490000000 1.0
C      1  0.5693790000000  0.4988220000000  0.5311460000000 1.0
C      1  0.4566830000000  0.4637930000000  0.5286340000000 1.0
C      1  0.4418010000000  0.5316890000000  0.5296930000000 1.0
C      1  0.4322120000000  0.5364370000000  0.4615360000000 1.0
C      1  0.4614820000000  0.4727150000000  0.4645750000000 1.0
C      1  0.5675010000000  0.4585420000000  0.4666970000000 1.0
C      1  0.5441710000000  0.5268960000000  0.4706810000000 1.0
C      1  0.5560720000000  0.5274560000000  0.5314760000000 1.0
C      1  0.5494970000000  0.4724580000000  0.5319140000000 1.0
C      1  0.5635910000000  0.5071250000000  0.4528950000000 1.0
C      1  0.5776070000000  0.4467900000000  0.4907170000000 1.0
C      1  0.5942320000000  0.4964920000000  0.5485230000000 1.0
C      1  0.5724250000000  0.5419880000000  0.5091850000000 1.0
C      1  0.4277430000000  0.5061790000000  0.5426080000000 1.0
C      1  0.4404790000000  0.4498280000000  0.5033280000000 1.0
C      1  0.4408350000000  0.4919740000000  0.4471180000000 1.0
C      1  0.4217960000000  0.5474250000000  0.4852490000000 1.0
C      1  0.4730190000000  0.4242090000000  0.4870200000000 1.0
C      1  0.4792550000000  0.5037730000000  0.5806170000000 1.0
C      1  0.4604590000000  0.5908360000000  0.5039170000000 1.0
C      1  0.4736420000000  0.5061570000000  0.4240250000000 1.0
C      1  0.5383290000000  0.4209630000000  0.5127950000000 1.0
C      1  0.5326250000000  0.4948100000000  0.4206350000000 1.0
C      1  0.5418510000000  0.5822420000000  0.4938060000000 1.0
C      1  0.5392540000000  0.5021530000000  0.5785430000000 1.0
C      1  0.4776310000000  0.5790930000000  0.5509330000000 1.0
C      1  0.4620360000000  0.5726260000000  0.4344120000000 1.0
C      1  0.4815130000000  0.4269410000000  0.4556610000000 1.0
C      1  0.4847720000000  0.4560860000000  0.5695850000000 1.0
C      1  0.5134500000000  0.5769930000000  0.4510540000000 1.0
C      1  0.5244240000000  0.5460690000000  0.5638930000000 1.0
C      1  0.5159050000000  0.4331410000000  0.5428910000000 1.0
C      1  0.5217560000000  0.4443730000000  0.4319200000000 1.0
C      1  0.5167420000000  0.4810610000000  0.5285700000000 1.0
C      1  0.5258840000000  0.5135550000000  0.5241590000000 1.0
C      1  0.5223610000000  0.5116630000000  0.4901570000000 1.0
C      1  0.5146490000000  0.4851850000000  0.4702590000000 1.0
C      1  0.4852580000000  0.4820010000000  0.4870790000000 1.0
C      1  0.4901150000000  0.5146950000000  0.4789910000000 1.0
C      1  0.4712700000000  0.5146050000000  0.5279050000000 1.0
C      1  0.4835160000000  0.4834770000000  0.5215700000000 1.0
C      1  0.5327320000000  0.5642460000000  0.5119050000000 1.0
C      1  0.5237200000000  0.5198530000000  0.4154390000000 1.0
C      1  0.5324690000000  0.4088100000000  0.4886340000000 1.0
C      1  0.5314490000000  0.4761070000000  0.5790110000000 1.0
C      1  0.4742940000000  0.5770110000000  0.4866220000000 1.0
C      1  0.4717280000000  0.5275920000000  0.5789310000000 1.0
C      1  0.4663330000000  0.4157200000000  0.5111300000000 1.0
C      1  0.4725970000000  0.4823790000000  0.4159810000000 1.0
C      1  0.5174600000000  0.5465040000000  0.5245750000000 1.0
C      1  0.5122660000000  0.5353010000000  0.4344740000000 1.0
C      1  0.5234760000000  0.4412800000000  0.4820620000000 1.0
C      1  0.5128570000000  0.4699260000000  0.5605230000000 1.0
C      1  0.4798380000000  0.5456140000000  0.4779660000000 1.0
C      1  0.4742270000000  0.5394560000000  0.5511450000000 1.0
C      1  0.4696560000000  0.4326260000000  0.5327210000000 1.0
C      1  0.4737700000000  0.4604510000000  0.4353240000000 1.0
C      1  0.4901570000000  0.4328080000000  0.5513810000000 1.0
C      1  0.5000370000000  0.5565920000000  0.5485570000000 1.0
C      1  0.4856130000000  0.5745870000000  0.4567060000000 1.0
C      1  0.4947510000000  0.4374110000000  0.4302280000000 1.0
C      1  0.5749190000000  0.4949590000000  0.4989600000000 1.0
C      1  0.4224580000000  0.4971820000000  0.4936510000000 1.0
END
