TITL C-3289329-2751-66 0.00113440405991928 125000 -387.673114130688 0 0 70 (C1) n - 1
REM
REM in /nfs/bkarasulu/CARBON/AIRSS/Generating-Clusters/AIREBO/with-SteepDescent/Higher-Symm/SD-CG/HFTN-CG
REM
REM
REM
REM
REM
REM ./C.cell (b20cbc046b6831c77cfcea5457e17084)
REM
REM compiler GCC version 9.2.1 20190827 (Red Hat 9.2.1-1)
REM options -cpp -mtune=generic -march=x86-64 -g -O0 -fpre-include=/usr/include/finclude/math-vector-fortran.h
REM seed -1134637447 -570762897 -2043718965 -903948213 -838630014 529095489 -916223954 572942288 1153884806 -1873693742 1657643642 48369277 1737887776 -49115403 1339913714 1690485693 1843279427 -336532504 224386924 1532845400 2133404061 1305957289 132952236 2058840178 912632722 1339860345 1130226062 -969414329 2088695843 -56000745 -1939371500 -1276927560 533939977
REM
CELL 1.54180   50.00000   50.00000   50.00000   90.00000   90.00000   90.00000
LATT -1
SFAC C  
C      1  0.4380960000000  0.4561060000000  0.5475810000000 1.0
C      1  0.5683380000000  0.4688750000000  0.5453040000000 1.0
C      1  0.4941120000000  0.5752690000000  0.5534650000000 1.0
C      1  0.4647510000000  0.4355420000000  0.4673230000000 1.0
C      1  0.5744220000000  0.5061790000000  0.4639130000000 1.0
C      1  0.4654990000000  0.5646130000000  0.4658540000000 1.0
C      1  0.4671860000000  0.4685510000000  0.4628520000000 1.0
C      1  0.5531380000000  0.4869250000000  0.4520880000000 1.0
C      1  0.4793980000000  0.5421170000000  0.4539650000000 1.0
C      1  0.4649480000000  0.5419940000000  0.5187720000000 1.0
C      1  0.4818720000000  0.4590130000000  0.5150640000000 1.0
C      1  0.5467690000000  0.5120870000000  0.5182520000000 1.0
C      1  0.5134580000000  0.4464680000000  0.4089410000000 1.0
C      1  0.5307760000000  0.5366280000000  0.4017220000000 1.0
C      1  0.4502110000000  0.5028990000000  0.4071620000000 1.0
C      1  0.4356400000000  0.5084420000000  0.5462530000000 1.0
C      1  0.5241470000000  0.4395690000000  0.5439630000000 1.0
C      1  0.5411710000000  0.5516060000000  0.5531670000000 1.0
C      1  0.5101510000000  0.4673100000000  0.4244960000000 1.0
C      1  0.5186510000000  0.5213160000000  0.4195860000000 1.0
C      1  0.4708170000000  0.5026400000000  0.4236020000000 1.0
C      1  0.5301740000000  0.4446850000000  0.4928610000000 1.0
C      1  0.5306570000000  0.5569450000000  0.5034980000000 1.0
C      1  0.4335890000000  0.5011350000000  0.4917840000000 1.0
C      1  0.4818010000000  0.4779390000000  0.4391420000000 1.0
C      1  0.5316020000000  0.4920560000000  0.4311130000000 1.0
C      1  0.4889940000000  0.5258230000000  0.4310830000000 1.0
C      1  0.5264000000000  0.5120790000000  0.5603010000000 1.0
C      1  0.4730160000000  0.5174870000000  0.5635380000000 1.0
C      1  0.4959240000000  0.4725140000000  0.5611010000000 1.0
C      1  0.4937250000000  0.4274520000000  0.5474680000000 1.0
C      1  0.5667460000000  0.5312180000000  0.5538490000000 1.0
C      1  0.4399970000000  0.5406940000000  0.5499920000000 1.0
C      1  0.4920760000000  0.5311930000000  0.4813350000000 1.0
C      1  0.4778160000000  0.4817770000000  0.4901250000000 1.0
C      1  0.5333730000000  0.4975670000000  0.4913280000000 1.0
C      1  0.4392590000000  0.4788130000000  0.4793060000000 1.0
C      1  0.5445540000000  0.4679160000000  0.4790060000000 1.0
C      1  0.5058660000000  0.5580590000000  0.4918610000000 1.0
C      1  0.4938050000000  0.4846560000000  0.5332470000000 1.0
C      1  0.5153850000000  0.5093230000000  0.5310510000000 1.0
C      1  0.4819220000000  0.5164480000000  0.5334650000000 1.0
C      1  0.5174730000000  0.4243270000000  0.3955070000000 1.0
C      1  0.5437510000000  0.5531230000000  0.3860240000000 1.0
C      1  0.4313890000000  0.5025860000000  0.3889290000000 1.0
C      1  0.4721270000000  0.5114930000000  0.4969840000000 1.0
C      1  0.5080570000000  0.4778540000000  0.4916400000000 1.0
C      1  0.5136950000000  0.5126270000000  0.4729640000000 1.0
C      1  0.4697130000000  0.5546580000000  0.5495320000000 1.0
C      1  0.4690290000000  0.4480520000000  0.5445810000000 1.0
C      1  0.5616600000000  0.5002840000000  0.5457540000000 1.0
C      1  0.4899510000000  0.5406940000000  0.5730430000000 1.0
C      1  0.4678130000000  0.4704970000000  0.5701060000000 1.0
C      1  0.5396740000000  0.4860560000000  0.5671980000000 1.0
C      1  0.5186730000000  0.5744030000000  0.5567900000000 1.0
C      1  0.4261320000000  0.4778620000000  0.5487010000000 1.0
C      1  0.5547330000000  0.4482510000000  0.5472660000000 1.0
C      1  0.4453160000000  0.5158400000000  0.5174430000000 1.0
C      1  0.5128720000000  0.4450360000000  0.5144090000000 1.0
C      1  0.5441560000000  0.5439190000000  0.5225380000000 1.0
C      1  0.4850480000000  0.5777670000000  0.4882660000000 1.0
C      1  0.4390180000000  0.4490650000000  0.4832380000000 1.0
C      1  0.5746480000000  0.4801050000000  0.4846590000000 1.0
C      1  0.5172780000000  0.5373820000000  0.5717310000000 1.0
C      1  0.4552800000000  0.4950570000000  0.5699410000000 1.0
C      1  0.5226910000000  0.4643280000000  0.5649540000000 1.0
C      1  0.5729940000000  0.5096150000000  0.4968810000000 1.0
C      1  0.4589370000000  0.5627610000000  0.4980440000000 1.0
C      1  0.4636350000000  0.4363000000000  0.4998570000000 1.0
C      1  0.5057920000000  0.4979620000000  0.4485070000000 1.0
END
