TITL C-3289322-3858-731 0.0292133971163706 125000 -148.94529942048 0 0 42 (C3) n - 1
REM
REM in /nfs/bkarasulu/CARBON/AIRSS/Generating-Clusters/AIREBO/with-SteepDescent/Higher-Symm/SD-CG/HFTN-CG
REM
REM
REM
REM
REM
REM ./C.cell (b20cbc046b6831c77cfcea5457e17084)
REM
REM compiler GCC version 9.2.1 20190827 (Red Hat 9.2.1-1)
REM options -cpp -mtune=generic -march=x86-64 -g -O0 -fpre-include=/usr/include/finclude/math-vector-fortran.h
REM seed -432446365 650306622 1567072485 -484791677 -780168393 -527268041 400034746 -101325234 1510268875 289953220 821869417 -1263875687 -857694549 1778570460 1968858366 21193737 1830594459 -431295223 773120738 1691175989 1853228495 -568678535 -1938402148 2027755021 1112325316 -1566038222 -1632440787 -1619247707 -1219609094 1834462867 960428170 900875494 -5467343
REM
CELL 1.54180   50.00000   50.00000   50.00000   90.00000   90.00000   90.00000
LATT -1
SFAC C  
C      1  0.4703160000000  0.4766220000000  0.4504170000000 1.0
C      1  0.4468900000000  0.4698140000000  0.4776680000000 1.0
C      1  0.4762770000000  0.4484860000000  0.4730570000000 1.0
C      1  0.5288410000000  0.4772910000000  0.5521410000000 1.0
C      1  0.4716180000000  0.5226960000000  0.5508460000000 1.0
C      1  0.5259750000000  0.5223780000000  0.4488620000000 1.0
C      1  0.5501690000000  0.4726800000000  0.5227550000000 1.0
C      1  0.4481860000000  0.5270370000000  0.5230730000000 1.0
C      1  0.5486140000000  0.5283390000000  0.4769990000000 1.0
C      1  0.5220330000000  0.4500400000000  0.5287160000000 1.0
C      1  0.4759590000000  0.5504690000000  0.5274130000000 1.0
C      1  0.5213640000000  0.5517640000000  0.4701910000000 1.0
C      1  0.4693430000000  0.5182050000000  0.4422230000000 1.0
C      1  0.4510830000000  0.5350710000000  0.4661100000000 1.0
C      1  0.4759500000000  0.5590340000000  0.4701830000000 1.0
C      1  0.5288490000000  0.5227050000000  0.5594100000000 1.0
C      1  0.4635840000000  0.4657330000000  0.5479480000000 1.0
C      1  0.5321410000000  0.4719370000000  0.4452950000000 1.0
C      1  0.5568090000000  0.5293110000000  0.5185820000000 1.0
C      1  0.4396210000000  0.4698060000000  0.5230810000000 1.0
C      1  0.5537370000000  0.4665140000000  0.4723140000000 1.0
C      1  0.5329220000000  0.5475720000000  0.5354480000000 1.0
C      1  0.4804500000000  0.4418460000000  0.5296880000000 1.0
C      1  0.5267170000000  0.4449180000000  0.4668910000000 1.0
C      1  0.4573440000000  0.4964110000000  0.5346720000000 1.0
C      1  0.5321820000000  0.4587810000000  0.4974610000000 1.0
C      1  0.4952330000000  0.5340170000000  0.4575910000000 1.0
C      1  0.5398730000000  0.4970840000000  0.4668500000000 1.0
C      1  0.4646380000000  0.4572150000000  0.5037980000000 1.0
C      1  0.5308190000000  0.5433950000000  0.5017630000000 1.0
C      1  0.4643590000000  0.5413110000000  0.4967880000000 1.0
C      1  0.5022430000000  0.5342960000000  0.5416880000000 1.0
C      1  0.4972680000000  0.4678360000000  0.5437720000000 1.0
C      1  0.5015710000000  0.4664730000000  0.4591580000000 1.0
C      1  0.4552600000000  0.5013870000000  0.4682130000000 1.0
C      1  0.5414400000000  0.5034210000000  0.5343930000000 1.0
C      1  0.5011860000000  0.5011620000000  0.5492820000000 1.0
C      1  0.4978270000000  0.5001360000000  0.4560990000000 1.0
C      1  0.4985180000000  0.4557230000000  0.5012040000000 1.0
C      1  0.4974930000000  0.5489050000000  0.4978460000000 1.0
C      1  0.4497500000000  0.4974690000000  0.5015390000000 1.0
C      1  0.5429320000000  0.5008270000000  0.5005130000000 1.0
END
