TITL C-3289328-6581-97 0.00203871680865711 125000 -686.596480598272 0 0 132 (C1) n - 1
REM
REM in /nfs/bkarasulu/CARBON/AIRSS/Generating-Clusters/AIREBO/with-SteepDescent/Higher-Symm/SD-CG/HFTN-CG
REM
REM
REM
REM
REM
REM ./C.cell (b20cbc046b6831c77cfcea5457e17084)
REM
REM compiler GCC version 9.2.1 20190827 (Red Hat 9.2.1-1)
REM options -cpp -mtune=generic -march=x86-64 -g -O0 -fpre-include=/usr/include/finclude/math-vector-fortran.h
REM seed 1610791170 1553021334 1576577701 798101509 1214758203 -1836214980 -11504824 -67695657 -1518991109 -539363210 546801683 538919439 10103100 583680139 1809384761 1353167997 1970208448 756067964 -1671655914 -1644592948 -1099257034 -898796858 -1840469388 -1495987816 734557325 -1422754361 -2011825630 1607677308 -1593822255 1130289325 1622573911 -1088562775 1534963110
REM
CELL 1.54180   50.00000   50.00000   50.00000   90.00000   90.00000   90.00000
LATT -1
SFAC C  
C      1  0.5119680000000  0.5466750000000  0.4190950000000 1.0
C      1  0.5838800000000  0.5476660000000  0.5149560000000 1.0
C      1  0.4828710000000  0.5463580000000  0.5804190000000 1.0
C      1  0.4185990000000  0.5502080000000  0.4869610000000 1.0
C      1  0.5138650000000  0.5456010000000  0.5769240000000 1.0
C      1  0.5789710000000  0.5457170000000  0.4849550000000 1.0
C      1  0.4811070000000  0.5458330000000  0.4193810000000 1.0
C      1  0.4125950000000  0.5581650000000  0.5142420000000 1.0
C      1  0.5627720000000  0.4733600000000  0.5886010000000 1.0
C      1  0.4140070000000  0.4734850000000  0.5658570000000 1.0
C      1  0.4324610000000  0.4773910000000  0.4230550000000 1.0
C      1  0.5820460000000  0.4735840000000  0.4303810000000 1.0
C      1  0.5665030000000  0.4828700000000  0.4056440000000 1.0
C      1  0.4101470000000  0.4733780000000  0.4418450000000 1.0
C      1  0.4278570000000  0.4677180000000  0.5899440000000 1.0
C      1  0.5807890000000  0.4765500000000  0.5658920000000 1.0
C      1  0.4832060000000  0.4864770000000  0.4077780000000 1.0
C      1  0.5926490000000  0.4874830000000  0.4827080000000 1.0
C      1  0.5154820000000  0.4944160000000  0.5990700000000 1.0
C      1  0.4079280000000  0.4815560000000  0.5146370000000 1.0
C      1  0.4837320000000  0.4873900000000  0.5933300000000 1.0
C      1  0.5968830000000  0.4917890000000  0.5161670000000 1.0
C      1  0.5159690000000  0.4935640000000  0.4020740000000 1.0
C      1  0.4022570000000  0.4959080000000  0.4856940000000 1.0
C      1  0.4908740000000  0.5431090000000  0.5350730000000 1.0
C      1  0.4676160000000  0.5440780000000  0.4808420000000 1.0
C      1  0.5158500000000  0.5480680000000  0.4636940000000 1.0
C      1  0.5371420000000  0.5478540000000  0.5133690000000 1.0
C      1  0.4857040000000  0.5519140000000  0.4583580000000 1.0
C      1  0.4698440000000  0.5505070000000  0.5117990000000 1.0
C      1  0.5185580000000  0.5551600000000  0.5376150000000 1.0
C      1  0.5380800000000  0.5575220000000  0.4836550000000 1.0
C      1  0.5654470000000  0.5728090000000  0.4704760000000 1.0
C      1  0.5309750000000  0.5713650000000  0.5649710000000 1.0
C      1  0.4333610000000  0.5796210000000  0.5275700000000 1.0
C      1  0.4708670000000  0.5732070000000  0.4367570000000 1.0
C      1  0.5653940000000  0.5723620000000  0.5274990000000 1.0
C      1  0.5253480000000  0.5735780000000  0.4344010000000 1.0
C      1  0.4372000000000  0.5715160000000  0.4704760000000 1.0
C      1  0.4714160000000  0.5725850000000  0.5651220000000 1.0
C      1  0.4521360000000  0.5448490000000  0.4378270000000 1.0
C      1  0.5638060000000  0.5422220000000  0.4554230000000 1.0
C      1  0.5453400000000  0.5404700000000  0.5651230000000 1.0
C      1  0.4266130000000  0.5513240000000  0.5442490000000 1.0
C      1  0.4503570000000  0.5467760000000  0.5675040000000 1.0
C      1  0.5696120000000  0.5439090000000  0.5446310000000 1.0
C      1  0.5423590000000  0.5455520000000  0.4333390000000 1.0
C      1  0.4227440000000  0.5458950000000  0.4534290000000 1.0
C      1  0.4789480000000  0.4188870000000  0.5646300000000 1.0
C      1  0.4480850000000  0.4181270000000  0.4853790000000 1.0
C      1  0.5124820000000  0.4138220000000  0.4428040000000 1.0
C      1  0.5666290000000  0.4124080000000  0.5087290000000 1.0
C      1  0.4874410000000  0.4166460000000  0.4396890000000 1.0
C      1  0.4402610000000  0.4174390000000  0.5094860000000 1.0
C      1  0.5042660000000  0.4180380000000  0.5693900000000 1.0
C      1  0.5622370000000  0.4138700000000  0.4835220000000 1.0
C      1  0.4284590000000  0.5087150000000  0.5137240000000 1.0
C      1  0.4842140000000  0.5133010000000  0.4287910000000 1.0
C      1  0.5700280000000  0.5128670000000  0.4830250000000 1.0
C      1  0.5169200000000  0.5128770000000  0.5703620000000 1.0
C      1  0.4272880000000  0.5186160000000  0.4823110000000 1.0
C      1  0.4829450000000  0.5134920000000  0.5715500000000 1.0
C      1  0.5720590000000  0.5152370000000  0.5168870000000 1.0
C      1  0.5182080000000  0.5140250000000  0.4291370000000 1.0
C      1  0.5142750000000  0.5820740000000  0.4631710000000 1.0
C      1  0.5378030000000  0.5818800000000  0.5152550000000 1.0
C      1  0.4850900000000  0.5769920000000  0.5374010000000 1.0
C      1  0.4647580000000  0.5779660000000  0.4833360000000 1.0
C      1  0.5163230000000  0.5887530000000  0.5396890000000 1.0
C      1  0.5395680000000  0.5910440000000  0.4833470000000 1.0
C      1  0.4845860000000  0.5911670000000  0.4621720000000 1.0
C      1  0.4613210000000  0.5818440000000  0.5159420000000 1.0
C      1  0.4608690000000  0.4819260000000  0.5612650000000 1.0
C      1  0.4352000000000  0.4826300000000  0.4630210000000 1.0
C      1  0.5431500000000  0.4828060000000  0.4301580000000 1.0
C      1  0.5646110000000  0.4802610000000  0.5362170000000 1.0
C      1  0.4608550000000  0.4826080000000  0.4407050000000 1.0
C      1  0.4342670000000  0.4862270000000  0.5455610000000 1.0
C      1  0.5364030000000  0.4781200000000  0.5692540000000 1.0
C      1  0.5622250000000  0.4792780000000  0.4580860000000 1.0
C      1  0.5781260000000  0.4570540000000  0.4783230000000 1.0
C      1  0.5114680000000  0.4576830000000  0.5780870000000 1.0
C      1  0.4216850000000  0.4552750000000  0.5062430000000 1.0
C      1  0.4955520000000  0.4618410000000  0.4210950000000 1.0
C      1  0.5796620000000  0.4628490000000  0.5111820000000 1.0
C      1  0.5230170000000  0.4610260000000  0.4263230000000 1.0
C      1  0.4293590000000  0.4525840000000  0.4778310000000 1.0
C      1  0.4803100000000  0.4592380000000  0.5745740000000 1.0
C      1  0.5518230000000  0.5151320000000  0.4241400000000 1.0
C      1  0.5679710000000  0.5109970000000  0.5503740000000 1.0
C      1  0.4496640000000  0.5127100000000  0.5712570000000 1.0
C      1  0.4297320000000  0.5140530000000  0.4499440000000 1.0
C      1  0.5498930000000  0.5086800000000  0.5757370000000 1.0
C      1  0.5720310000000  0.5109360000000  0.4497440000000 1.0
C      1  0.4512700000000  0.5123270000000  0.4272410000000 1.0
C      1  0.4317950000000  0.5201290000000  0.5445860000000 1.0
C      1  0.4527030000000  0.4806230000000  0.4016820000000 1.0
C      1  0.6016350000000  0.4796490000000  0.4517300000000 1.0
C      1  0.5401570000000  0.4854700000000  0.6081620000000 1.0
C      1  0.3953910000000  0.4775180000000  0.5434260000000 1.0
C      1  0.4519410000000  0.4772810000000  0.5999160000000 1.0
C      1  0.6029650000000  0.4826290000000  0.5470840000000 1.0
C      1  0.5395140000000  0.4858360000000  0.3905630000000 1.0
C      1  0.3925950000000  0.4852220000000  0.4626990000000 1.0
C      1  0.5154200000000  0.4647880000000  0.4651100000000 1.0
C      1  0.5404530000000  0.4676470000000  0.5163580000000 1.0
C      1  0.4842090000000  0.4765710000000  0.5371260000000 1.0
C      1  0.4573080000000  0.4788700000000  0.4885990000000 1.0
C      1  0.5178760000000  0.4719600000000  0.5414170000000 1.0
C      1  0.5399050000000  0.4747620000000  0.4833480000000 1.0
C      1  0.4878510000000  0.4733640000000  0.4584340000000 1.0
C      1  0.4537680000000  0.4744780000000  0.5202150000000 1.0
C      1  0.4727660000000  0.4453270000000  0.5441670000000 1.0
C      1  0.4627560000000  0.4469180000000  0.4747750000000 1.0
C      1  0.5290990000000  0.4391390000000  0.4473190000000 1.0
C      1  0.5598900000000  0.4396550000000  0.5237010000000 1.0
C      1  0.4754280000000  0.4456090000000  0.4432190000000 1.0
C      1  0.4434430000000  0.4431370000000  0.5284170000000 1.0
C      1  0.5206230000000  0.4395880000000  0.5517930000000 1.0
C      1  0.5469520000000  0.4424630000000  0.4753360000000 1.0
C      1  0.5204270000000  0.5055520000000  0.5367720000000 1.0
C      1  0.4610690000000  0.5175820000000  0.5175460000000 1.0
C      1  0.4856600000000  0.5053800000000  0.4618310000000 1.0
C      1  0.5360880000000  0.5065640000000  0.4843210000000 1.0
C      1  0.5167790000000  0.5171550000000  0.4631340000000 1.0
C      1  0.4606710000000  0.5123200000000  0.4838980000000 1.0
C      1  0.4868000000000  0.5104710000000  0.5379000000000 1.0
C      1  0.5381710000000  0.5172050000000  0.5149210000000 1.0
C      1  0.5191960000000  0.4339840000000  0.4924810000000 1.0
C      1  0.5280850000000  0.4303740000000  0.5230630000000 1.0
C      1  0.4879890000000  0.4341120000000  0.4931720000000 1.0
C      1  0.4940960000000  0.4325310000000  0.5228830000000 1.0
END
