TITL C-3289332-8317-626 0.0008880308896755 125000 -870.831407875393 0 0 156 (C1) n - 1
REM
REM in /nfs/bkarasulu/CARBON/AIRSS/Generating-Clusters/AIREBO/with-SteepDescent/Higher-Symm/SD-CG/HFTN-CG
REM
REM
REM
REM
REM
REM ./C.cell (b20cbc046b6831c77cfcea5457e17084)
REM
REM compiler GCC version 9.2.1 20190827 (Red Hat 9.2.1-1)
REM options -cpp -mtune=generic -march=x86-64 -g -O0 -fpre-include=/usr/include/finclude/math-vector-fortran.h
REM seed 1014755738 1979150939 -1160274376 786070161 -958061484 -234546315 -1576178033 1096696275 1634919500 303486620 1424834328 1697590357 65512120 -111788140 1991683567 1837649283 2140912043 1257584770 304518796 1611663055 -952675875 -1194016518 -393041464 -213280688 338205307 1636303732 -77584012 -1744393878 1872032719 -1107993332 1538574304 -498551927 -557219424
REM
CELL 1.54180   50.00000   50.00000   50.00000   90.00000   90.00000   90.00000
LATT -1
SFAC C  
C      1  0.4833240000000  0.6106710000000  0.4671430000000 1.0
C      1  0.5308490000000  0.6030150000000  0.4842580000000 1.0
C      1  0.5163130000000  0.6102740000000  0.5292750000000 1.0
C      1  0.4694250000000  0.6005640000000  0.5173760000000 1.0
C      1  0.4882020000000  0.6048600000000  0.5366810000000 1.0
C      1  0.5295700000000  0.6194930000000  0.5069380000000 1.0
C      1  0.5123220000000  0.6034780000000  0.4635180000000 1.0
C      1  0.4678740000000  0.5990840000000  0.4886690000000 1.0
C      1  0.3888130000000  0.5278940000000  0.5251010000000 1.0
C      1  0.4880530000000  0.5289780000000  0.3895970000000 1.0
C      1  0.6072310000000  0.5200220000000  0.4824250000000 1.0
C      1  0.5134890000000  0.5273240000000  0.6136960000000 1.0
C      1  0.3902120000000  0.5291920000000  0.4943840000000 1.0
C      1  0.4826460000000  0.5281120000000  0.6094160000000 1.0
C      1  0.6050990000000  0.5205720000000  0.5121800000000 1.0
C      1  0.5180660000000  0.5236930000000  0.3880760000000 1.0
C      1  0.4485950000000  0.4756220000000  0.4303730000000 1.0
C      1  0.5719920000000  0.4768770000000  0.4455200000000 1.0
C      1  0.5510880000000  0.4805840000000  0.5691040000000 1.0
C      1  0.4326330000000  0.4758760000000  0.5419740000000 1.0
C      1  0.4481940000000  0.4797450000000  0.5694030000000 1.0
C      1  0.5642170000000  0.4794800000000  0.5410850000000 1.0
C      1  0.5454410000000  0.4767940000000  0.4254960000000 1.0
C      1  0.4333570000000  0.4743540000000  0.4541220000000 1.0
C      1  0.4867200000000  0.4587920000000  0.4625840000000 1.0
C      1  0.5378200000000  0.4642900000000  0.4813680000000 1.0
C      1  0.5163650000000  0.4579600000000  0.5354880000000 1.0
C      1  0.4651800000000  0.4528300000000  0.5138590000000 1.0
C      1  0.4831910000000  0.4651990000000  0.5336890000000 1.0
C      1  0.5377690000000  0.4538810000000  0.5093870000000 1.0
C      1  0.5195750000000  0.4500710000000  0.4618970000000 1.0
C      1  0.4641030000000  0.4644100000000  0.4868990000000 1.0
C      1  0.4697840000000  0.5428800000000  0.5113390000000 1.0
C      1  0.4870800000000  0.5455390000000  0.4597060000000 1.0
C      1  0.5266700000000  0.5514500000000  0.4877430000000 1.0
C      1  0.5145360000000  0.5460050000000  0.5393820000000 1.0
C      1  0.4682020000000  0.5327440000000  0.4809500000000 1.0
C      1  0.4878510000000  0.5330750000000  0.5347380000000 1.0
C      1  0.5267920000000  0.5367550000000  0.5131920000000 1.0
C      1  0.5146950000000  0.5376240000000  0.4646220000000 1.0
C      1  0.4306280000000  0.5679340000000  0.5292430000000 1.0
C      1  0.4697900000000  0.5735380000000  0.4268280000000 1.0
C      1  0.5708230000000  0.5677440000000  0.4769020000000 1.0
C      1  0.5264980000000  0.5714560000000  0.5756580000000 1.0
C      1  0.4300410000000  0.5662340000000  0.4722850000000 1.0
C      1  0.4708230000000  0.5738400000000  0.5756140000000 1.0
C      1  0.5692090000000  0.5650800000000  0.5323170000000 1.0
C      1  0.5278680000000  0.5669150000000  0.4268390000000 1.0
C      1  0.5732130000000  0.5714580000000  0.4500800000000 1.0
C      1  0.5538820000000  0.5589390000000  0.5760380000000 1.0
C      1  0.4280860000000  0.5798080000000  0.5530570000000 1.0
C      1  0.4417610000000  0.5622610000000  0.4279540000000 1.0
C      1  0.5732350000000  0.5694180000000  0.5589250000000 1.0
C      1  0.5550900000000  0.5590720000000  0.4333730000000 1.0
C      1  0.4240930000000  0.5724600000000  0.4467750000000 1.0
C      1  0.4439210000000  0.5814490000000  0.5753340000000 1.0
C      1  0.4252280000000  0.5223180000000  0.5726800000000 1.0
C      1  0.4457310000000  0.5023320000000  0.4185130000000 1.0
C      1  0.5706540000000  0.5056640000000  0.4363100000000 1.0
C      1  0.5724030000000  0.4972500000000  0.5845550000000 1.0
C      1  0.4269770000000  0.5198160000000  0.4281050000000 1.0
C      1  0.4304290000000  0.5005270000000  0.5846970000000 1.0
C      1  0.5801330000000  0.5186060000000  0.5728580000000 1.0
C      1  0.5618200000000  0.5013740000000  0.4081280000000 1.0
C      1  0.5399500000000  0.4334560000000  0.5653920000000 1.0
C      1  0.4364390000000  0.4218770000000  0.5445090000000 1.0
C      1  0.4589310000000  0.4198750000000  0.4305960000000 1.0
C      1  0.5585590000000  0.4169580000000  0.4677350000000 1.0
C      1  0.5407860000000  0.4205200000000  0.4394530000000 1.0
C      1  0.4434280000000  0.4222030000000  0.4579370000000 1.0
C      1  0.4597860000000  0.4146350000000  0.5581010000000 1.0
C      1  0.5573850000000  0.4327700000000  0.5432190000000 1.0
C      1  0.4713900000000  0.4586770000000  0.5617780000000 1.0
C      1  0.4395060000000  0.4517840000000  0.4717310000000 1.0
C      1  0.5322770000000  0.4515600000000  0.4308610000000 1.0
C      1  0.5698310000000  0.4557450000000  0.5205510000000 1.0
C      1  0.4780930000000  0.4632320000000  0.4299890000000 1.0
C      1  0.4376130000000  0.4505360000000  0.5283610000000 1.0
C      1  0.5223680000000  0.4623790000000  0.5686860000000 1.0
C      1  0.5683380000000  0.4628950000000  0.4709620000000 1.0
C      1  0.4866760000000  0.4247710000000  0.4627330000000 1.0
C      1  0.5490730000000  0.4049170000000  0.4906370000000 1.0
C      1  0.5150210000000  0.4237320000000  0.5332500000000 1.0
C      1  0.4657840000000  0.4216600000000  0.5133420000000 1.0
C      1  0.4850740000000  0.4130080000000  0.5380570000000 1.0
C      1  0.5436800000000  0.4211910000000  0.5151110000000 1.0
C      1  0.5188990000000  0.4158300000000  0.4627780000000 1.0
C      1  0.4620900000000  0.4147360000000  0.4832360000000 1.0
C      1  0.5442550000000  0.5768060000000  0.4895790000000 1.0
C      1  0.5182800000000  0.5795280000000  0.5436670000000 1.0
C      1  0.4564330000000  0.5708420000000  0.5145610000000 1.0
C      1  0.4820110000000  0.5783510000000  0.4566500000000 1.0
C      1  0.5420730000000  0.5694990000000  0.5215180000000 1.0
C      1  0.5135200000000  0.5817970000000  0.4434690000000 1.0
C      1  0.4604050000000  0.5671570000000  0.4809710000000 1.0
C      1  0.4878970000000  0.5855110000000  0.5587640000000 1.0
C      1  0.4673990000000  0.3795180000000  0.4834280000000 1.0
C      1  0.5163220000000  0.3833330000000  0.4699680000000 1.0
C      1  0.5318850000000  0.3721260000000  0.5166740000000 1.0
C      1  0.4876500000000  0.3798720000000  0.5342860000000 1.0
C      1  0.4695410000000  0.3878570000000  0.5115840000000 1.0
C      1  0.5164680000000  0.3894260000000  0.5326910000000 1.0
C      1  0.5357730000000  0.3806800000000  0.4902670000000 1.0
C      1  0.4882340000000  0.3909110000000  0.4657760000000 1.0
C      1  0.5320910000000  0.4941310000000  0.4848120000000 1.0
C      1  0.5164980000000  0.4929590000000  0.5345190000000 1.0
C      1  0.4611250000000  0.5090520000000  0.5147360000000 1.0
C      1  0.4879400000000  0.4926660000000  0.4597820000000 1.0
C      1  0.5319640000000  0.5073910000000  0.5128380000000 1.0
C      1  0.5158050000000  0.5056850000000  0.4635190000000 1.0
C      1  0.4646360000000  0.4990030000000  0.4833370000000 1.0
C      1  0.4846990000000  0.4991150000000  0.5355890000000 1.0
C      1  0.4785780000000  0.5023720000000  0.3925710000000 1.0
C      1  0.6046970000000  0.4924390000000  0.4769690000000 1.0
C      1  0.5224740000000  0.5013240000000  0.6092070000000 1.0
C      1  0.3924310000000  0.4983940000000  0.5213510000000 1.0
C      1  0.4811630000000  0.4992750000000  0.6068680000000 1.0
C      1  0.6048320000000  0.4928400000000  0.5186910000000 1.0
C      1  0.5194800000000  0.4956280000000  0.3915420000000 1.0
C      1  0.3847220000000  0.5028140000000  0.4825180000000 1.0
C      1  0.4182530000000  0.5413900000000  0.5199670000000 1.0
C      1  0.4825260000000  0.5470100000000  0.4145570000000 1.0
C      1  0.5795700000000  0.5392440000000  0.4861220000000 1.0
C      1  0.5107390000000  0.5456460000000  0.5874940000000 1.0
C      1  0.4178200000000  0.5412590000000  0.4856490000000 1.0
C      1  0.4776750000000  0.5457550000000  0.5821380000000 1.0
C      1  0.5812290000000  0.5388640000000  0.5203070000000 1.0
C      1  0.5156100000000  0.5407350000000  0.4158850000000 1.0
C      1  0.4792970000000  0.4336450000000  0.5716950000000 1.0
C      1  0.4239180000000  0.4257330000000  0.4859190000000 1.0
C      1  0.5101120000000  0.4263940000000  0.4252560000000 1.0
C      1  0.5866430000000  0.4333290000000  0.5012880000000 1.0
C      1  0.4823660000000  0.4334400000000  0.4240040000000 1.0
C      1  0.4230310000000  0.4249190000000  0.5136120000000 1.0
C      1  0.5073320000000  0.4328250000000  0.5762600000000 1.0
C      1  0.5779490000000  0.4350440000000  0.4747080000000 1.0
C      1  0.5622450000000  0.5034110000000  0.4871580000000 1.0
C      1  0.5258890000000  0.5018220000000  0.5630760000000 1.0
C      1  0.4322170000000  0.5006300000000  0.5244520000000 1.0
C      1  0.4747150000000  0.5056370000000  0.4335690000000 1.0
C      1  0.5578190000000  0.5053310000000  0.5282890000000 1.0
C      1  0.5248520000000  0.4989880000000  0.4333610000000 1.0
C      1  0.4339780000000  0.4991610000000  0.4720570000000 1.0
C      1  0.4762230000000  0.4974520000000  0.5673460000000 1.0
C      1  0.5634850000000  0.5286490000000  0.5474760000000 1.0
C      1  0.4686660000000  0.5273070000000  0.5589730000000 1.0
C      1  0.4348580000000  0.5288680000000  0.4589040000000 1.0
C      1  0.5369440000000  0.5304160000000  0.4402890000000 1.0
C      1  0.5630000000000  0.5233160000000  0.4609940000000 1.0
C      1  0.4615390000000  0.5364770000000  0.4391640000000 1.0
C      1  0.4382750000000  0.5274050000000  0.5436660000000 1.0
C      1  0.5341050000000  0.5341790000000  0.5636830000000 1.0
C      1  0.5038030000000  0.4873120000000  0.5844740000000 1.0
C      1  0.4977360000000  0.4874450000000  0.4163850000000 1.0
C      1  0.5821770000000  0.4780960000000  0.4980460000000 1.0
C      1  0.4154740000000  0.4983740000000  0.4963460000000 1.0
END
