TITL C-3289322-3858-395 0.00403641127181134 125000 -376.357203107595 0 0 69 (C1) n - 1
REM
REM in /nfs/bkarasulu/CARBON/AIRSS/Generating-Clusters/AIREBO/with-SteepDescent/Higher-Symm/SD-CG/HFTN-CG
REM
REM
REM
REM
REM
REM ./C.cell (b20cbc046b6831c77cfcea5457e17084)
REM
REM compiler GCC version 9.2.1 20190827 (Red Hat 9.2.1-1)
REM options -cpp -mtune=generic -march=x86-64 -g -O0 -fpre-include=/usr/include/finclude/math-vector-fortran.h
REM seed 1231404994 -1657573050 1455530271 2125076378 867712418 1673345920 79309969 1749116191 -1446276261 -1763044286 -107922803 2037320336 791121123 -1484165373 -1176456080 -1259699535 260769055 -1464619020 257698279 1630905862 577429460 1486256563 -1697690948 -611579423 478656131 -475813792 748650953 -1997498593 1228118887 31246962 -537096794 466551468 530159063
REM
CELL 1.54180   50.00000   50.00000   50.00000   90.00000   90.00000   90.00000
LATT -1
SFAC C  
C      1  0.4340620000000  0.5396020000000  0.5403640000000 1.0
C      1  0.5577050000000  0.5276810000000  0.5538100000000 1.0
C      1  0.5171970000000  0.5526840000000  0.4290540000000 1.0
C      1  0.4350670000000  0.4599630000000  0.5413550000000 1.0
C      1  0.5579160000000  0.4750960000000  0.5534570000000 1.0
C      1  0.5173180000000  0.4468370000000  0.4284130000000 1.0
C      1  0.5615260000000  0.5349560000000  0.5271310000000 1.0
C      1  0.4496780000000  0.5411230000000  0.5603580000000 1.0
C      1  0.4922430000000  0.5523230000000  0.4234860000000 1.0
C      1  0.5614430000000  0.4668350000000  0.5271550000000 1.0
C      1  0.4510680000000  0.4586820000000  0.5610740000000 1.0
C      1  0.4922290000000  0.4467940000000  0.4233990000000 1.0
C      1  0.4810470000000  0.5677770000000  0.5502910000000 1.0
C      1  0.5508580000000  0.5604070000000  0.4957870000000 1.0
C      1  0.4471150000000  0.5584490000000  0.4503660000000 1.0
C      1  0.4833910000000  0.4334120000000  0.5501920000000 1.0
C      1  0.5534600000000  0.4338830000000  0.4916550000000 1.0
C      1  0.4469310000000  0.4423540000000  0.4510450000000 1.0
C      1  0.5076000000000  0.5821630000000  0.5526800000000 1.0
C      1  0.4453700000000  0.5692400000000  0.4732480000000 1.0
C      1  0.5734100000000  0.5738610000000  0.5023050000000 1.0
C      1  0.5103100000000  0.4199750000000  0.5526660000000 1.0
C      1  0.4458570000000  0.4313450000000  0.4738780000000 1.0
C      1  0.5739690000000  0.4166440000000  0.4914770000000 1.0
C      1  0.4772080000000  0.5712770000000  0.5196110000000 1.0
C      1  0.5233230000000  0.5662380000000  0.4974430000000 1.0
C      1  0.4815970000000  0.5523660000000  0.4741050000000 1.0
C      1  0.4792760000000  0.4301000000000  0.5196580000000 1.0
C      1  0.5244060000000  0.4348860000000  0.4966530000000 1.0
C      1  0.4819030000000  0.4485990000000  0.4742030000000 1.0
C      1  0.5101460000000  0.5638340000000  0.5236230000000 1.0
C      1  0.4610920000000  0.5568580000000  0.4985930000000 1.0
C      1  0.5090320000000  0.5562560000000  0.4762050000000 1.0
C      1  0.5121740000000  0.4379310000000  0.5232620000000 1.0
C      1  0.4619170000000  0.4438320000000  0.4990450000000 1.0
C      1  0.5092890000000  0.4451470000000  0.4763740000000 1.0
C      1  0.5319530000000  0.5151290000000  0.5554530000000 1.0
C      1  0.5435160000000  0.5127370000000  0.4379970000000 1.0
C      1  0.4319220000000  0.5122980000000  0.4945610000000 1.0
C      1  0.5321000000000  0.4874560000000  0.5553180000000 1.0
C      1  0.5446390000000  0.4879380000000  0.4399940000000 1.0
C      1  0.4312870000000  0.4873830000000  0.4956910000000 1.0
C      1  0.4864900000000  0.5131380000000  0.5781050000000 1.0
C      1  0.4563220000000  0.5121050000000  0.4325050000000 1.0
C      1  0.5690600000000  0.5101290000000  0.4769700000000 1.0
C      1  0.4869620000000  0.4882320000000  0.5781990000000 1.0
C      1  0.4575420000000  0.4876030000000  0.4304720000000 1.0
C      1  0.5691750000000  0.4853780000000  0.4769570000000 1.0
C      1  0.4469890000000  0.5332850000000  0.5115790000000 1.0
C      1  0.5120030000000  0.5333730000000  0.5373770000000 1.0
C      1  0.5263730000000  0.5349020000000  0.4563690000000 1.0
C      1  0.4473510000000  0.4669070000000  0.5124140000000 1.0
C      1  0.5128390000000  0.4685930000000  0.5374100000000 1.0
C      1  0.5263860000000  0.4643890000000  0.4550660000000 1.0
C      1  0.5485590000000  0.5322600000000  0.4814010000000 1.0
C      1  0.4823310000000  0.5340120000000  0.5540660000000 1.0
C      1  0.4726740000000  0.5367770000000  0.4452320000000 1.0
C      1  0.5472160000000  0.4642290000000  0.4819430000000 1.0
C      1  0.4832970000000  0.4671300000000  0.5542670000000 1.0
C      1  0.4728950000000  0.4632250000000  0.4448560000000 1.0
C      1  0.4674260000000  0.5172380000000  0.5293420000000 1.0
C      1  0.5333590000000  0.4723570000000  0.5104780000000 1.0
C      1  0.5333610000000  0.5279540000000  0.5112690000000 1.0
C      1  0.4676210000000  0.4835230000000  0.5298540000000 1.0
C      1  0.4982100000000  0.5168170000000  0.4555290000000 1.0
C      1  0.4985860000000  0.4831450000000  0.4548370000000 1.0
C      1  0.4888180000000  0.5002690000000  0.5130410000000 1.0
C      1  0.4947680000000  0.4995880000000  0.4824550000000 1.0
C      1  0.5198410000000  0.5000980000000  0.5055710000000 1.0
END
