TITL C-3289324-3781-368 2687438.56341785 125000 -492.411159327476 0 0 93 (C1) n - 1
REM
REM in /nfs/bkarasulu/CARBON/AIRSS/Generating-Clusters/AIREBO/with-SteepDescent/Higher-Symm/SD-CG/HFTN-CG
REM
REM
REM
REM
REM
REM ./C.cell (b20cbc046b6831c77cfcea5457e17084)
REM
REM compiler GCC version 9.2.1 20190827 (Red Hat 9.2.1-1)
REM options -cpp -mtune=generic -march=x86-64 -g -O0 -fpre-include=/usr/include/finclude/math-vector-fortran.h
REM seed 1583920844 198254797 1480880173 -770308301 -1137717975 624879558 -1928972972 1197407063 1672461241 1241709820 -916308858 948821232 341396380 723379175 1909122958 -2144466474 139573491 -1346434943 -1344814453 1471780065 -20453274 -1070406034 1569734928 -1477511244 509725960 -2060402024 1012536159 -1060801501 1153189648 1070915051 38586216 1772132604 -756649589
REM
CELL 1.54180   50.00000   50.00000   50.00000   90.00000   90.00000   90.00000
LATT -1
SFAC C  
C      1  0.4415740000000  0.4884930000000  0.5625500000000 1.0
C      1  0.4337410000000  0.5119820000000  0.4416340000000 1.0
C      1  0.5615120000000  0.4935190000000  0.5605630000000 1.0
C      1  0.5725690000000  0.5185730000000  0.4349210000000 1.0
C      1  0.5554290000000  0.4605590000000  0.5263360000000 1.0
C      1  0.5589720000000  0.5389000000000  0.4806610000000 1.0
C      1  0.4443300000000  0.4482100000000  0.5262920000000 1.0
C      1  0.4443740000000  0.5506140000000  0.4771790000000 1.0
C      1  0.4694370000000  0.5444370000000  0.4353660000000 1.0
C      1  0.4694320000000  0.4510540000000  0.5709010000000 1.0
C      1  0.5318620000000  0.5492370000000  0.4379120000000 1.0
C      1  0.5334780000000  0.4518550000000  0.5684190000000 1.0
C      1  0.5418680000000  0.5637220000000  0.5274770000000 1.0
C      1  0.5426260000000  0.4396400000000  0.4799300000000 1.0
C      1  0.4580410000000  0.5651470000000  0.5242650000000 1.0
C      1  0.4551600000000  0.4342500000000  0.4713720000000 1.0
C      1  0.4869610000000  0.4971360000000  0.5772540000000 1.0
C      1  0.4843590000000  0.4944600000000  0.4211930000000 1.0
C      1  0.5189220000000  0.5054990000000  0.5744270000000 1.0
C      1  0.5157520000000  0.5033530000000  0.4201360000000 1.0
C      1  0.4535520000000  0.4956540000000  0.4721920000000 1.0
C      1  0.4482400000000  0.4988060000000  0.5215430000000 1.0
C      1  0.5471810000000  0.5083170000000  0.4715980000000 1.0
C      1  0.5464890000000  0.4914760000000  0.5153300000000 1.0
C      1  0.5572810000000  0.4424810000000  0.5043020000000 1.0
C      1  0.5583620000000  0.5639220000000  0.5036780000000 1.0
C      1  0.4436530000000  0.4327760000000  0.4959880000000 1.0
C      1  0.4435300000000  0.5731760000000  0.5021070000000 1.0
C      1  0.5338180000000  0.4844910000000  0.4417400000000 1.0
C      1  0.5341080000000  0.5049850000000  0.5440070000000 1.0
C      1  0.4777550000000  0.4972740000000  0.4534630000000 1.0
C      1  0.4692580000000  0.4987950000000  0.5482800000000 1.0
C      1  0.5827950000000  0.4991230000000  0.5372200000000 1.0
C      1  0.5835670000000  0.5007430000000  0.4565680000000 1.0
C      1  0.4185320000000  0.5093980000000  0.5333460000000 1.0
C      1  0.4203700000000  0.4985370000000  0.4676640000000 1.0
C      1  0.4840980000000  0.5499300000000  0.5160680000000 1.0
C      1  0.4851440000000  0.4349010000000  0.4701590000000 1.0
C      1  0.5121480000000  0.5649770000000  0.5244540000000 1.0
C      1  0.5128160000000  0.4429350000000  0.4856600000000 1.0
C      1  0.5151560000000  0.5248570000000  0.5031570000000 1.0
C      1  0.5187490000000  0.4787130000000  0.5023140000000 1.0
C      1  0.4631040000000  0.5093450000000  0.4972050000000 1.0
C      1  0.4797920000000  0.4734300000000  0.4956850000000 1.0
C      1  0.5175600000000  0.4725250000000  0.5832100000000 1.0
C      1  0.5164570000000  0.5362100000000  0.4178410000000 1.0
C      1  0.4857300000000  0.4680470000000  0.5873900000000 1.0
C      1  0.4854320000000  0.5286430000000  0.4191080000000 1.0
C      1  0.4340550000000  0.4704710000000  0.5050680000000 1.0
C      1  0.4248720000000  0.5380620000000  0.4986280000000 1.0
C      1  0.5650510000000  0.4842570000000  0.4877760000000 1.0
C      1  0.5649840000000  0.5189520000000  0.5075610000000 1.0
C      1  0.5199450000000  0.5383130000000  0.5655640000000 1.0
C      1  0.5201750000000  0.4539640000000  0.4355510000000 1.0
C      1  0.4868510000000  0.5468130000000  0.5602170000000 1.0
C      1  0.4867560000000  0.4625630000000  0.4331700000000 1.0
C      1  0.4393190000000  0.5181760000000  0.5663020000000 1.0
C      1  0.4343010000000  0.4816460000000  0.4342600000000 1.0
C      1  0.5688210000000  0.5014260000000  0.5861690000000 1.0
C      1  0.5604660000000  0.4931370000000  0.4248540000000 1.0
C      1  0.4750220000000  0.5391670000000  0.4864550000000 1.0
C      1  0.4764290000000  0.4522870000000  0.5188690000000 1.0
C      1  0.5261770000000  0.5407180000000  0.4829660000000 1.0
C      1  0.5103260000000  0.4493340000000  0.5173700000000 1.0
C      1  0.4441820000000  0.5377340000000  0.4464520000000 1.0
C      1  0.4445650000000  0.4598460000000  0.5583750000000 1.0
C      1  0.5578910000000  0.5404180000000  0.4466990000000 1.0
C      1  0.5559960000000  0.4631130000000  0.5548880000000 1.0
C      1  0.4917760000000  0.5230890000000  0.4606720000000 1.0
C      1  0.4860010000000  0.4734070000000  0.5421710000000 1.0
C      1  0.5198560000000  0.5139020000000  0.4522060000000 1.0
C      1  0.5115100000000  0.4840530000000  0.5410440000000 1.0
C      1  0.5490780000000  0.5460300000000  0.5493900000000 1.0
C      1  0.5486240000000  0.4497170000000  0.4537720000000 1.0
C      1  0.4536350000000  0.5448120000000  0.5507170000000 1.0
C      1  0.4555340000000  0.4582550000000  0.4472560000000 1.0
C      1  0.4841380000000  0.5232730000000  0.5371190000000 1.0
C      1  0.4889950000000  0.4684250000000  0.4663100000000 1.0
C      1  0.5159280000000  0.5320970000000  0.5323780000000 1.0
C      1  0.5208370000000  0.4726930000000  0.4708740000000 1.0
C      1  0.4862970000000  0.5566330000000  0.4595390000000 1.0
C      1  0.4866070000000  0.4386540000000  0.5483090000000 1.0
C      1  0.5166430000000  0.5543430000000  0.4610830000000 1.0
C      1  0.5182600000000  0.4377000000000  0.5483240000000 1.0
C      1  0.5672380000000  0.5270210000000  0.5395380000000 1.0
C      1  0.5702150000000  0.4713820000000  0.4569120000000 1.0
C      1  0.4320270000000  0.5349950000000  0.5263020000000 1.0
C      1  0.4342550000000  0.4681790000000  0.4719030000000 1.0
C      1  0.4101140000000  0.4877340000000  0.5161500000000 1.0
C      1  0.4079700000000  0.5196100000000  0.4865870000000 1.0
C      1  0.5856770000000  0.4838360000000  0.5148160000000 1.0
C      1  0.5855050000000  0.5176560000000  0.4796600000000 1.0
C      1  0.4948410000000  0.5026870000000  0.4994670000000 1.0
END
