TITL C-3289335-9438-448 0.000504794543360698 125000 -237.07893499032 0 0 46 (C1) n - 1
REM
REM in /nfs/bkarasulu/CARBON/AIRSS/Generating-Clusters/AIREBO/with-SteepDescent/Higher-Symm/SD-CG/HFTN-CG
REM
REM
REM
REM
REM
REM ./C.cell (b20cbc046b6831c77cfcea5457e17084)
REM
REM compiler GCC version 9.2.1 20190827 (Red Hat 9.2.1-1)
REM options -cpp -mtune=generic -march=x86-64 -g -O0 -fpre-include=/usr/include/finclude/math-vector-fortran.h
REM seed -737857905 -1855707958 -641244391 617542907 -681105108 352927044 -1020422142 -379413180 2112990869 -1726508717 1443466948 311377269 634931242 -385841305 800566978 -67830868 -586753619 -2099156545 182140378 -1291116383 576644300 -722698994 1788793809 -1410655854 -1000651661 -1302247677 -1536982024 -277908526 -733670369 -883158717 -926356638 1802069175 -1396222588
REM
CELL 1.54180   50.00000   50.00000   50.00000   90.00000   90.00000   90.00000
LATT -1
SFAC C  
C      1  0.5563460000000  0.5046760000000  0.4346750000000 1.0
C      1  0.4506810000000  0.4797780000000  0.5836040000000 1.0
C      1  0.4307340000000  0.5331710000000  0.4543970000000 1.0
C      1  0.5602160000000  0.4617570000000  0.5175430000000 1.0
C      1  0.5041670000000  0.5651940000000  0.5247350000000 1.0
C      1  0.4876200000000  0.4405260000000  0.4715320000000 1.0
C      1  0.5354260000000  0.5243330000000  0.4699420000000 1.0
C      1  0.4601190000000  0.4791900000000  0.5319610000000 1.0
C      1  0.4499310000000  0.4630790000000  0.5557550000000 1.0
C      1  0.5597300000000  0.5373120000000  0.4509420000000 1.0
C      1  0.5261240000000  0.5066490000000  0.4295930000000 1.0
C      1  0.4815100000000  0.4796120000000  0.5732690000000 1.0
C      1  0.4836570000000  0.4504940000000  0.4968290000000 1.0
C      1  0.5079600000000  0.5523380000000  0.5007180000000 1.0
C      1  0.5153190000000  0.4812630000000  0.5341880000000 1.0
C      1  0.4820930000000  0.5243200000000  0.4625030000000 1.0
C      1  0.4978790000000  0.4592230000000  0.4539400000000 1.0
C      1  0.4993120000000  0.5484650000000  0.5462640000000 1.0
C      1  0.4943120000000  0.5112630000000  0.5086640000000 1.0
C      1  0.5004160000000  0.4880660000000  0.4977290000000 1.0
C      1  0.5567460000000  0.5535680000000  0.5024410000000 1.0
C      1  0.4344440000000  0.4566720000000  0.4950060000000 1.0
C      1  0.4352960000000  0.4885790000000  0.6030140000000 1.0
C      1  0.5742760000000  0.4947070000000  0.4166320000000 1.0
C      1  0.5341900000000  0.5365800000000  0.4982740000000 1.0
C      1  0.4593140000000  0.4694470000000  0.5003520000000 1.0
C      1  0.4966700000000  0.4873590000000  0.4668150000000 1.0
C      1  0.5031040000000  0.5189040000000  0.5387360000000 1.0
C      1  0.4593260000000  0.5489770000000  0.4987190000000 1.0
C      1  0.5286180000000  0.4377380000000  0.5133330000000 1.0
C      1  0.5319870000000  0.5152110000000  0.5211400000000 1.0
C      1  0.4654450000000  0.4919130000000  0.4787410000000 1.0
C      1  0.4681990000000  0.5001520000000  0.4430350000000 1.0
C      1  0.5399650000000  0.4944120000000  0.5503440000000 1.0
C      1  0.4832310000000  0.5356840000000  0.4917860000000 1.0
C      1  0.5106820000000  0.4587640000000  0.5110600000000 1.0
C      1  0.5409800000000  0.4847930000000  0.5121580000000 1.0
C      1  0.4492460000000  0.5206940000000  0.4705350000000 1.0
C      1  0.5688440000000  0.5591990000000  0.4413090000000 1.0
C      1  0.4727990000000  0.4481950000000  0.5734200000000 1.0
C      1  0.5109740000000  0.5123510000000  0.4541360000000 1.0
C      1  0.4871550000000  0.4906080000000  0.5449890000000 1.0
C      1  0.4388120000000  0.4984720000000  0.5186750000000 1.0
C      1  0.5611240000000  0.5037890000000  0.4669900000000 1.0
C      1  0.5650410000000  0.4882720000000  0.4895670000000 1.0
C      1  0.4399790000000  0.5142510000000  0.5000090000000 1.0
END
