TITL C-3289329-2751-74 -0.00371886312037118 125000 -143.621367534312 0 0 26 (C1) n - 1
REM
REM in /nfs/bkarasulu/CARBON/AIRSS/Generating-Clusters/AIREBO/with-SteepDescent/Higher-Symm/SD-CG/HFTN-CG
REM
REM
REM
REM
REM
REM ./C.cell (b20cbc046b6831c77cfcea5457e17084)
REM
REM compiler GCC version 9.2.1 20190827 (Red Hat 9.2.1-1)
REM options -cpp -mtune=generic -march=x86-64 -g -O0 -fpre-include=/usr/include/finclude/math-vector-fortran.h
REM seed -1964865762 -1766746124 1479773384 -420642783 1347357508 1473142728 -782710857 -1759814659 1026896486 2032012312 -879968558 698318745 303905057 -848118258 1607466219 833086003 -2301348 -814446449 1776100275 -1375619292 1883002801 -1088685646 -247529832 -1031458196 2115235021 292318747 -1648997770 -357140501 -289073551 1747241420 -883943223 85475572 1838341150
REM
CELL 1.54180   50.00000   50.00000   50.00000   90.00000   90.00000   90.00000
LATT -1
SFAC C  
C      1  0.4951830000000  0.4546090000000  0.4982920000000 1.0
C      1  0.5436430000000  0.4805580000000  0.4979540000000 1.0
C      1  0.5341640000000  0.5349870000000  0.4972120000000 1.0
C      1  0.4794140000000  0.5421340000000  0.4981430000000 1.0
C      1  0.4555490000000  0.4926150000000  0.4984240000000 1.0
C      1  0.5214190000000  0.4373310000000  0.4963540000000 1.0
C      1  0.5682450000000  0.4998460000000  0.4966700000000 1.0
C      1  0.5229190000000  0.5643080000000  0.4961580000000 1.0
C      1  0.4482440000000  0.5410700000000  0.4967280000000 1.0
C      1  0.4470050000000  0.4624590000000  0.4960620000000 1.0
C      1  0.5220360000000  0.5223140000000  0.5239840000000 1.0
C      1  0.4881120000000  0.5249000000000  0.5234500000000 1.0
C      1  0.4712910000000  0.4947490000000  0.5284870000000 1.0
C      1  0.4967330000000  0.4703140000000  0.5284100000000 1.0
C      1  0.5261510000000  0.4883810000000  0.5233800000000 1.0
C      1  0.4901520000000  0.5225710000000  0.4755680000000 1.0
C      1  0.4774200000000  0.4967020000000  0.4754710000000 1.0
C      1  0.4982720000000  0.4767070000000  0.4753930000000 1.0
C      1  0.5235810000000  0.4905320000000  0.4754670000000 1.0
C      1  0.5192390000000  0.5194680000000  0.4738590000000 1.0
C      1  0.4371660000000  0.5180980000000  0.4966330000000 1.0
C      1  0.4654010000000  0.4448170000000  0.4959960000000 1.0
C      1  0.5439000000000  0.4493740000000  0.4964120000000 1.0
C      1  0.5639270000000  0.5249890000000  0.4960690000000 1.0
C      1  0.4976170000000  0.5675480000000  0.4968580000000 1.0
C      1  0.4974870000000  0.4966190000000  0.5098590000000 1.0
END
