TITL C-3289326-3776-154 -0.000718144495766569 125000 -645.026917822142 0 0 133 (C1) n - 1
REM
REM in /nfs/bkarasulu/CARBON/AIRSS/Generating-Clusters/AIREBO/with-SteepDescent/Higher-Symm/SD-CG/HFTN-CG
REM
REM
REM
REM
REM
REM ./C.cell (b20cbc046b6831c77cfcea5457e17084)
REM
REM compiler GCC version 9.2.1 20190827 (Red Hat 9.2.1-1)
REM options -cpp -mtune=generic -march=x86-64 -g -O0 -fpre-include=/usr/include/finclude/math-vector-fortran.h
REM seed -440234926 595342313 1313977941 -989738116 -575790110 1270197474 -494541795 1429545394 -666439495 -522075506 -958353510 3081871 1696710237 1859162075 -892793522 1357459876 79195390 -590146075 -547331116 2110719506 496586147 -948100242 -1462389497 -329842522 -1829639126 -1656170371 755298946 -676521978 981712034 280610704 -170408787 -1273896095 -1124958483
REM
CELL 1.54180   50.00000   50.00000   50.00000   90.00000   90.00000   90.00000
LATT -1
SFAC C  
C      1  0.4458020000000  0.5526180000000  0.5580240000000 1.0
C      1  0.4473750000000  0.4235340000000  0.5193300000000 1.0
C      1  0.4525700000000  0.5204940000000  0.4253210000000 1.0
C      1  0.5115530000000  0.5601600000000  0.4484730000000 1.0
C      1  0.5070690000000  0.5187940000000  0.5792710000000 1.0
C      1  0.5069320000000  0.4214760000000  0.4776680000000 1.0
C      1  0.5209550000000  0.5589570000000  0.5462580000000 1.0
C      1  0.5167850000000  0.4293720000000  0.5283350000000 1.0
C      1  0.5302320000000  0.5192990000000  0.4211620000000 1.0
C      1  0.4710180000000  0.5915940000000  0.4849650000000 1.0
C      1  0.4687310000000  0.4664970000000  0.5917830000000 1.0
C      1  0.4707620000000  0.4366620000000  0.4292060000000 1.0
C      1  0.5473550000000  0.4710790000000  0.4807280000000 1.0
C      1  0.5488400000000  0.5320550000000  0.4881620000000 1.0
C      1  0.5578730000000  0.4984340000000  0.5397590000000 1.0
C      1  0.5029210000000  0.5170540000000  0.4764990000000 1.0
C      1  0.5046400000000  0.5111710000000  0.5276910000000 1.0
C      1  0.5029690000000  0.4692710000000  0.4982190000000 1.0
C      1  0.5197030000000  0.4410540000000  0.5003160000000 1.0
C      1  0.5234490000000  0.5303130000000  0.4526350000000 1.0
C      1  0.5209210000000  0.5289070000000  0.5513990000000 1.0
C      1  0.4796510000000  0.5135260000000  0.5986880000000 1.0
C      1  0.4788510000000  0.4083670000000  0.4636650000000 1.0
C      1  0.4822820000000  0.5766540000000  0.4432600000000 1.0
C      1  0.5507500000000  0.5648880000000  0.4795080000000 1.0
C      1  0.5504400000000  0.4910010000000  0.5721070000000 1.0
C      1  0.5475810000000  0.4463420000000  0.4573850000000 1.0
C      1  0.5017600000000  0.4493950000000  0.4589560000000 1.0
C      1  0.5051320000000  0.5621600000000  0.4818040000000 1.0
C      1  0.5042460000000  0.4896650000000  0.5613220000000 1.0
C      1  0.5321110000000  0.4557240000000  0.5420960000000 1.0
C      1  0.5237500000000  0.4923600000000  0.4408840000000 1.0
C      1  0.5360690000000  0.5548790000000  0.5183460000000 1.0
C      1  0.5690120000000  0.4367670000000  0.5142350000000 1.0
C      1  0.5648740000000  0.5204060000000  0.4410080000000 1.0
C      1  0.5705370000000  0.5447420000000  0.5559760000000 1.0
C      1  0.5293300000000  0.4599600000000  0.4321220000000 1.0
C      1  0.5326850000000  0.5839850000000  0.5010860000000 1.0
C      1  0.5308550000000  0.4633610000000  0.5752080000000 1.0
C      1  0.4749110000000  0.4963370000000  0.5350010000000 1.0
C      1  0.4720940000000  0.4717790000000  0.4841350000000 1.0
C      1  0.4723680000000  0.5279170000000  0.4868190000000 1.0
C      1  0.4495930000000  0.4716070000000  0.4583730000000 1.0
C      1  0.4469010000000  0.5478780000000  0.4984750000000 1.0
C      1  0.4506540000000  0.4745240000000  0.5449950000000 1.0
C      1  0.5505130000000  0.5503190000000  0.4487730000000 1.0
C      1  0.5485140000000  0.5247220000000  0.5680010000000 1.0
C      1  0.5485770000000  0.4321640000000  0.4883030000000 1.0
C      1  0.4606450000000  0.4670400000000  0.4290300000000 1.0
C      1  0.4575280000000  0.5748420000000  0.5101670000000 1.0
C      1  0.4600940000000  0.4522750000000  0.5639650000000 1.0
C      1  0.4823610000000  0.4656650000000  0.5223030000000 1.0
C      1  0.4801100000000  0.4970090000000  0.4627810000000 1.0
C      1  0.4854880000000  0.5341900000000  0.5175770000000 1.0
C      1  0.4248770000000  0.4690250000000  0.5257050000000 1.0
C      1  0.4250510000000  0.4925800000000  0.4581240000000 1.0
C      1  0.4220890000000  0.5346130000000  0.5147690000000 1.0
C      1  0.4823270000000  0.5503200000000  0.5432960000000 1.0
C      1  0.4771400000000  0.4362340000000  0.5253980000000 1.0
C      1  0.4947910000000  0.5091340000000  0.4346070000000 1.0
C      1  0.5859830000000  0.4764630000000  0.4725340000000 1.0
C      1  0.5878480000000  0.5344650000000  0.4953030000000 1.0
C      1  0.5961040000000  0.5021440000000  0.5287320000000 1.0
C      1  0.5290610000000  0.5864060000000  0.4616800000000 1.0
C      1  0.5261790000000  0.4964630000000  0.5963680000000 1.0
C      1  0.5267400000000  0.4200240000000  0.4496760000000 1.0
C      1  0.5481840000000  0.4749550000000  0.5234640000000 1.0
C      1  0.5396210000000  0.4992660000000  0.4679370000000 1.0
C      1  0.5497990000000  0.5253540000000  0.5214860000000 1.0
C      1  0.5565320000000  0.4913210000000  0.4318650000000 1.0
C      1  0.5636880000000  0.5669550000000  0.5340740000000 1.0
C      1  0.5616600000000  0.4392390000000  0.5454330000000 1.0
C      1  0.4792570000000  0.5369600000000  0.5719690000000 1.0
C      1  0.4800980000000  0.4163840000000  0.4979490000000 1.0
C      1  0.4867880000000  0.5421910000000  0.4336080000000 1.0
C      1  0.5710330000000  0.4645590000000  0.5663000000000 1.0
C      1  0.5713500000000  0.4691180000000  0.4488340000000 1.0
C      1  0.5750380000000  0.5599320000000  0.5028010000000 1.0
C      1  0.5395700000000  0.5915720000000  0.5335070000000 1.0
C      1  0.5405650000000  0.4309290000000  0.5719290000000 1.0
C      1  0.5368470000000  0.4802840000000  0.4059010000000 1.0
C      1  0.5078290000000  0.4982540000000  0.4051360000000 1.0
C      1  0.5081990000000  0.5855460000000  0.5452240000000 1.0
C      1  0.5142060000000  0.4240680000000  0.5587120000000 1.0
C      1  0.4751080000000  0.4976020000000  0.5689850000000 1.0
C      1  0.4743130000000  0.4418640000000  0.4681280000000 1.0
C      1  0.4783820000000  0.5557700000000  0.4699510000000 1.0
C      1  0.4503130000000  0.5714370000000  0.4664120000000 1.0
C      1  0.4461320000000  0.4904960000000  0.5812780000000 1.0
C      1  0.4473730000000  0.4319490000000  0.4540930000000 1.0
C      1  0.4501060000000  0.4227580000000  0.5512360000000 1.0
C      1  0.4519780000000  0.4961830000000  0.4135720000000 1.0
C      1  0.4451470000000  0.5748580000000  0.5418370000000 1.0
C      1  0.4296370000000  0.4999970000000  0.5530880000000 1.0
C      1  0.4266720000000  0.4512020000000  0.4730140000000 1.0
C      1  0.4287740000000  0.5453270000000  0.4698210000000 1.0
C      1  0.4832710000000  0.4276770000000  0.5569320000000 1.0
C      1  0.4800210000000  0.4843060000000  0.4070550000000 1.0
C      1  0.4778080000000  0.5826690000000  0.5365010000000 1.0
C      1  0.5071880000000  0.4730310000000  0.5386550000000 1.0
C      1  0.5037370000000  0.4772760000000  0.4593610000000 1.0
C      1  0.5108910000000  0.5450980000000  0.5036650000000 1.0
C      1  0.4495980000000  0.4504390000000  0.4981110000000 1.0
C      1  0.4525560000000  0.5232940000000  0.4595670000000 1.0
C      1  0.4544510000000  0.5216970000000  0.5447540000000 1.0
C      1  0.5048210000000  0.4365110000000  0.4295710000000 1.0
C      1  0.5049590000000  0.5943340000000  0.4843270000000 1.0
C      1  0.5020440000000  0.4732790000000  0.5903320000000 1.0
C      1  0.4479100000000  0.5251480000000  0.5779450000000 1.0
C      1  0.4480520000000  0.4185690000000  0.4863430000000 1.0
C      1  0.4541660000000  0.5502970000000  0.4389680000000 1.0
C      1  0.5755760000000  0.5265610000000  0.4678710000000 1.0
C      1  0.5812010000000  0.5197980000000  0.5454860000000 1.0
C      1  0.5749060000000  0.4605540000000  0.4975320000000 1.0
C      1  0.4113270000000  0.5121170000000  0.5306480000000 1.0
C      1  0.4129910000000  0.4673630000000  0.4994790000000 1.0
C      1  0.4151000000000  0.5144680000000  0.4723600000000 1.0
C      1  0.6983720000000  0.4979490000000  0.4872770000000 1.0
C      1  0.4024600000000  0.4996930000000  0.5002570000000 1.0
C      1  0.5853190000000  0.5005620000000  0.4965230000000 1.0
C      1  0.4644210000000  0.4990500000000  0.5029370000000 1.0
C      1  0.6718060000000  0.4997980000000  0.4879590000000 1.0
C      1  0.3187450000000  0.5020450000000  0.4949280000000 1.0
C      1  0.5514730000000  0.4992060000000  0.4998120000000 1.0
C      1  0.3716230000000  0.5005480000000  0.4983240000000 1.0
C      1  0.6452320000000  0.4992150000000  0.4896520000000 1.0
C      1  0.2921810000000  0.5027990000000  0.4932170000000 1.0
C      1  0.7245740000000  0.4986370000000  0.4871050000000 1.0
C      1  0.3453060000000  0.5012920000000  0.4966380000000 1.0
C      1  0.6190230000000  0.5011450000000  0.4920400000000 1.0
C      1  0.2660390000000  0.5035400000000  0.4915320000000 1.0
C      1  0.4363960000000  0.4994410000000  0.5024270000000 1.0
C      1  0.5174750000000  0.4986920000000  0.5011440000000 1.0
END
