TITL C-3289332-8317-418 0.0026117000401318 125000 -972.452410148477 0 0 180 (C1) n - 1
REM
REM in /nfs/bkarasulu/CARBON/AIRSS/Generating-Clusters/AIREBO/with-SteepDescent/Higher-Symm/SD-CG/HFTN-CG
REM
REM
REM
REM
REM
REM ./C.cell (b20cbc046b6831c77cfcea5457e17084)
REM
REM compiler GCC version 9.2.1 20190827 (Red Hat 9.2.1-1)
REM options -cpp -mtune=generic -march=x86-64 -g -O0 -fpre-include=/usr/include/finclude/math-vector-fortran.h
REM seed -214197816 350631804 -815865721 -930681799 1086686147 622769183 -1565086503 260857249 300665245 -1991720134 -432465818 -500465166 -1744484933 1313574817 1691817731 421647990 297016236 1732735538 -135731148 1129509591 1206339377 -1243540711 578649404 283551014 5813671 -71032126 649696307 -793372124 1089912810 -1293914670 -1368068275 -541528099 574648942
REM
CELL 1.54180   50.00000   50.00000   50.00000   90.00000   90.00000   90.00000
LATT -1
SFAC C  
C      1  0.5230960000000  0.5379980000000  0.5078040000000 1.0
C      1  0.4566280000000  0.5279970000000  0.5163520000000 1.0
C      1  0.4598950000000  0.4506320000000  0.5188910000000 1.0
C      1  0.5417560000000  0.4764140000000  0.5187160000000 1.0
C      1  0.5428480000000  0.5428600000000  0.4733670000000 1.0
C      1  0.4571200000000  0.5216950000000  0.4768820000000 1.0
C      1  0.4680210000000  0.4597050000000  0.4807910000000 1.0
C      1  0.5449840000000  0.4629510000000  0.4816240000000 1.0
C      1  0.5499730000000  0.4275680000000  0.5568290000000 1.0
C      1  0.5877200000000  0.5542010000000  0.5680720000000 1.0
C      1  0.4508280000000  0.5704690000000  0.5595110000000 1.0
C      1  0.4229000000000  0.4472500000000  0.5585590000000 1.0
C      1  0.5463090000000  0.4140530000000  0.4395010000000 1.0
C      1  0.5810930000000  0.5489390000000  0.4409450000000 1.0
C      1  0.4594650000000  0.5862690000000  0.4389780000000 1.0
C      1  0.4117670000000  0.4583980000000  0.4409760000000 1.0
C      1  0.4072070000000  0.5112610000000  0.5546100000000 1.0
C      1  0.4884610000000  0.4076080000000  0.5459760000000 1.0
C      1  0.5940190000000  0.4872300000000  0.5548380000000 1.0
C      1  0.5117250000000  0.5906540000000  0.5451990000000 1.0
C      1  0.4023110000000  0.5227540000000  0.4582480000000 1.0
C      1  0.4808100000000  0.4038730000000  0.4537160000000 1.0
C      1  0.5956250000000  0.4845490000000  0.4572010000000 1.0
C      1  0.5143980000000  0.5940890000000  0.4513190000000 1.0
C      1  0.5581800000000  0.5158320000000  0.5592140000000 1.0
C      1  0.4962000000000  0.5550020000000  0.5540800000000 1.0
C      1  0.4431460000000  0.4926770000000  0.5526970000000 1.0
C      1  0.5029680000000  0.4437440000000  0.5502690000000 1.0
C      1  0.5566940000000  0.4899060000000  0.4487000000000 1.0
C      1  0.5078130000000  0.5441260000000  0.4442620000000 1.0
C      1  0.4431950000000  0.5040960000000  0.4403270000000 1.0
C      1  0.4867140000000  0.4498350000000  0.4454550000000 1.0
C      1  0.5599820000000  0.4969940000000  0.6069530000000 1.0
C      1  0.4997990000000  0.5524520000000  0.5963200000000 1.0
C      1  0.4466490000000  0.4986640000000  0.6045500000000 1.0
C      1  0.5009010000000  0.4493030000000  0.5898030000000 1.0
C      1  0.5554290000000  0.4979740000000  0.3995440000000 1.0
C      1  0.5038570000000  0.5483160000000  0.3892370000000 1.0
C      1  0.4443380000000  0.5045200000000  0.4004040000000 1.0
C      1  0.4992640000000  0.4437020000000  0.3991390000000 1.0
C      1  0.5683630000000  0.4840450000000  0.4863440000000 1.0
C      1  0.5213960000000  0.5638450000000  0.4762690000000 1.0
C      1  0.4281380000000  0.5119300000000  0.4867460000000 1.0
C      1  0.4882430000000  0.4326280000000  0.4814070000000 1.0
C      1  0.5723150000000  0.4884660000000  0.5188670000000 1.0
C      1  0.5124610000000  0.5702900000000  0.5067330000000 1.0
C      1  0.4268330000000  0.5157620000000  0.5200500000000 1.0
C      1  0.4822950000000  0.4313680000000  0.5144010000000 1.0
C      1  0.5238840000000  0.6000450000000  0.5148520000000 1.0
C      1  0.3966930000000  0.5265490000000  0.5259870000000 1.0
C      1  0.4689050000000  0.4006860000000  0.5203520000000 1.0
C      1  0.6033810000000  0.4768950000000  0.5236960000000 1.0
C      1  0.5298930000000  0.5959150000000  0.4815340000000 1.0
C      1  0.4021320000000  0.5301150000000  0.4922210000000 1.0
C      1  0.4738520000000  0.4038070000000  0.4870010000000 1.0
C      1  0.5990200000000  0.4752570000000  0.4897440000000 1.0
C      1  0.5257970000000  0.5547790000000  0.4053970000000 1.0
C      1  0.4454050000000  0.5319380000000  0.4118130000000 1.0
C      1  0.4699880000000  0.4406720000000  0.4060540000000 1.0
C      1  0.5565360000000  0.4708910000000  0.4112470000000 1.0
C      1  0.5288070000000  0.5635450000000  0.5866040000000 1.0
C      1  0.4396820000000  0.5260480000000  0.5929380000000 1.0
C      1  0.4717080000000  0.4406290000000  0.5834990000000 1.0
C      1  0.5599390000000  0.4724560000000  0.5902900000000 1.0
C      1  0.4337380000000  0.5661890000000  0.4485990000000 1.0
C      1  0.4334840000000  0.4330840000000  0.4476100000000 1.0
C      1  0.5721640000000  0.4345040000000  0.4479640000000 1.0
C      1  0.5593510000000  0.5750800000000  0.4418680000000 1.0
C      1  0.4238530000000  0.5583270000000  0.5596570000000 1.0
C      1  0.4380040000000  0.4200100000000  0.5567090000000 1.0
C      1  0.5767060000000  0.4385540000000  0.5588860000000 1.0
C      1  0.5679500000000  0.5764140000000  0.5515270000000 1.0
C      1  0.4892300000000  0.5277280000000  0.4678840000000 1.0
C      1  0.4542870000000  0.4881860000000  0.4682660000000 1.0
C      1  0.5047380000000  0.4682800000000  0.4637750000000 1.0
C      1  0.5412190000000  0.5090960000000  0.4712970000000 1.0
C      1  0.4834620000000  0.5341550000000  0.5324700000000 1.0
C      1  0.4617690000000  0.4809450000000  0.5267740000000 1.0
C      1  0.5159040000000  0.4677160000000  0.5321680000000 1.0
C      1  0.5388390000000  0.5271360000000  0.5335960000000 1.0
C      1  0.4778920000000  0.5898630000000  0.5492930000000 1.0
C      1  0.4069800000000  0.4774820000000  0.5594630000000 1.0
C      1  0.5224160000000  0.4093070000000  0.5471210000000 1.0
C      1  0.5976570000000  0.5203620000000  0.5619040000000 1.0
C      1  0.4866590000000  0.5981230000000  0.4532550000000 1.0
C      1  0.4064010000000  0.4920300000000  0.4493310000000 1.0
C      1  0.5140360000000  0.4096260000000  0.4493370000000 1.0
C      1  0.5876840000000  0.5169830000000  0.4505890000000 1.0
C      1  0.4294560000000  0.4890180000000  0.5822300000000 1.0
C      1  0.5041170000000  0.4193700000000  0.5739620000000 1.0
C      1  0.5766430000000  0.5080970000000  0.5847320000000 1.0
C      1  0.4936630000000  0.5794660000000  0.5775690000000 1.0
C      1  0.4181030000000  0.4985420000000  0.4180270000000 1.0
C      1  0.5032550000000  0.4306050000000  0.4256500000000 1.0
C      1  0.5692350000000  0.5065850000000  0.4239840000000 1.0
C      1  0.4793040000000  0.5640930000000  0.3938960000000 1.0
C      1  0.5247960000000  0.5060860000000  0.3997660000000 1.0
C      1  0.4944090000000  0.5176720000000  0.3954430000000 1.0
C      1  0.4750080000000  0.4925940000000  0.3918500000000 1.0
C      1  0.5039020000000  0.4757600000000  0.3987520000000 1.0
C      1  0.5296240000000  0.5066180000000  0.6043680000000 1.0
C      1  0.4979020000000  0.5193430000000  0.6038690000000 1.0
C      1  0.4777530000000  0.4918630000000  0.6031560000000 1.0
C      1  0.5091610000000  0.4788500000000  0.6044940000000 1.0
C      1  0.5499460000000  0.5573130000000  0.5098940000000 1.0
C      1  0.4370460000000  0.5540680000000  0.5154900000000 1.0
C      1  0.4331130000000  0.4320190000000  0.5114780000000 1.0
C      1  0.5622090000000  0.4500110000000  0.5152990000000 1.0
C      1  0.5616490000000  0.5678040000000  0.4824220000000 1.0
C      1  0.4395630000000  0.5498890000000  0.4843270000000 1.0
C      1  0.4486190000000  0.4347040000000  0.4841660000000 1.0
C      1  0.5734810000000  0.4448360000000  0.4858710000000 1.0
C      1  0.5368970000000  0.5807080000000  0.5657810000000 1.0
C      1  0.4202060000000  0.5321930000000  0.5733420000000 1.0
C      1  0.4646970000000  0.4197240000000  0.5674770000000 1.0
C      1  0.5806810000000  0.4666560000000  0.5716510000000 1.0
C      1  0.5276920000000  0.5697930000000  0.4337980000000 1.0
C      1  0.4291060000000  0.5350490000000  0.4402240000000 1.0
C      1  0.4645640000000  0.4271780000000  0.4349540000000 1.0
C      1  0.5760350000000  0.4659580000000  0.4363630000000 1.0
C      1  0.4704780000000  0.5267090000000  0.5851470000000 1.0
C      1  0.4703700000000  0.4728290000000  0.5797180000000 1.0
C      1  0.5317820000000  0.4721470000000  0.5800110000000 1.0
C      1  0.5307340000000  0.5305090000000  0.5839940000000 1.0
C      1  0.4767920000000  0.5393490000000  0.4170930000000 1.0
C      1  0.4620050000000  0.4701160000000  0.4105560000000 1.0
C      1  0.5278000000000  0.4652430000000  0.4205400000000 1.0
C      1  0.5358250000000  0.5289280000000  0.4201190000000 1.0
C      1  0.5236820000000  0.4830370000000  0.4465970000000 1.0
C      1  0.5198230000000  0.5145950000000  0.4459700000000 1.0
C      1  0.4752480000000  0.5151340000000  0.4395610000000 1.0
C      1  0.4726100000000  0.4770780000000  0.4416690000000 1.0
C      1  0.5154170000000  0.4876990000000  0.5572460000000 1.0
C      1  0.5188110000000  0.5198620000000  0.5578870000000 1.0
C      1  0.4868460000000  0.5154420000000  0.5581000000000 1.0
C      1  0.4827440000000  0.4843150000000  0.5533230000000 1.0
C      1  0.5334100000000  0.4442990000000  0.4466890000000 1.0
C      1  0.5531660000000  0.5362410000000  0.4446530000000 1.0
C      1  0.4784300000000  0.5602940000000  0.4438410000000 1.0
C      1  0.4402810000000  0.4706280000000  0.4350350000000 1.0
C      1  0.5304150000000  0.4472310000000  0.5631790000000 1.0
C      1  0.5610460000000  0.5433140000000  0.5757630000000 1.0
C      1  0.4693010000000  0.5502870000000  0.5661620000000 1.0
C      1  0.4478230000000  0.4622970000000  0.5592410000000 1.0
C      1  0.4882610000000  0.5606330000000  0.4763970000000 1.0
C      1  0.4259190000000  0.4805220000000  0.4845560000000 1.0
C      1  0.5198790000000  0.4416430000000  0.4777800000000 1.0
C      1  0.5692350000000  0.5153510000000  0.4895220000000 1.0
C      1  0.4840830000000  0.5563410000000  0.5101450000000 1.0
C      1  0.4298510000000  0.4848530000000  0.5157230000000 1.0
C      1  0.5126030000000  0.4416800000000  0.5115430000000 1.0
C      1  0.5675470000000  0.5189730000000  0.5209160000000 1.0
C      1  0.4003400000000  0.4675590000000  0.4709590000000 1.0
C      1  0.5313920000000  0.4096660000000  0.4788550000000 1.0
C      1  0.5870380000000  0.5377380000000  0.4775420000000 1.0
C      1  0.4744880000000  0.5911970000000  0.4820730000000 1.0
C      1  0.4081420000000  0.4683080000000  0.5283020000000 1.0
C      1  0.5268100000000  0.4119100000000  0.5134760000000 1.0
C      1  0.5892490000000  0.5330880000000  0.5345810000000 1.0
C      1  0.4763420000000  0.5888260000000  0.5165440000000 1.0
C      1  0.4157900000000  0.4385040000000  0.4761740000000 1.0
C      1  0.5641860000000  0.4151870000000  0.4748290000000 1.0
C      1  0.5887780000000  0.5621200000000  0.4996470000000 1.0
C      1  0.4431290000000  0.5835560000000  0.4752810000000 1.0
C      1  0.4058910000000  0.4463350000000  0.5079570000000 1.0
C      1  0.5568230000000  0.4176980000000  0.5079660000000 1.0
C      1  0.5871400000000  0.5606590000000  0.5282390000000 1.0
C      1  0.4459210000000  0.5818050000000  0.5074420000000 1.0
C      1  0.5845320000000  0.4525650000000  0.5344930000000 1.0
C      1  0.5468010000000  0.5812540000000  0.5277900000000 1.0
C      1  0.4147380000000  0.5528460000000  0.5335830000000 1.0
C      1  0.4392530000000  0.4091810000000  0.5301910000000 1.0
C      1  0.5977290000000  0.4511810000000  0.4657650000000 1.0
C      1  0.5591800000000  0.5941290000000  0.4653900000000 1.0
C      1  0.4095600000000  0.5539870000000  0.4691710000000 1.0
C      1  0.4483250000000  0.4070960000000  0.4647810000000 1.0
C      1  0.4771730000000  0.5040410000000  0.5071050000000 1.0
C      1  0.4916880000000  0.4799040000000  0.4910170000000 1.0
C      1  0.5249840000000  0.4885390000000  0.4917260000000 1.0
C      1  0.5063490000000  0.5167790000000  0.4951490000000 1.0
END
