TITL C-3289329-2751-260 0.000582073523333186 125000 -957.441907131069 0 0 165 (C1) n - 1
REM
REM in /nfs/bkarasulu/CARBON/AIRSS/Generating-Clusters/AIREBO/with-SteepDescent/Higher-Symm/SD-CG/HFTN-CG
REM
REM
REM
REM
REM
REM ./C.cell (b20cbc046b6831c77cfcea5457e17084)
REM
REM compiler GCC version 9.2.1 20190827 (Red Hat 9.2.1-1)
REM options -cpp -mtune=generic -march=x86-64 -g -O0 -fpre-include=/usr/include/finclude/math-vector-fortran.h
REM seed -1065057807 -671182752 242693782 68090713 2085437196 589793242 -1407699597 1547547953 1389770538 -2122224323 -1347416267 1148835886 -2007132592 -1399349594 -316406796 -784836691 -1551725466 -957398238 1441386581 1307600501 -197079299 1122157331 519515122 -185847544 1595141508 1721357795 -1632553193 -734702384 -1204531094 -822259292 -1452764688 1888178290 -465740563
REM
CELL 1.54180   50.00000   50.00000   50.00000   90.00000   90.00000   90.00000
LATT -1
SFAC C  
C      1  0.4692290000000  0.4932070000000  0.4429290000000 1.0
C      1  0.4842610000000  0.5219160000000  0.4429370000000 1.0
C      1  0.4774610000000  0.5424770000000  0.4691490000000 1.0
C      1  0.4756170000000  0.5518270000000  0.5018050000000 1.0
C      1  0.4806180000000  0.5401260000000  0.5336050000000 1.0
C      1  0.4703150000000  0.5178740000000  0.5539360000000 1.0
C      1  0.4813040000000  0.4874550000000  0.5562100000000 1.0
C      1  0.4699090000000  0.4648560000000  0.5392010000000 1.0
C      1  0.4853860000000  0.4486540000000  0.5148190000000 1.0
C      1  0.4728020000000  0.4520690000000  0.4833950000000 1.0
C      1  0.4811600000000  0.4667740000000  0.4538760000000 1.0
C      1  0.5261830000000  0.5501710000000  0.4120100000000 1.0
C      1  0.5194830000000  0.5900160000000  0.4519070000000 1.0
C      1  0.5318240000000  0.6045000000000  0.5075000000000 1.0
C      1  0.5314620000000  0.5804500000000  0.5556220000000 1.0
C      1  0.5286410000000  0.5351810000000  0.5889000000000 1.0
C      1  0.5303760000000  0.4794050000000  0.6045480000000 1.0
C      1  0.5276030000000  0.4272490000000  0.5714440000000 1.0
C      1  0.5285390000000  0.4009110000000  0.5184460000000 1.0
C      1  0.5201540000000  0.4086250000000  0.4627380000000 1.0
C      1  0.5342490000000  0.4402990000000  0.4161090000000 1.0
C      1  0.5263380000000  0.4957960000000  0.3952190000000 1.0
C      1  0.4749060000000  0.5219290000000  0.3899510000000 1.0
C      1  0.4738000000000  0.5656580000000  0.4189250000000 1.0
C      1  0.4768340000000  0.6026480000000  0.4736490000000 1.0
C      1  0.4793570000000  0.5948340000000  0.5320180000000 1.0
C      1  0.4790300000000  0.5575100000000  0.5811000000000 1.0
C      1  0.4696940000000  0.5030580000000  0.6124840000000 1.0
C      1  0.4690540000000  0.4530580000000  0.5917190000000 1.0
C      1  0.4772410000000  0.4071370000000  0.5501430000000 1.0
C      1  0.4773620000000  0.4015950000000  0.4998560000000 1.0
C      1  0.4764490000000  0.4172510000000  0.4328440000000 1.0
C      1  0.4711800000000  0.4592300000000  0.4039970000000 1.0
C      1  0.5396190000000  0.5053410000000  0.4250330000000 1.0
C      1  0.5203350000000  0.5490900000000  0.4445720000000 1.0
C      1  0.5317390000000  0.5655390000000  0.4720860000000 1.0
C      1  0.5335990000000  0.5718730000000  0.5166340000000 1.0
C      1  0.5359180000000  0.5480790000000  0.5517420000000 1.0
C      1  0.5346940000000  0.5111690000000  0.5670950000000 1.0
C      1  0.5192930000000  0.4653060000000  0.5780040000000 1.0
C      1  0.5408490000000  0.4431780000000  0.5444720000000 1.0
C      1  0.5299350000000  0.4305550000000  0.5033050000000 1.0
C      1  0.5340970000000  0.4386830000000  0.4703860000000 1.0
C      1  0.5192840000000  0.4675690000000  0.4219150000000 1.0
C      1  0.4352740000000  0.5383440000000  0.4231230000000 1.0
C      1  0.4422900000000  0.5731760000000  0.4571210000000 1.0
C      1  0.4430530000000  0.5833230000000  0.5060690000000 1.0
C      1  0.4392760000000  0.5695340000000  0.5556850000000 1.0
C      1  0.4392560000000  0.5300040000000  0.5848650000000 1.0
C      1  0.4321830000000  0.4817040000000  0.5843970000000 1.0
C      1  0.4389540000000  0.4422760000000  0.5588160000000 1.0
C      1  0.4370860000000  0.4196060000000  0.5190150000000 1.0
C      1  0.4436920000000  0.4234170000000  0.4726130000000 1.0
C      1  0.4348440000000  0.4487170000000  0.4337660000000 1.0
C      1  0.4390060000000  0.4923520000000  0.4153500000000 1.0
C      1  0.5432170000000  0.4037020000000  0.4872740000000 1.0
C      1  0.5511160000000  0.4351860000000  0.4415570000000 1.0
C      1  0.5474650000000  0.4711490000000  0.4058140000000 1.0
C      1  0.5524310000000  0.5321280000000  0.4162740000000 1.0
C      1  0.5421310000000  0.5712370000000  0.4339740000000 1.0
C      1  0.5490460000000  0.5901910000000  0.4847300000000 1.0
C      1  0.5507420000000  0.5937600000000  0.5341260000000 1.0
C      1  0.5463670000000  0.5609210000000  0.5796080000000 1.0
C      1  0.5447420000000  0.5062140000000  0.5976480000000 1.0
C      1  0.5446580000000  0.4498410000000  0.5904130000000 1.0
C      1  0.5537440000000  0.4163480000000  0.5320800000000 1.0
C      1  0.4263130000000  0.4496030000000  0.5120710000000 1.0
C      1  0.4400130000000  0.4537390000000  0.4837540000000 1.0
C      1  0.4260190000000  0.4682250000000  0.4583520000000 1.0
C      1  0.4383970000000  0.4949220000000  0.4472990000000 1.0
C      1  0.4279280000000  0.5239170000000  0.4507260000000 1.0
C      1  0.4445130000000  0.5430420000000  0.4685180000000 1.0
C      1  0.4413120000000  0.5525010000000  0.5000200000000 1.0
C      1  0.4251630000000  0.5448700000000  0.5474900000000 1.0
C      1  0.4392390000000  0.5178960000000  0.5552360000000 1.0
C      1  0.4244530000000  0.4899750000000  0.5539760000000 1.0
C      1  0.4383540000000  0.4660620000000  0.5370290000000 1.0
C      1  0.5795280000000  0.5336410000000  0.4194890000000 1.0
C      1  0.5698480000000  0.5654030000000  0.4417760000000 1.0
C      1  0.5762140000000  0.5858510000000  0.4856270000000 1.0
C      1  0.5785290000000  0.5840540000000  0.5359850000000 1.0
C      1  0.5752240000000  0.5547620000000  0.5785640000000 1.0
C      1  0.5735980000000  0.5066240000000  0.5983430000000 1.0
C      1  0.5727280000000  0.4536680000000  0.5868160000000 1.0
C      1  0.5797550000000  0.4134990000000  0.5239720000000 1.0
C      1  0.5742000000000  0.4057790000000  0.4788910000000 1.0
C      1  0.5782250000000  0.4329010000000  0.4388420000000 1.0
C      1  0.5753090000000  0.4755230000000  0.4105410000000 1.0
C      1  0.5887410000000  0.5472290000000  0.4616650000000 1.0
C      1  0.5887610000000  0.5561640000000  0.4948310000000 1.0
C      1  0.5857780000000  0.5546900000000  0.5291340000000 1.0
C      1  0.5838320000000  0.5348200000000  0.5573540000000 1.0
C      1  0.5880880000000  0.5040260000000  0.5722310000000 1.0
C      1  0.5829090000000  0.4708790000000  0.5665810000000 1.0
C      1  0.5889510000000  0.4325900000000  0.5046180000000 1.0
C      1  0.5934750000000  0.4287340000000  0.4752380000000 1.0
C      1  0.5969250000000  0.4552360000000  0.4540860000000 1.0
C      1  0.5935770000000  0.4842540000000  0.4354830000000 1.0
C      1  0.5926200000000  0.5171810000000  0.4453520000000 1.0
C      1  0.3966930000000  0.4727050000000  0.4640130000000 1.0
C      1  0.3871760000000  0.4978820000000  0.4562610000000 1.0
C      1  0.3997460000000  0.5224910000000  0.4605840000000 1.0
C      1  0.3953300000000  0.5401830000000  0.4815490000000 1.0
C      1  0.4118890000000  0.5435140000000  0.5035900000000 1.0
C      1  0.4045320000000  0.5396170000000  0.5296480000000 1.0
C      1  0.3875140000000  0.5186600000000  0.5377820000000 1.0
C      1  0.3961340000000  0.4925990000000  0.5433470000000 1.0
C      1  0.3859390000000  0.4692680000000  0.5318770000000 1.0
C      1  0.3966410000000  0.4552960000000  0.5101840000000 1.0
C      1  0.3863120000000  0.4565360000000  0.4842570000000 1.0
C      1  0.5182690000000  0.5270420000000  0.5345050000000 1.0
C      1  0.5078120000000  0.5045110000000  0.5503620000000 1.0
C      1  0.5193310000000  0.4761550000000  0.5516850000000 1.0
C      1  0.5150910000000  0.4566270000000  0.5293300000000 1.0
C      1  0.5188950000000  0.4623640000000  0.4985760000000 1.0
C      1  0.5093000000000  0.4619360000000  0.4696330000000 1.0
C      1  0.5180660000000  0.4803610000000  0.4474860000000 1.0
C      1  0.5139850000000  0.5099580000000  0.4463170000000 1.0
C      1  0.5110620000000  0.5313430000000  0.4707530000000 1.0
C      1  0.5081110000000  0.5537120000000  0.4919310000000 1.0
C      1  0.5095620000000  0.5542150000000  0.5226570000000 1.0
C      1  0.5709410000000  0.4711740000000  0.4648070000000 1.0
C      1  0.5616390000000  0.4920480000000  0.4441830000000 1.0
C      1  0.5612120000000  0.5193990000000  0.4582010000000 1.0
C      1  0.5569770000000  0.5448130000000  0.4735580000000 1.0
C      1  0.5557400000000  0.5552510000000  0.5029040000000 1.0
C      1  0.5565610000000  0.5385210000000  0.5287860000000 1.0
C      1  0.5576890000000  0.5147820000000  0.5488930000000 1.0
C      1  0.5746100000000  0.4906730000000  0.5421670000000 1.0
C      1  0.5659690000000  0.4610910000000  0.5361930000000 1.0
C      1  0.5719230000000  0.4547090000000  0.5079920000000 1.0
C      1  0.5569980000000  0.4592680000000  0.4848060000000 1.0
C      1  0.4980710000000  0.4416340000000  0.5806820000000 1.0
C      1  0.5114230000000  0.4110500000000  0.5460760000000 1.0
C      1  0.4923740000000  0.4042540000000  0.4773030000000 1.0
C      1  0.5100080000000  0.4254160000000  0.4349140000000 1.0
C      1  0.4984870000000  0.4772140000000  0.4012980000000 1.0
C      1  0.5086630000000  0.5248160000000  0.3974680000000 1.0
C      1  0.4942270000000  0.5773240000000  0.4340500000000 1.0
C      1  0.5086480000000  0.5964080000000  0.4839360000000 1.0
C      1  0.5021370000000  0.5877860000000  0.5516370000000 1.0
C      1  0.4993250000000  0.5399540000000  0.5939200000000 1.0
C      1  0.4995990000000  0.4889510000000  0.6061970000000 1.0
C      1  0.4841230000000  0.5374940000000  0.4168820000000 1.0
C      1  0.4838360000000  0.5747760000000  0.4614480000000 1.0
C      1  0.4865060000000  0.5837140000000  0.5064400000000 1.0
C      1  0.4870080000000  0.5631160000000  0.5549320000000 1.0
C      1  0.4808650000000  0.5179630000000  0.5862970000000 1.0
C      1  0.4821730000000  0.4780250000000  0.5845810000000 1.0
C      1  0.4797050000000  0.4389980000000  0.5553040000000 1.0
C      1  0.4887940000000  0.4179010000000  0.5216400000000 1.0
C      1  0.4822940000000  0.4279940000000  0.4634930000000 1.0
C      1  0.4853150000000  0.4480960000000  0.4292500000000 1.0
C      1  0.4784100000000  0.4976800000000  0.4119580000000 1.0
C      1  0.4444470000000  0.4646290000000  0.4111050000000 1.0
C      1  0.4447340000000  0.5180380000000  0.4051360000000 1.0
C      1  0.4467970000000  0.5645180000000  0.4284560000000 1.0
C      1  0.4492950000000  0.5921150000000  0.4779240000000 1.0
C      1  0.4503370000000  0.5880420000000  0.5348030000000 1.0
C      1  0.4503120000000  0.5567700000000  0.5818160000000 1.0
C      1  0.4423700000000  0.5046570000000  0.5993420000000 1.0
C      1  0.4424730000000  0.4543770000000  0.5840410000000 1.0
C      1  0.4465480000000  0.4188890000000  0.5455280000000 1.0
C      1  0.4496620000000  0.4078210000000  0.4962110000000 1.0
C      1  0.4471070000000  0.4253590000000  0.4446730000000 1.0
END
