TITL C-3289328-6581-343 -0.000774927830421074 125000 -664.134178304882 0 0 124 (C1) n - 1
REM
REM in /nfs/bkarasulu/CARBON/AIRSS/Generating-Clusters/AIREBO/with-SteepDescent/Higher-Symm/SD-CG/HFTN-CG
REM
REM
REM
REM
REM
REM ./C.cell (b20cbc046b6831c77cfcea5457e17084)
REM
REM compiler GCC version 9.2.1 20190827 (Red Hat 9.2.1-1)
REM options -cpp -mtune=generic -march=x86-64 -g -O0 -fpre-include=/usr/include/finclude/math-vector-fortran.h
REM seed -846634921 -698528034 438936578 -663743418 1991881430 833852900 -865804818 -1859678756 -933376926 1531853904 1999363085 -519239486 -1461777525 -1062239932 -1587016227 77475788 -1102269992 -579791265 1569054730 1959503608 -798602668 421674298 -397876872 -711267968 -487568790 -409094335 -96382349 1100389829 -1839479285 996416021 1970072909 1412249375 1257356582
REM
CELL 1.54180   50.00000   50.00000   50.00000   90.00000   90.00000   90.00000
LATT -1
SFAC C  
C      1  0.5136520000000  0.5200890000000  0.5727570000000 1.0
C      1  0.5145130000000  0.4278470000000  0.5212710000000 1.0
C      1  0.5123920000000  0.4873320000000  0.4233860000000 1.0
C      1  0.5129120000000  0.5722390000000  0.4771430000000 1.0
C      1  0.4829990000000  0.5154420000000  0.5827480000000 1.0
C      1  0.4891570000000  0.4134340000000  0.5153810000000 1.0
C      1  0.4792700000000  0.4796190000000  0.4180710000000 1.0
C      1  0.4838750000000  0.5841920000000  0.4829860000000 1.0
C      1  0.5639970000000  0.5132890000000  0.5721940000000 1.0
C      1  0.5597910000000  0.4284440000000  0.5128790000000 1.0
C      1  0.5598480000000  0.4842040000000  0.4316780000000 1.0
C      1  0.5651660000000  0.5737360000000  0.4862660000000 1.0
C      1  0.4356700000000  0.5219110000000  0.5700560000000 1.0
C      1  0.4392790000000  0.4333550000000  0.5143790000000 1.0
C      1  0.4304360000000  0.4740530000000  0.4281810000000 1.0
C      1  0.4357100000000  0.5723760000000  0.4793200000000 1.0
C      1  0.5736430000000  0.4788080000000  0.5120840000000 1.0
C      1  0.5753120000000  0.4866530000000  0.4790410000000 1.0
C      1  0.5765940000000  0.5200410000000  0.4876170000000 1.0
C      1  0.5744910000000  0.5119330000000  0.5205930000000 1.0
C      1  0.4249810000000  0.4830610000000  0.5142240000000 1.0
C      1  0.4193440000000  0.4765650000000  0.4814520000000 1.0
C      1  0.4224800000000  0.5106200000000  0.4853500000000 1.0
C      1  0.4276350000000  0.5156280000000  0.5176040000000 1.0
C      1  0.4613950000000  0.5150820000000  0.4207700000000 1.0
C      1  0.4665720000000  0.5753930000000  0.5176720000000 1.0
C      1  0.4663970000000  0.4802050000000  0.5747650000000 1.0
C      1  0.4734670000000  0.4307200000000  0.4830080000000 1.0
C      1  0.5323010000000  0.5327950000000  0.4292140000000 1.0
C      1  0.5325410000000  0.5785900000000  0.5253400000000 1.0
C      1  0.5377440000000  0.4686960000000  0.5836050000000 1.0
C      1  0.5331570000000  0.4224000000000  0.4748200000000 1.0
C      1  0.5394950000000  0.4680770000000  0.4661320000000 1.0
C      1  0.5432740000000  0.5269020000000  0.4669240000000 1.0
C      1  0.5399460000000  0.5344200000000  0.5267880000000 1.0
C      1  0.5362120000000  0.4721330000000  0.5438530000000 1.0
C      1  0.4586360000000  0.4720560000000  0.4742690000000 1.0
C      1  0.4666320000000  0.5426620000000  0.4681070000000 1.0
C      1  0.4620700000000  0.5317550000000  0.5382730000000 1.0
C      1  0.4720550000000  0.4637540000000  0.5300900000000 1.0
C      1  0.5135510000000  0.4678410000000  0.6003660000000 1.0
C      1  0.5114420000000  0.4071740000000  0.4664210000000 1.0
C      1  0.5145890000000  0.5174680000000  0.4075190000000 1.0
C      1  0.5138290000000  0.5978450000000  0.5329050000000 1.0
C      1  0.4863440000000  0.4882140000000  0.6011570000000 1.0
C      1  0.4888910000000  0.4019700000000  0.4870870000000 1.0
C      1  0.4853340000000  0.5061830000000  0.3987750000000 1.0
C      1  0.4872680000000  0.6017670000000  0.5120050000000 1.0
C      1  0.5597460000000  0.4249580000000  0.4706210000000 1.0
C      1  0.5612100000000  0.5316480000000  0.4281420000000 1.0
C      1  0.5582840000000  0.5721070000000  0.5308150000000 1.0
C      1  0.5627140000000  0.4672820000000  0.5741150000000 1.0
C      1  0.4437830000000  0.4304500000000  0.4846010000000 1.0
C      1  0.4346290000000  0.5164610000000  0.4257610000000 1.0
C      1  0.4390240000000  0.5733840000000  0.5099540000000 1.0
C      1  0.4383870000000  0.4796650000000  0.5745770000000 1.0
C      1  0.4853320000000  0.4495050000000  0.5575490000000 1.0
C      1  0.4838110000000  0.4581030000000  0.4561430000000 1.0
C      1  0.4892230000000  0.5485260000000  0.4453390000000 1.0
C      1  0.4857260000000  0.5531110000000  0.5472060000000 1.0
C      1  0.5141730000000  0.4463500000000  0.5462490000000 1.0
C      1  0.5107380000000  0.4722620000000  0.4524810000000 1.0
C      1  0.5202390000000  0.5494920000000  0.4561130000000 1.0
C      1  0.5128670000000  0.5367810000000  0.5472500000000 1.0
C      1  0.5178460000000  0.4891590000000  0.5668500000000 1.0
C      1  0.5231230000000  0.4428150000000  0.4960140000000 1.0
C      1  0.5122850000000  0.5118120000000  0.4469870000000 1.0
C      1  0.5188570000000  0.5604850000000  0.5055970000000 1.0
C      1  0.4876710000000  0.4965470000000  0.5538290000000 1.0
C      1  0.4928040000000  0.4518390000000  0.4948580000000 1.0
C      1  0.4813690000000  0.5009670000000  0.4444570000000 1.0
C      1  0.4856320000000  0.5552120000000  0.5007830000000 1.0
C      1  0.4271940000000  0.5467550000000  0.5212290000000 1.0
C      1  0.4249670000000  0.4752350000000  0.5474940000000 1.0
C      1  0.4281000000000  0.4468730000000  0.4686620000000 1.0
C      1  0.4282640000000  0.5222890000000  0.4546570000000 1.0
C      1  0.5782840000000  0.5445930000000  0.5305680000000 1.0
C      1  0.5783960000000  0.4679020000000  0.5439480000000 1.0
C      1  0.5768630000000  0.4541550000000  0.4691450000000 1.0
C      1  0.5812260000000  0.5299110000000  0.4553880000000 1.0
C      1  0.4325060000000  0.4459200000000  0.4413380000000 1.0
C      1  0.4394220000000  0.5542590000000  0.4515410000000 1.0
C      1  0.4381810000000  0.5505270000000  0.5531880000000 1.0
C      1  0.4438680000000  0.4508130000000  0.5415140000000 1.0
C      1  0.5564450000000  0.4526050000000  0.4419990000000 1.0
C      1  0.5595910000000  0.5552500000000  0.4601290000000 1.0
C      1  0.5567980000000  0.5401600000000  0.5547910000000 1.0
C      1  0.5574010000000  0.4443620000000  0.5417840000000 1.0
C      1  0.4924180000000  0.5540160000000  0.5800550000000 1.0
C      1  0.4887340000000  0.4158230000000  0.5551900000000 1.0
C      1  0.4866780000000  0.4413670000000  0.4266840000000 1.0
C      1  0.4919420000000  0.5813390000000  0.4441070000000 1.0
C      1  0.5167550000000  0.5551250000000  0.5917850000000 1.0
C      1  0.5139520000000  0.4048950000000  0.5539940000000 1.0
C      1  0.5113860000000  0.4441260000000  0.4126010000000 1.0
C      1  0.5168580000000  0.5931460000000  0.4434150000000 1.0
C      1  0.4495850000000  0.4643810000000  0.5045670000000 1.0
C      1  0.4364940000000  0.4892750000000  0.4549840000000 1.0
C      1  0.4395190000000  0.5398920000000  0.4886370000000 1.0
C      1  0.4429550000000  0.5037820000000  0.5431730000000 1.0
C      1  0.5542070000000  0.4565340000000  0.4945420000000 1.0
C      1  0.5619940000000  0.5022670000000  0.4550870000000 1.0
C      1  0.5609970000000  0.5446190000000  0.5020530000000 1.0
C      1  0.5607520000000  0.4955940000000  0.5459450000000 1.0
C      1  0.4582180000000  0.4563530000000  0.4212200000000 1.0
C      1  0.4609860000000  0.5807860000000  0.4581880000000 1.0
C      1  0.4618240000000  0.5414140000000  0.5769520000000 1.0
C      1  0.4649920000000  0.4246620000000  0.5337900000000 1.0
C      1  0.5364340000000  0.4645820000000  0.4167520000000 1.0
C      1  0.5412990000000  0.5824630000000  0.4635040000000 1.0
C      1  0.5400160000000  0.5349690000000  0.5825090000000 1.0
C      1  0.5401040000000  0.4170060000000  0.5385470000000 1.0
C      1  0.5235990000000  0.4837850000000  0.4883420000000 1.0
C      1  0.5180530000000  0.5127300000000  0.4804830000000 1.0
C      1  0.5129300000000  0.5271310000000  0.5085100000000 1.0
C      1  0.5207800000000  0.4810710000000  0.5180940000000 1.0
C      1  0.4799620000000  0.4966030000000  0.4774870000000 1.0
C      1  0.4760500000000  0.5246030000000  0.4934350000000 1.0
C      1  0.4862630000000  0.5126730000000  0.5238910000000 1.0
C      1  0.4885430000000  0.4829940000000  0.5074480000000 1.0
C      1  0.4845910000000  0.4563770000000  0.5881570000000 1.0
C      1  0.4871840000000  0.5346280000000  0.4189900000000 1.0
C      1  0.4847750000000  0.5852810000000  0.5427560000000 1.0
C      1  0.4866410000000  0.4242080000000  0.4539320000000 1.0
END
