TITL C-3289333-7213-252 -6.7512713087965e-05 125000 -600.866050530363 0 0 114 (C1) n - 1
REM
REM in /nfs/bkarasulu/CARBON/AIRSS/Generating-Clusters/AIREBO/with-SteepDescent/Higher-Symm/SD-CG/HFTN-CG
REM
REM
REM
REM
REM
REM ./C.cell (b20cbc046b6831c77cfcea5457e17084)
REM
REM compiler GCC version 9.2.1 20190827 (Red Hat 9.2.1-1)
REM options -cpp -mtune=generic -march=x86-64 -g -O0 -fpre-include=/usr/include/finclude/math-vector-fortran.h
REM seed 1893982987 2084827126 81763066 733040141 2004343287 -194407456 777308828 -1504367692 1635127263 166983472 278966219 1721868589 -277325526 -1656467928 1665447949 -2012533107 -46907953 -937091964 2001403902 -122547379 -90930732 926442180 79108924 -1860057910 219174625 2049263794 -940440915 450002893 -1911617786 2022234601 1706711819 2128106070 -2047906259
REM
CELL 1.54180   50.00000   50.00000   50.00000   90.00000   90.00000   90.00000
LATT -1
SFAC C  
C      1  0.5105930000000  0.5499890000000  0.4761660000000 1.0
C      1  0.4924360000000  0.4560680000000  0.4770720000000 1.0
C      1  0.4709050000000  0.5489470000000  0.5005130000000 1.0
C      1  0.4928600000000  0.4517380000000  0.5267470000000 1.0
C      1  0.5074410000000  0.5477420000000  0.5244080000000 1.0
C      1  0.5269450000000  0.4512300000000  0.4964320000000 1.0
C      1  0.4537930000000  0.4842850000000  0.5066250000000 1.0
C      1  0.4760860000000  0.5239630000000  0.5481130000000 1.0
C      1  0.5402740000000  0.4786140000000  0.5333490000000 1.0
C      1  0.5470570000000  0.5177130000000  0.4968190000000 1.0
C      1  0.5251050000000  0.4717280000000  0.4400700000000 1.0
C      1  0.4608570000000  0.5228510000000  0.4684070000000 1.0
C      1  0.4694440000000  0.5227390000000  0.4146770000000 1.0
C      1  0.4102980000000  0.4843560000000  0.4875720000000 1.0
C      1  0.4475070000000  0.5268530000000  0.5758610000000 1.0
C      1  0.5385180000000  0.4757570000000  0.5847270000000 1.0
C      1  0.5853190000000  0.5195650000000  0.5082750000000 1.0
C      1  0.5534880000000  0.4744570000000  0.4123040000000 1.0
C      1  0.4520720000000  0.4756280000000  0.4500580000000 1.0
C      1  0.4309940000000  0.5277570000000  0.5155290000000 1.0
C      1  0.4780420000000  0.4731580000000  0.5688140000000 1.0
C      1  0.5467460000000  0.5253430000000  0.5526250000000 1.0
C      1  0.5655490000000  0.4715520000000  0.4839770000000 1.0
C      1  0.5210100000000  0.5239780000000  0.4387380000000 1.0
C      1  0.5787000000000  0.4678350000000  0.5355270000000 1.0
C      1  0.5804850000000  0.5081650000000  0.4529070000000 1.0
C      1  0.4939650000000  0.4662430000000  0.4148550000000 1.0
C      1  0.4228540000000  0.5324600000000  0.4608900000000 1.0
C      1  0.4187710000000  0.4816130000000  0.5486170000000 1.0
C      1  0.5077780000000  0.5286690000000  0.5859380000000 1.0
C      1  0.5043520000000  0.4087250000000  0.5199790000000 1.0
C      1  0.5122420000000  0.5855510000000  0.5124580000000 1.0
C      1  0.5227610000000  0.4119990000000  0.4913020000000 1.0
C      1  0.5002350000000  0.5907790000000  0.4802310000000 1.0
C      1  0.4890470000000  0.4163820000000  0.4905910000000 1.0
C      1  0.4788440000000  0.5878810000000  0.5065000000000 1.0
C      1  0.4988390000000  0.4885750000000  0.4808160000000 1.0
C      1  0.4898280000000  0.5273060000000  0.4848010000000 1.0
C      1  0.4832850000000  0.4901010000000  0.5110160000000 1.0
C      1  0.5010140000000  0.5154450000000  0.5269890000000 1.0
C      1  0.5130640000000  0.4742340000000  0.5152850000000 1.0
C      1  0.5167840000000  0.5125060000000  0.4970060000000 1.0
C      1  0.4399500000000  0.4368050000000  0.4784710000000 1.0
C      1  0.4412350000000  0.5703870000000  0.5398490000000 1.0
C      1  0.5075100000000  0.4326500000000  0.5749450000000 1.0
C      1  0.5599180000000  0.5661900000000  0.5277110000000 1.0
C      1  0.5578190000000  0.4327240000000  0.4526460000000 1.0
C      1  0.4967950000000  0.5659090000000  0.4256290000000 1.0
C      1  0.4773670000000  0.4964260000000  0.4564140000000 1.0
C      1  0.4408690000000  0.5098190000000  0.4916430000000 1.0
C      1  0.4625370000000  0.4952430000000  0.5574980000000 1.0
C      1  0.5223590000000  0.5033710000000  0.5482360000000 1.0
C      1  0.5588800000000  0.4896780000000  0.5085220000000 1.0
C      1  0.5220580000000  0.4981970000000  0.4583370000000 1.0
C      1  0.4948780000000  0.5640260000000  0.5731710000000 1.0
C      1  0.5711610000000  0.4316200000000  0.5377310000000 1.0
C      1  0.5580610000000  0.5574990000000  0.4654780000000 1.0
C      1  0.4990900000000  0.4349870000000  0.4233210000000 1.0
C      1  0.4303220000000  0.5685210000000  0.4612970000000 1.0
C      1  0.4461950000000  0.4427550000000  0.5378300000000 1.0
C      1  0.4469000000000  0.4510390000000  0.5085790000000 1.0
C      1  0.4680800000000  0.5562450000000  0.5552300000000 1.0
C      1  0.5419710000000  0.4460980000000  0.5431850000000 1.0
C      1  0.5561480000000  0.5504680000000  0.4977830000000 1.0
C      1  0.5270940000000  0.4388770000000  0.4394250000000 1.0
C      1  0.4597330000000  0.5543840000000  0.4556990000000 1.0
C      1  0.5081250000000  0.4816170000000  0.5701490000000 1.0
C      1  0.5660970000000  0.5101500000000  0.5346940000000 1.0
C      1  0.5503930000000  0.4829820000000  0.4599100000000 1.0
C      1  0.4927310000000  0.5089330000000  0.4335790000000 1.0
C      1  0.4319990000000  0.4936500000000  0.4635870000000 1.0
C      1  0.4397860000000  0.5145870000000  0.5411990000000 1.0
C      1  0.5292110000000  0.5699090000000  0.5381060000000 1.0
C      1  0.5514290000000  0.4300910000000  0.4859490000000 1.0
C      1  0.5089480000000  0.5796260000000  0.4498550000000 1.0
C      1  0.4711770000000  0.4320210000000  0.4658320000000 1.0
C      1  0.4481540000000  0.5728920000000  0.5077110000000 1.0
C      1  0.4956350000000  0.4196650000000  0.5501180000000 1.0
C      1  0.5781910000000  0.4513390000000  0.4653520000000 1.0
C      1  0.5161460000000  0.5471900000000  0.4152240000000 1.0
C      1  0.4384240000000  0.4484490000000  0.4502010000000 1.0
C      1  0.4185090000000  0.5534840000000  0.5259080000000 1.0
C      1  0.4877580000000  0.4482950000000  0.5888360000000 1.0
C      1  0.5604210000000  0.5522920000000  0.5557240000000 1.0
C      1  0.4814420000000  0.5628500000000  0.5272340000000 1.0
C      1  0.5213750000000  0.4363710000000  0.5245390000000 1.0
C      1  0.5251850000000  0.5582630000000  0.5002050000000 1.0
C      1  0.5159820000000  0.4361680000000  0.4687370000000 1.0
C      1  0.4809800000000  0.5646280000000  0.4740630000000 1.0
C      1  0.4772400000000  0.4442970000000  0.5030810000000 1.0
C      1  0.4746990000000  0.4465120000000  0.5511880000000 1.0
C      1  0.5214300000000  0.5463180000000  0.5614280000000 1.0
C      1  0.5642270000000  0.4502150000000  0.5102750000000 1.0
C      1  0.5298740000000  0.5528020000000  0.4521710000000 1.0
C      1  0.4766560000000  0.4541370000000  0.4405760000000 1.0
C      1  0.4329530000000  0.5488780000000  0.4889260000000 1.0
C      1  0.5208080000000  0.5041290000000  0.5908750000000 1.0
C      1  0.5942770000000  0.4924230000000  0.5266900000000 1.0
C      1  0.5666810000000  0.4900440000000  0.4324190000000 1.0
C      1  0.4895850000000  0.4973520000000  0.4031050000000 1.0
C      1  0.4022780000000  0.5102580000000  0.4675680000000 1.0
C      1  0.4257830000000  0.5025130000000  0.5686620000000 1.0
C      1  0.5877080000000  0.5510260000000  0.5104430000000 1.0
C      1  0.5532350000000  0.4461740000000  0.4189320000000 1.0
C      1  0.4713780000000  0.5532340000000  0.4278060000000 1.0
C      1  0.4154850000000  0.4535490000000  0.4957940000000 1.0
C      1  0.4389870000000  0.5562660000000  0.5728470000000 1.0
C      1  0.5316190000000  0.4465320000000  0.5712580000000 1.0
C      1  0.4450380000000  0.5216500000000  0.4383240000000 1.0
C      1  0.4223160000000  0.4807460000000  0.5190140000000 1.0
C      1  0.4796590000000  0.5273120000000  0.5811560000000 1.0
C      1  0.5603460000000  0.4769430000000  0.5607480000000 1.0
C      1  0.5753540000000  0.5120280000000  0.4788200000000 1.0
C      1  0.5211710000000  0.4848090000000  0.4089590000000 1.0
END
