TITL C-3289335-9438-48 -0.000292389934187965 125000 -369.829604143213 0 0 66 (C1) n - 1
REM
REM in /nfs/bkarasulu/CARBON/AIRSS/Generating-Clusters/AIREBO/with-SteepDescent/Higher-Symm/SD-CG/HFTN-CG
REM
REM
REM
REM
REM
REM ./C.cell (b20cbc046b6831c77cfcea5457e17084)
REM
REM compiler GCC version 9.2.1 20190827 (Red Hat 9.2.1-1)
REM options -cpp -mtune=generic -march=x86-64 -g -O0 -fpre-include=/usr/include/finclude/math-vector-fortran.h
REM seed -114621111 -788788158 2099140902 -704362135 -1505335916 337994349 -781077261 1027802266 1539777054 2031337608 3681612 -192841591 -285494843 145653574 732803822 -1308897863 -1963736747 -1789121775 -310551109 -1023184697 1846431001 777152657 1871190405 472841922 1244199508 1611697519 1079577101 -830938146 -1565704666 259284930 309007995 -2064825650 598620359
REM
CELL 1.54180   50.00000   50.00000   50.00000   90.00000   90.00000   90.00000
LATT -1
SFAC C  
C      1  0.5265180000000  0.5314240000000  0.4525280000000 1.0
C      1  0.5284900000000  0.5491080000000  0.5287740000000 1.0
C      1  0.5308990000000  0.4700370000000  0.5472970000000 1.0
C      1  0.5303250000000  0.4523700000000  0.4711520000000 1.0
C      1  0.4687190000000  0.4712420000000  0.4508450000000 1.0
C      1  0.4723100000000  0.4526640000000  0.5277810000000 1.0
C      1  0.4704080000000  0.5299540000000  0.5467070000000 1.0
C      1  0.4676270000000  0.5491150000000  0.4693160000000 1.0
C      1  0.5725890000000  0.4733210000000  0.4731410000000 1.0
C      1  0.5885360000000  0.5224190000000  0.4821070000000 1.0
C      1  0.5885260000000  0.5192460000000  0.5305230000000 1.0
C      1  0.5763730000000  0.4718980000000  0.5218730000000 1.0
C      1  0.4094850000000  0.5188800000000  0.4713780000000 1.0
C      1  0.4114790000000  0.4708220000000  0.4795890000000 1.0
C      1  0.4117370000000  0.4790240000000  0.5275050000000 1.0
C      1  0.4097230000000  0.5270030000000  0.5193600000000 1.0
C      1  0.5495130000000  0.4986480000000  0.5489860000000 1.0
C      1  0.5458480000000  0.4416470000000  0.4981970000000 1.0
C      1  0.5509310000000  0.5114330000000  0.4507270000000 1.0
C      1  0.5536880000000  0.5444730000000  0.5064100000000 1.0
C      1  0.4471460000000  0.5065880000000  0.5425960000000 1.0
C      1  0.4449740000000  0.5441300000000  0.4927940000000 1.0
C      1  0.4469080000000  0.4939460000000  0.4564500000000 1.0
C      1  0.4488660000000  0.4571670000000  0.5055170000000 1.0
C      1  0.4785900000000  0.5618810000000  0.5380960000000 1.0
C      1  0.4800210000000  0.4618610000000  0.5587080000000 1.0
C      1  0.4779700000000  0.4417160000000  0.4622130000000 1.0
C      1  0.4762620000000  0.5369110000000  0.4387030000000 1.0
C      1  0.5300080000000  0.4417480000000  0.5277290000000 1.0
C      1  0.5204390000000  0.5384870000000  0.5601670000000 1.0
C      1  0.5173190000000  0.5628190000000  0.4600300000000 1.0
C      1  0.5191260000000  0.4603550000000  0.4399580000000 1.0
C      1  0.5431970000000  0.4769910000000  0.5163650000000 1.0
C      1  0.5392870000000  0.4851000000000  0.4688140000000 1.0
C      1  0.5351660000000  0.5305430000000  0.4854600000000 1.0
C      1  0.5355940000000  0.5158780000000  0.5273990000000 1.0
C      1  0.4618500000000  0.5298500000000  0.5137720000000 1.0
C      1  0.4622480000000  0.5155640000000  0.4710110000000 1.0
C      1  0.4654910000000  0.4726790000000  0.4847040000000 1.0
C      1  0.4650460000000  0.4859130000000  0.5279520000000 1.0
C      1  0.5711500000000  0.4565910000000  0.4965740000000 1.0
C      1  0.5750150000000  0.5028020000000  0.4666410000000 1.0
C      1  0.5794800000000  0.5330700000000  0.5071340000000 1.0
C      1  0.5763460000000  0.4952170000000  0.5400700000000 1.0
C      1  0.4185270000000  0.5348650000000  0.4932700000000 1.0
C      1  0.4200720000000  0.4932830000000  0.4642360000000 1.0
C      1  0.4218380000000  0.4641250000000  0.5053580000000 1.0
C      1  0.4204530000000  0.5053110000000  0.5345510000000 1.0
C      1  0.4922390000000  0.5339770000000  0.5133090000000 1.0
C      1  0.4952080000000  0.4883700000000  0.5329500000000 1.0
C      1  0.4964530000000  0.4688720000000  0.4852650000000 1.0
C      1  0.4929330000000  0.5161310000000  0.4682430000000 1.0
C      1  0.5100440000000  0.4727350000000  0.5133530000000 1.0
C      1  0.5054290000000  0.5164800000000  0.5307380000000 1.0
C      1  0.5048690000000  0.5351380000000  0.4858880000000 1.0
C      1  0.5068860000000  0.4887740000000  0.4650330000000 1.0
C      1  0.5015980000000  0.5651430000000  0.5153860000000 1.0
C      1  0.5032030000000  0.4817020000000  0.5632540000000 1.0
C      1  0.5020070000000  0.4370660000000  0.4801440000000 1.0
C      1  0.5007560000000  0.5160920000000  0.4364890000000 1.0
C      1  0.4992790000000  0.4405110000000  0.5132260000000 1.0
C      1  0.4969910000000  0.5155180000000  0.5622590000000 1.0
C      1  0.4945590000000  0.5657290000000  0.4817660000000 1.0
C      1  0.4961370000000  0.4821680000000  0.4352840000000 1.0
C      1  0.4632420000000  0.5010040000000  0.4995870000000 1.0
C      1  0.5379240000000  0.5009500000000  0.4973180000000 1.0
END
