TITL C-3289323-3850-138 0.00166262745887014 125000 -753.232423177736 0 0 138 (C1) n - 1
REM
REM in /nfs/bkarasulu/CARBON/AIRSS/Generating-Clusters/AIREBO/with-SteepDescent/Higher-Symm/SD-CG/HFTN-CG
REM
REM
REM
REM
REM
REM ./C.cell (b20cbc046b6831c77cfcea5457e17084)
REM
REM compiler GCC version 9.2.1 20190827 (Red Hat 9.2.1-1)
REM options -cpp -mtune=generic -march=x86-64 -g -O0 -fpre-include=/usr/include/finclude/math-vector-fortran.h
REM seed 1868794757 -1996145357 2090774973 -608327020 1630467931 -928369992 -826090016 -1011064930 -770473174 1975338273 1443152563 -1390378667 524097164 873596486 -509851371 -473340896 -1121044129 -211097159 -1103077881 234868468 -1984298839 1971171963 -535526886 736970174 -159974685 -1179777044 929288635 580967585 1655008784 730007627 -1877829788 -149842967 -1709017491
REM
CELL 1.54180   50.00000   50.00000   50.00000   90.00000   90.00000   90.00000
LATT -1
SFAC C  
C      1  0.4972790000000  0.5944370000000  0.5115870000000 1.0
C      1  0.4970890000000  0.4049190000000  0.4875050000000 1.0
C      1  0.5139530000000  0.5926530000000  0.4883190000000 1.0
C      1  0.5184850000000  0.4000220000000  0.5096830000000 1.0
C      1  0.5941770000000  0.4715340000000  0.5108130000000 1.0
C      1  0.6054350000000  0.5432670000000  0.4804280000000 1.0
C      1  0.4059550000000  0.4663620000000  0.4914960000000 1.0
C      1  0.4053520000000  0.5277480000000  0.5110340000000 1.0
C      1  0.5150820000000  0.4326730000000  0.5098670000000 1.0
C      1  0.5218140000000  0.5614240000000  0.4844810000000 1.0
C      1  0.4804990000000  0.4337950000000  0.4901830000000 1.0
C      1  0.4783120000000  0.5673460000000  0.5093840000000 1.0
C      1  0.4153560000000  0.4892510000000  0.5150490000000 1.0
C      1  0.4119670000000  0.5051460000000  0.4869370000000 1.0
C      1  0.5909280000000  0.4966970000000  0.4888160000000 1.0
C      1  0.5723810000000  0.5087660000000  0.5139370000000 1.0
C      1  0.5512060000000  0.4770970000000  0.4620140000000 1.0
C      1  0.5434850000000  0.5134960000000  0.5412720000000 1.0
C      1  0.4526400000000  0.4798630000000  0.5345510000000 1.0
C      1  0.4417380000000  0.5219870000000  0.4671000000000 1.0
C      1  0.4940150000000  0.5470650000000  0.5727320000000 1.0
C      1  0.4952190000000  0.4585560000000  0.4365080000000 1.0
C      1  0.5060910000000  0.5479110000000  0.4282890000000 1.0
C      1  0.5061660000000  0.4521230000000  0.5731930000000 1.0
C      1  0.4637470000000  0.5457350000000  0.4436610000000 1.0
C      1  0.4641820000000  0.4586440000000  0.5566150000000 1.0
C      1  0.5286800000000  0.5407010000000  0.5541200000000 1.0
C      1  0.5249220000000  0.4681390000000  0.4494990000000 1.0
C      1  0.4426030000000  0.4088440000000  0.4512000000000 1.0
C      1  0.4387230000000  0.5934560000000  0.5552720000000 1.0
C      1  0.5690330000000  0.4098050000000  0.5463820000000 1.0
C      1  0.5685390000000  0.5853520000000  0.4501140000000 1.0
C      1  0.5436240000000  0.5021880000000  0.4403330000000 1.0
C      1  0.5424030000000  0.4848750000000  0.5568490000000 1.0
C      1  0.4559260000000  0.5071330000000  0.5546040000000 1.0
C      1  0.4555280000000  0.4994790000000  0.4456420000000 1.0
C      1  0.4721980000000  0.4722570000000  0.4574600000000 1.0
C      1  0.4732570000000  0.5357000000000  0.5482920000000 1.0
C      1  0.5215440000000  0.4650370000000  0.5462300000000 1.0
C      1  0.5298390000000  0.5309370000000  0.4457470000000 1.0
C      1  0.4165020000000  0.4490340000000  0.5155740000000 1.0
C      1  0.4144850000000  0.5449040000000  0.4852460000000 1.0
C      1  0.5775100000000  0.4591070000000  0.4886320000000 1.0
C      1  0.5934770000000  0.5493970000000  0.5089030000000 1.0
C      1  0.5281750000000  0.4706840000000  0.5913680000000 1.0
C      1  0.5295010000000  0.5247380000000  0.4062990000000 1.0
C      1  0.4702650000000  0.4785500000000  0.4155690000000 1.0
C      1  0.4685930000000  0.5241590000000  0.5928390000000 1.0
C      1  0.5026570000000  0.4857330000000  0.4668330000000 1.0
C      1  0.5049260000000  0.5259380000000  0.5406540000000 1.0
C      1  0.4907010000000  0.4774260000000  0.5465220000000 1.0
C      1  0.4807230000000  0.5266480000000  0.4598480000000 1.0
C      1  0.5577300000000  0.4390940000000  0.5372430000000 1.0
C      1  0.5713960000000  0.5586770000000  0.4667630000000 1.0
C      1  0.4371740000000  0.4353170000000  0.4642240000000 1.0
C      1  0.4386870000000  0.5636240000000  0.5425280000000 1.0
C      1  0.4089750000000  0.5213200000000  0.5379180000000 1.0
C      1  0.4089590000000  0.4731110000000  0.4626200000000 1.0
C      1  0.5965750000000  0.5296800000000  0.4556510000000 1.0
C      1  0.5898670000000  0.4787250000000  0.5377900000000 1.0
C      1  0.4915700000000  0.5834300000000  0.5433790000000 1.0
C      1  0.4897450000000  0.4152730000000  0.4559600000000 1.0
C      1  0.5225490000000  0.5890810000000  0.4556160000000 1.0
C      1  0.5157710000000  0.4065970000000  0.5401310000000 1.0
C      1  0.5235290000000  0.5754140000000  0.5349680000000 1.0
C      1  0.5232100000000  0.4149490000000  0.4589970000000 1.0
C      1  0.4911900000000  0.5862720000000  0.4561280000000 1.0
C      1  0.4857060000000  0.4102010000000  0.5493900000000 1.0
C      1  0.4437880000000  0.4627610000000  0.5065140000000 1.0
C      1  0.4429800000000  0.5335160000000  0.4991320000000 1.0
C      1  0.5476530000000  0.4680740000000  0.4946150000000 1.0
C      1  0.5680400000000  0.5347740000000  0.4917190000000 1.0
C      1  0.4156200000000  0.5040850000000  0.4546800000000 1.0
C      1  0.4044380000000  0.4925030000000  0.5443670000000 1.0
C      1  0.5876070000000  0.5074060000000  0.5403970000000 1.0
C      1  0.5963270000000  0.5012320000000  0.4582650000000 1.0
C      1  0.5898410000000  0.5524800000000  0.5372160000000 1.0
C      1  0.5854610000000  0.4557560000000  0.4613560000000 1.0
C      1  0.4096990000000  0.5488480000000  0.4578610000000 1.0
C      1  0.4107190000000  0.4467230000000  0.5431860000000 1.0
C      1  0.5344160000000  0.4914980000000  0.4111930000000 1.0
C      1  0.5300850000000  0.5037480000000  0.5823060000000 1.0
C      1  0.4645590000000  0.4927430000000  0.5835570000000 1.0
C      1  0.4705230000000  0.5124610000000  0.4180110000000 1.0
C      1  0.5079590000000  0.5226700000000  0.5111860000000 1.0
C      1  0.5038590000000  0.4684030000000  0.4961450000000 1.0
C      1  0.4867990000000  0.5324900000000  0.4918760000000 1.0
C      1  0.4843800000000  0.4611770000000  0.5190640000000 1.0
C      1  0.4738570000000  0.4926600000000  0.5117080000000 1.0
C      1  0.4670770000000  0.5060420000000  0.4832060000000 1.0
C      1  0.5282120000000  0.5058480000000  0.4767820000000 1.0
C      1  0.5189040000000  0.4953380000000  0.5037360000000 1.0
C      1  0.5112010000000  0.4409150000000  0.4774200000000 1.0
C      1  0.5097000000000  0.5565310000000  0.5139450000000 1.0
C      1  0.4848790000000  0.4292790000000  0.5235960000000 1.0
C      1  0.4862590000000  0.5628850000000  0.4774120000000 1.0
C      1  0.5458680000000  0.4489520000000  0.5735520000000 1.0
C      1  0.5460260000000  0.5499110000000  0.4226320000000 1.0
C      1  0.4555550000000  0.4539930000000  0.4340930000000 1.0
C      1  0.4543940000000  0.5464830000000  0.5746450000000 1.0
C      1  0.4234820000000  0.4546740000000  0.4465480000000 1.0
C      1  0.4329740000000  0.5321320000000  0.5524740000000 1.0
C      1  0.5681340000000  0.4649880000000  0.5534490000000 1.0
C      1  0.5728400000000  0.5397510000000  0.4397600000000 1.0
C      1  0.5470060000000  0.4912450000000  0.5177140000000 1.0
C      1  0.5607880000000  0.5056990000000  0.4759010000000 1.0
C      1  0.4398910000000  0.4859200000000  0.4839130000000 1.0
C      1  0.4438230000000  0.5078940000000  0.5164760000000 1.0
C      1  0.4665270000000  0.5742540000000  0.5589530000000 1.0
C      1  0.4678490000000  0.4232440000000  0.4418300000000 1.0
C      1  0.5427560000000  0.5798290000000  0.4388120000000 1.0
C      1  0.5382530000000  0.4198490000000  0.5574010000000 1.0
C      1  0.4144350000000  0.4705630000000  0.5592850000000 1.0
C      1  0.4184140000000  0.5303010000000  0.4360740000000 1.0
C      1  0.5866030000000  0.4786080000000  0.4434700000000 1.0
C      1  0.5818310000000  0.5305410000000  0.5544500000000 1.0
C      1  0.5332740000000  0.3945200000000  0.4740340000000 1.0
C      1  0.5489660000000  0.5851120000000  0.5305470000000 1.0
C      1  0.4700260000000  0.3887630000000  0.5565960000000 1.0
C      1  0.4757860000000  0.6091890000000  0.4540360000000 1.0
C      1  0.4826990000000  0.4361910000000  0.5652300000000 1.0
C      1  0.4850630000000  0.5629420000000  0.4374390000000 1.0
C      1  0.5207450000000  0.4379610000000  0.4382960000000 1.0
C      1  0.5172050000000  0.5680860000000  0.5660630000000 1.0
C      1  0.4392830000000  0.4733210000000  0.5716590000000 1.0
C      1  0.4443700000000  0.5326030000000  0.4262170000000 1.0
C      1  0.5649740000000  0.4830970000000  0.4249690000000 1.0
C      1  0.5540790000000  0.5257910000000  0.5711510000000 1.0
C      1  0.4971470000000  0.5267700000000  0.4080370000000 1.0
C      1  0.4964780000000  0.4816600000000  0.5857890000000 1.0
C      1  0.5023560000000  0.5208300000000  0.5904180000000 1.0
C      1  0.5022000000000  0.4883690000000  0.4219850000000 1.0
C      1  0.5348560000000  0.4519430000000  0.5200670000000 1.0
C      1  0.5413100000000  0.5440430000000  0.4728300000000 1.0
C      1  0.4588270000000  0.4509280000000  0.4804750000000 1.0
C      1  0.4584540000000  0.5498510000000  0.5211170000000 1.0
C      1  0.5016590000000  0.5119190000000  0.4451690000000 1.0
C      1  0.4952850000000  0.5049360000000  0.5611980000000 1.0
END
