TITL C-3289332-8317-53 0.000683588313135112 125000 -624.777924192317 0 0 118 (C1) n - 1
REM
REM in /nfs/bkarasulu/CARBON/AIRSS/Generating-Clusters/AIREBO/with-SteepDescent/Higher-Symm/SD-CG/HFTN-CG
REM
REM
REM
REM
REM
REM ./C.cell (b20cbc046b6831c77cfcea5457e17084)
REM
REM compiler GCC version 9.2.1 20190827 (Red Hat 9.2.1-1)
REM options -cpp -mtune=generic -march=x86-64 -g -O0 -fpre-include=/usr/include/finclude/math-vector-fortran.h
REM seed -10356418 873880489 2095216625 1624483800 -1323643310 -232608432 -1278288965 -897661540 -89977973 -655885733 1316506572 1645388629 -2121754602 -60724079 2042916489 781779978 1376305294 -1023004195 220920927 -687885717 1831824066 743804827 1985335879 -1933879452 -151687907 509474643 -281401980 -1989085700 453930186 1285657530 -291463969 1687488610 610931701
REM
CELL 1.54180   50.00000   50.00000   50.00000   90.00000   90.00000   90.00000
LATT -1
SFAC C  
C      1  0.3999460000000  0.5201080000000  0.4614650000000 1.0
C      1  0.4413820000000  0.5204090000000  0.5781380000000 1.0
C      1  0.5515540000000  0.5163080000000  0.5809190000000 1.0
C      1  0.5933520000000  0.5100290000000  0.4740680000000 1.0
C      1  0.4965180000000  0.5205390000000  0.4002490000000 1.0
C      1  0.4071600000000  0.4859590000000  0.5331660000000 1.0
C      1  0.4289380000000  0.4844060000000  0.4167270000000 1.0
C      1  0.5439780000000  0.4796070000000  0.4105420000000 1.0
C      1  0.6003830000000  0.4818610000000  0.5297730000000 1.0
C      1  0.5054520000000  0.4934580000000  0.6090780000000 1.0
C      1  0.4987010000000  0.5169130000000  0.5451190000000 1.0
C      1  0.5501540000000  0.5249310000000  0.5172050000000 1.0
C      1  0.5298180000000  0.5230640000000  0.4586590000000 1.0
C      1  0.4780410000000  0.5238460000000  0.4717190000000 1.0
C      1  0.4619280000000  0.5202690000000  0.5085090000000 1.0
C      1  0.5016220000000  0.4801520000000  0.4483710000000 1.0
C      1  0.5505050000000  0.4804260000000  0.4834820000000 1.0
C      1  0.5286480000000  0.4785630000000  0.5347650000000 1.0
C      1  0.4700770000000  0.4819390000000  0.5382230000000 1.0
C      1  0.4593360000000  0.4825570000000  0.4798190000000 1.0
C      1  0.5538350000000  0.4223470000000  0.5241800000000 1.0
C      1  0.5435200000000  0.4190130000000  0.4634370000000 1.0
C      1  0.4710650000000  0.4331020000000  0.4532000000000 1.0
C      1  0.4538740000000  0.4212920000000  0.5113690000000 1.0
C      1  0.4947970000000  0.4369240000000  0.5629280000000 1.0
C      1  0.5489090000000  0.5746950000000  0.4726170000000 1.0
C      1  0.5423070000000  0.5779930000000  0.5434120000000 1.0
C      1  0.4693800000000  0.5714690000000  0.5542500000000 1.0
C      1  0.4438770000000  0.5771490000000  0.4832290000000 1.0
C      1  0.4962000000000  0.5790540000000  0.4434670000000 1.0
C      1  0.5629740000000  0.5502630000000  0.4890430000000 1.0
C      1  0.5156250000000  0.5564740000000  0.4308160000000 1.0
C      1  0.4388000000000  0.5527870000000  0.4640440000000 1.0
C      1  0.4488860000000  0.5502490000000  0.5529870000000 1.0
C      1  0.5227010000000  0.5554320000000  0.5579480000000 1.0
C      1  0.5714220000000  0.4431200000000  0.5096210000000 1.0
C      1  0.5092390000000  0.4548600000000  0.5798600000000 1.0
C      1  0.4444220000000  0.4502610000000  0.5216750000000 1.0
C      1  0.4435290000000  0.4482170000000  0.4520640000000 1.0
C      1  0.5349310000000  0.4416950000000  0.4427010000000 1.0
C      1  0.5685780000000  0.4274600000000  0.4730790000000 1.0
C      1  0.4858170000000  0.4359830000000  0.4293880000000 1.0
C      1  0.4350120000000  0.4279900000000  0.4899450000000 1.0
C      1  0.4675510000000  0.4370230000000  0.5670530000000 1.0
C      1  0.5553370000000  0.4306910000000  0.5509630000000 1.0
C      1  0.5679210000000  0.5704690000000  0.5364460000000 1.0
C      1  0.4850210000000  0.5699110000000  0.5767490000000 1.0
C      1  0.4254430000000  0.5635020000000  0.5015920000000 1.0
C      1  0.4696760000000  0.5724770000000  0.4366340000000 1.0
C      1  0.5445790000000  0.5681150000000  0.4443180000000 1.0
C      1  0.5376260000000  0.5272070000000  0.5601240000000 1.0
C      1  0.5690010000000  0.5273150000000  0.4649210000000 1.0
C      1  0.4910450000000  0.5336390000000  0.4248440000000 1.0
C      1  0.4194820000000  0.5310890000000  0.4791210000000 1.0
C      1  0.4721650000000  0.5326120000000  0.5703990000000 1.0
C      1  0.5449910000000  0.4718620000000  0.4371540000000 1.0
C      1  0.5782880000000  0.4650730000000  0.5345380000000 1.0
C      1  0.4934090000000  0.4779570000000  0.5877660000000 1.0
C      1  0.4206010000000  0.4713060000000  0.5119680000000 1.0
C      1  0.4492280000000  0.4702220000000  0.4275480000000 1.0
C      1  0.5314060000000  0.5403360000000  0.4828610000000 1.0
C      1  0.4890740000000  0.5549020000000  0.4783240000000 1.0
C      1  0.4678920000000  0.5524850000000  0.5031720000000 1.0
C      1  0.4875630000000  0.5454060000000  0.5300580000000 1.0
C      1  0.5272820000000  0.5457450000000  0.5255200000000 1.0
C      1  0.5195690000000  0.4500640000000  0.5002760000000 1.0
C      1  0.4993250000000  0.4664450000000  0.5302300000000 1.0
C      1  0.4689470000000  0.4560440000000  0.4988480000000 1.0
C      1  0.4918540000000  0.4601180000000  0.4740500000000 1.0
C      1  0.5318260000000  0.4556820000000  0.4726500000000 1.0
C      1  0.5165750000000  0.5773030000000  0.5219400000000 1.0
C      1  0.5224440000000  0.5729920000000  0.4907810000000 1.0
C      1  0.4979380000000  0.5856110000000  0.4745600000000 1.0
C      1  0.4725890000000  0.5856620000000  0.4972210000000 1.0
C      1  0.4848620000000  0.5791900000000  0.5273140000000 1.0
C      1  0.5212270000000  0.4147600000000  0.4815780000000 1.0
C      1  0.5261120000000  0.4213830000000  0.5130220000000 1.0
C      1  0.5014050000000  0.4340500000000  0.5319880000000 1.0
C      1  0.4817970000000  0.4195770000000  0.5085820000000 1.0
C      1  0.4909070000000  0.4265460000000  0.4794130000000 1.0
C      1  0.5027080000000  0.5417170000000  0.5817860000000 1.0
C      1  0.5748900000000  0.5463040000000  0.5178840000000 1.0
C      1  0.5495820000000  0.5368050000000  0.4385560000000 1.0
C      1  0.4643110000000  0.5403220000000  0.4453270000000 1.0
C      1  0.4296870000000  0.5317470000000  0.5115540000000 1.0
C      1  0.5097680000000  0.4566550000000  0.4259160000000 1.0
C      1  0.5773670000000  0.4594880000000  0.4804190000000 1.0
C      1  0.5507460000000  0.4630360000000  0.5547980000000 1.0
C      1  0.4504150000000  0.4576940000000  0.5517000000000 1.0
C      1  0.4331410000000  0.4609610000000  0.4818370000000 1.0
C      1  0.4648740000000  0.5153400000000  0.5420240000000 1.0
C      1  0.5285810000000  0.5078620000000  0.5372110000000 1.0
C      1  0.5570670000000  0.5107710000000  0.4908060000000 1.0
C      1  0.4999360000000  0.5143660000000  0.4493760000000 1.0
C      1  0.4464480000000  0.5140100000000  0.4788870000000 1.0
C      1  0.4679800000000  0.4796290000000  0.4486370000000 1.0
C      1  0.5321310000000  0.4921740000000  0.4573900000000 1.0
C      1  0.5509270000000  0.4696260000000  0.5154120000000 1.0
C      1  0.4861890000000  0.4928740000000  0.5660970000000 1.0
C      1  0.4495550000000  0.4883490000000  0.5118680000000 1.0
C      1  0.5324510000000  0.5346470000000  0.4102950000000 1.0
C      1  0.4328780000000  0.5282650000000  0.4404980000000 1.0
C      1  0.4281850000000  0.5339550000000  0.5425210000000 1.0
C      1  0.5164670000000  0.5214880000000  0.5990850000000 1.0
C      1  0.6023550000000  0.5319070000000  0.5175730000000 1.0
C      1  0.5361920000000  0.4653980000000  0.5813720000000 1.0
C      1  0.4262880000000  0.4730560000000  0.5654720000000 1.0
C      1  0.4181750000000  0.4708870000000  0.4526500000000 1.0
C      1  0.5157750000000  0.4717960000000  0.3967160000000 1.0
C      1  0.6001430000000  0.4793190000000  0.4809060000000 1.0
C      1  0.4263070000000  0.5039910000000  0.5541590000000 1.0
C      1  0.6029160000000  0.5025400000000  0.5058260000000 1.0
C      1  0.5365590000000  0.4931030000000  0.5968680000000 1.0
C      1  0.5241620000000  0.5042130000000  0.4030030000000 1.0
C      1  0.4143820000000  0.5009900000000  0.4399700000000 1.0
C      1  0.5011930000000  0.4787000000000  0.5002590000000 1.0
C      1  0.5045470000000  0.5365430000000  0.5019680000000 1.0
C      1  0.4911820000000  0.5062770000000  0.4982370000000 1.0
END
