TITL C-3289327-5623-485 -615.753059287032 125000 -393.748169343808 0 0 72 (C1) n - 1
REM
REM in /nfs/bkarasulu/CARBON/AIRSS/Generating-Clusters/AIREBO/with-SteepDescent/Higher-Symm/SD-CG/HFTN-CG
REM
REM
REM
REM
REM
REM ./C.cell (b20cbc046b6831c77cfcea5457e17084)
REM
REM compiler GCC version 9.2.1 20190827 (Red Hat 9.2.1-1)
REM options -cpp -mtune=generic -march=x86-64 -g -O0 -fpre-include=/usr/include/finclude/math-vector-fortran.h
REM seed -1413635861 -1015309039 499268522 -1098966338 -1927456232 1607093405 1006197485 -1019447108 -2073417165 789517627 -885020270 -1876010715 -751690037 215052079 -1735609066 -1620793919 770830190 1186227700 574404259 86442333 987404311 -1015370314 1655592550 79781293 -1479109402 -1814269698 1040683449 -1597749260 1254415074 62108774 2115948105 -1596056141 96936818
REM
CELL 1.54180   50.00000   50.00000   50.00000   90.00000   90.00000   90.00000
LATT -1
SFAC C  
C      1  0.4672880000000  0.4521680000000  0.4970320000000 1.0
C      1  0.5501840000000  0.5571430000000  0.4997980000000 1.0
C      1  0.4765380000000  0.4295360000000  0.4656540000000 1.0
C      1  0.5195200000000  0.5577790000000  0.5425690000000 1.0
C      1  0.5116300000000  0.5222360000000  0.4669700000000 1.0
C      1  0.5032720000000  0.4562130000000  0.5436240000000 1.0
C      1  0.5574270000000  0.4582690000000  0.4651740000000 1.0
C      1  0.3802470000000  0.5792700000000  0.5083670000000 1.0
C      1  0.5110220000000  0.5047420000000  0.4182980000000 1.0
C      1  0.5064120000000  0.4830580000000  0.5730780000000 1.0
C      1  0.4777190000000  0.5551300000000  0.4860110000000 1.0
C      1  0.5212710000000  0.4487770000000  0.4984750000000 1.0
C      1  0.5070580000000  0.4262550000000  0.4773230000000 1.0
C      1  0.4794790000000  0.5712230000000  0.5137450000000 1.0
C      1  0.4487750000000  0.4595250000000  0.5227980000000 1.0
C      1  0.5387810000000  0.5373780000000  0.4807790000000 1.0
C      1  0.4406660000000  0.5009950000000  0.4809820000000 1.0
C      1  0.5579300000000  0.5137270000000  0.5268240000000 1.0
C      1  0.5751870000000  0.4862870000000  0.5321350000000 1.0
C      1  0.4251570000000  0.5277780000000  0.4837450000000 1.0
C      1  0.5179080000000  0.4544600000000  0.5742630000000 1.0
C      1  0.5146390000000  0.5294540000000  0.4340080000000 1.0
C      1  0.5308720000000  0.4833430000000  0.4319980000000 1.0
C      1  0.4772790000000  0.5000630000000  0.5739080000000 1.0
C      1  0.4754110000000  0.4751630000000  0.5481930000000 1.0
C      1  0.5223920000000  0.4909490000000  0.4633860000000 1.0
C      1  0.5303220000000  0.4650360000000  0.5245920000000 1.0
C      1  0.4821780000000  0.5277390000000  0.4748130000000 1.0
C      1  0.4542170000000  0.4508600000000  0.5538410000000 1.0
C      1  0.5376220000000  0.5475940000000  0.4509840000000 1.0
C      1  0.5025960000000  0.4669650000000  0.4268510000000 1.0
C      1  0.5057950000000  0.5175110000000  0.5667280000000 1.0
C      1  0.4507400000000  0.5643580000000  0.4994630000000 1.0
C      1  0.5373650000000  0.4390820000000  0.4703170000000 1.0
C      1  0.4601900000000  0.4593350000000  0.4645520000000 1.0
C      1  0.5274220000000  0.5369860000000  0.5613890000000 1.0
C      1  0.4824790000000  0.5307470000000  0.5351500000000 1.0
C      1  0.5077130000000  0.4677910000000  0.4748350000000 1.0
C      1  0.5217860000000  0.5621670000000  0.4275420000000 1.0
C      1  0.5012730000000  0.4279770000000  0.5607930000000 1.0
C      1  0.4922510000000  0.5568700000000  0.5343840000000 1.0
C      1  0.4963760000000  0.4522970000000  0.4500100000000 1.0
C      1  0.5618180000000  0.4745830000000  0.4886620000000 1.0
C      1  0.4023390000000  0.5660880000000  0.5033550000000 1.0
C      1  0.5831640000000  0.5289940000000  0.5145640000000 1.0
C      1  0.4208080000000  0.4749350000000  0.4847030000000 1.0
C      1  0.5712870000000  0.5005740000000  0.5618430000000 1.0
C      1  0.4646160000000  0.4994450000000  0.4380400000000 1.0
C      1  0.4278850000000  0.4520880000000  0.4979590000000 1.0
C      1  0.5777270000000  0.5532020000000  0.5031530000000 1.0
C      1  0.5629480000000  0.4671450000000  0.5157670000000 1.0
C      1  0.4255700000000  0.5533020000000  0.4955820000000 1.0
C      1  0.4845410000000  0.4765430000000  0.4908670000000 1.0
C      1  0.4991260000000  0.5102960000000  0.5145040000000 1.0
C      1  0.4589190000000  0.5483340000000  0.4345090000000 1.0
C      1  0.5429100000000  0.4606450000000  0.5558770000000 1.0
C      1  0.4702390000000  0.5050720000000  0.4973300000000 1.0
C      1  0.5302120000000  0.4981150000000  0.5147010000000 1.0
C      1  0.4676360000000  0.5258340000000  0.4474780000000 1.0
C      1  0.5641220000000  0.4721260000000  0.5677560000000 1.0
C      1  0.5666500000000  0.5025780000000  0.4583570000000 1.0
C      1  0.4377930000000  0.5124740000000  0.5422530000000 1.0
C      1  0.5453110000000  0.5040700000000  0.4848050000000 1.0
C      1  0.4561980000000  0.4916400000000  0.5252590000000 1.0
C      1  0.4472620000000  0.4281970000000  0.4834740000000 1.0
C      1  0.5365540000000  0.5669150000000  0.5221040000000 1.0
C      1  0.5515670000000  0.5241950000000  0.5570380000000 1.0
C      1  0.4506490000000  0.4835810000000  0.4563140000000 1.0
C      1  0.4642730000000  0.5194590000000  0.5527440000000 1.0
C      1  0.5584850000000  0.4786250000000  0.4443340000000 1.0
C      1  0.5013060000000  0.4963710000000  0.5422120000000 1.0
C      1  0.4836930000000  0.4903390000000  0.4190760000000 1.0
END
