TITL C-3289320-4661-716 -0.00193433000004825 125000 -520.147211440316 0 0 94 (C1) n - 1
REM
REM in /nfs/bkarasulu/CARBON/AIRSS/Generating-Clusters/AIREBO/with-SteepDescent/Higher-Symm/SD-CG/HFTN-CG
REM
REM
REM
REM
REM
REM ./C.cell (b20cbc046b6831c77cfcea5457e17084)
REM
REM compiler GCC version 9.2.1 20190827 (Red Hat 9.2.1-1)
REM options -cpp -mtune=generic -march=x86-64 -g -O0 -fpre-include=/usr/include/finclude/math-vector-fortran.h
REM seed 318138094 -1737671050 -1209994802 908071613 -120965134 1870173804 -782324059 -543808497 -1456768080 -1531356362 -14046970 -11119874 965250456 1181186439 -1265755659 1183920618 516684334 1542391712 1675867604 -807593807 145183251 528368514 -1110875363 270638236 1568683847 -429805685 18139706 -1912595418 1976517877 -756121009 1436007780 261252209 714013733
REM
CELL 1.54180   50.00000   50.00000   50.00000   90.00000   90.00000   90.00000
LATT -1
SFAC C  
C      1  0.4605070000000  0.4775070000000  0.4994280000000 1.0
C      1  0.5286730000000  0.5231060000000  0.4463380000000 1.0
C      1  0.4252710000000  0.5029820000000  0.5480020000000 1.0
C      1  0.4159500000000  0.5476690000000  0.5296290000000 1.0
C      1  0.4867700000000  0.4302220000000  0.4626080000000 1.0
C      1  0.4376080000000  0.4944110000000  0.5180420000000 1.0
C      1  0.5039620000000  0.4302530000000  0.5398940000000 1.0
C      1  0.4897720000000  0.5307680000000  0.4191400000000 1.0
C      1  0.4950820000000  0.4471260000000  0.5141960000000 1.0
C      1  0.4420130000000  0.5267340000000  0.5637960000000 1.0
C      1  0.5475300000000  0.4267920000000  0.5215570000000 1.0
C      1  0.4422660000000  0.4337050000000  0.5534180000000 1.0
C      1  0.4094000000000  0.5211740000000  0.5268330000000 1.0
C      1  0.4916230000000  0.5356690000000  0.4533340000000 1.0
C      1  0.4445750000000  0.4523180000000  0.4551610000000 1.0
C      1  0.4764070000000  0.4971320000000  0.5811930000000 1.0
C      1  0.5907000000000  0.4906680000000  0.4898970000000 1.0
C      1  0.4212280000000  0.5217540000000  0.4639660000000 1.0
C      1  0.5389390000000  0.5449240000000  0.4223650000000 1.0
C      1  0.4479210000000  0.4874450000000  0.5653250000000 1.0
C      1  0.4980630000000  0.4979770000000  0.4226060000000 1.0
C      1  0.5581560000000  0.5246620000000  0.5594720000000 1.0
C      1  0.5717090000000  0.5582540000000  0.5062480000000 1.0
C      1  0.4987370000000  0.4159960000000  0.4876890000000 1.0
C      1  0.5848860000000  0.4704390000000  0.5158110000000 1.0
C      1  0.4863270000000  0.5230850000000  0.5841180000000 1.0
C      1  0.5122510000000  0.3956640000000  0.5090500000000 1.0
C      1  0.5615590000000  0.5042390000000  0.4352260000000 1.0
C      1  0.5404890000000  0.5404910000000  0.5390740000000 1.0
C      1  0.4658270000000  0.5318190000000  0.5510900000000 1.0
C      1  0.5713880000000  0.5220070000000  0.4597090000000 1.0
C      1  0.5278150000000  0.4409090000000  0.5849310000000 1.0
C      1  0.5206360000000  0.5562720000000  0.5164110000000 1.0
C      1  0.5270400000000  0.4645040000000  0.4983490000000 1.0
C      1  0.5002980000000  0.4582930000000  0.4568290000000 1.0
C      1  0.5232450000000  0.4114830000000  0.5304130000000 1.0
C      1  0.5301360000000  0.4662930000000  0.4439210000000 1.0
C      1  0.5099870000000  0.4883810000000  0.4811670000000 1.0
C      1  0.5288850000000  0.4954340000000  0.4317960000000 1.0
C      1  0.5575250000000  0.4696580000000  0.4956360000000 1.0
C      1  0.5636000000000  0.5303380000000  0.4893920000000 1.0
C      1  0.4876330000000  0.4647750000000  0.4877540000000 1.0
C      1  0.5261270000000  0.4305440000000  0.4953960000000 1.0
C      1  0.4353490000000  0.4617620000000  0.4828320000000 1.0
C      1  0.5346400000000  0.4949910000000  0.5229020000000 1.0
C      1  0.5318870000000  0.5818430000000  0.4750890000000 1.0
C      1  0.5360020000000  0.5797490000000  0.5445440000000 1.0
C      1  0.4544680000000  0.4728820000000  0.4395710000000 1.0
C      1  0.4025320000000  0.5081610000000  0.5035490000000 1.0
C      1  0.4715400000000  0.4301810000000  0.4995520000000 1.0
C      1  0.4570170000000  0.5063680000000  0.4722830000000 1.0
C      1  0.5632610000000  0.4488790000000  0.4735360000000 1.0
C      1  0.5573920000000  0.5658420000000  0.5281620000000 1.0
C      1  0.4597070000000  0.5325710000000  0.4895770000000 1.0
C      1  0.5352900000000  0.5452470000000  0.4907560000000 1.0
C      1  0.4737500000000  0.4816520000000  0.5448850000000 1.0
C      1  0.5132520000000  0.5796220000000  0.4955700000000 1.0
C      1  0.4767670000000  0.4994570000000  0.5196890000000 1.0
C      1  0.4454570000000  0.5577210000000  0.5289220000000 1.0
C      1  0.5188690000000  0.4658080000000  0.5304840000000 1.0
C      1  0.4825960000000  0.4728450000000  0.4354200000000 1.0
C      1  0.4605910000000  0.4288640000000  0.4549400000000 1.0
C      1  0.5193140000000  0.5202890000000  0.4776480000000 1.0
C      1  0.4743070000000  0.5736280000000  0.5383990000000 1.0
C      1  0.5209920000000  0.4984880000000  0.5602000000000 1.0
C      1  0.4874770000000  0.5028710000000  0.4613290000000 1.0
C      1  0.4621400000000  0.5296080000000  0.5194930000000 1.0
C      1  0.4276000000000  0.4948120000000  0.4848340000000 1.0
C      1  0.5287950000000  0.5544800000000  0.4592900000000 1.0
C      1  0.5134130000000  0.4517900000000  0.5609950000000 1.0
C      1  0.4682760000000  0.5099650000000  0.4341540000000 1.0
C      1  0.5608000000000  0.4794480000000  0.5380730000000 1.0
C      1  0.4456010000000  0.4375170000000  0.5013310000000 1.0
C      1  0.5633650000000  0.4475000000000  0.5284010000000 1.0
C      1  0.5630350000000  0.5022270000000  0.5053920000000 1.0
C      1  0.5572730000000  0.4587370000000  0.4482810000000 1.0
C      1  0.4870870000000  0.5437780000000  0.4815590000000 1.0
C      1  0.5091090000000  0.5544120000000  0.4315100000000 1.0
C      1  0.4981900000000  0.5210380000000  0.5043050000000 1.0
C      1  0.4391040000000  0.5011600000000  0.4438520000000 1.0
C      1  0.4960470000000  0.5385470000000  0.5560750000000 1.0
C      1  0.4408220000000  0.5730580000000  0.4721490000000 1.0
C      1  0.5894200000000  0.4963090000000  0.4624720000000 1.0
C      1  0.4512880000000  0.4573610000000  0.5532110000000 1.0
C      1  0.4615810000000  0.5839750000000  0.4891580000000 1.0
C      1  0.4989860000000  0.4789300000000  0.5650670000000 1.0
C      1  0.4874600000000  0.5732770000000  0.4863220000000 1.0
C      1  0.4360800000000  0.5449350000000  0.4732420000000 1.0
C      1  0.5498070000000  0.4982520000000  0.5605580000000 1.0
C      1  0.5534300000000  0.4243460000000  0.4805010000000 1.0
C      1  0.5141100000000  0.5195520000000  0.5344070000000 1.0
C      1  0.5044240000000  0.5669410000000  0.5435420000000 1.0
C      1  0.5767630000000  0.4780630000000  0.4395110000000 1.0
C      1  0.4550220000000  0.5863840000000  0.5162620000000 1.0
END
