TITL C-3289322-3858-169 3.89151436064486e-05 125000 -227.857550385918 0 0 43 (C1) n - 1
REM
REM in /nfs/bkarasulu/CARBON/AIRSS/Generating-Clusters/AIREBO/with-SteepDescent/Higher-Symm/SD-CG/HFTN-CG
REM
REM
REM
REM
REM
REM ./C.cell (b20cbc046b6831c77cfcea5457e17084)
REM
REM compiler GCC version 9.2.1 20190827 (Red Hat 9.2.1-1)
REM options -cpp -mtune=generic -march=x86-64 -g -O0 -fpre-include=/usr/include/finclude/math-vector-fortran.h
REM seed -1686495614 1767359818 132782259 -1485043767 35214363 2055380901 1772921244 737930855 1544440802 -334140458 -835128905 -874972720 -1266254455 -642789973 -1169308540 2050365829 1100885971 1863461043 -1559503205 506943808 -1624602589 -84647645 -1723170155 777831685 -1028139315 1096634163 2026410305 341640696 1248108569 -1176162633 282130477 619859410 1223817412
REM
CELL 1.54180   50.00000   50.00000   50.00000   90.00000   90.00000   90.00000
LATT -1
SFAC C  
C      1  0.4888510000000  0.5404320000000  0.4542010000000 1.0
C      1  0.4493460000000  0.4803360000000  0.5387650000000 1.0
C      1  0.5409270000000  0.4827650000000  0.5303610000000 1.0
C      1  0.5210500000000  0.4421150000000  0.5310100000000 1.0
C      1  0.5110860000000  0.4453390000000  0.5009270000000 1.0
C      1  0.5027950000000  0.5075490000000  0.4720490000000 1.0
C      1  0.4569080000000  0.5143080000000  0.5191170000000 1.0
C      1  0.4646150000000  0.5000080000000  0.4806090000000 1.0
C      1  0.4884040000000  0.5267990000000  0.5402720000000 1.0
C      1  0.4858110000000  0.4794210000000  0.4316800000000 1.0
C      1  0.5557810000000  0.5167340000000  0.4877510000000 1.0
C      1  0.5117590000000  0.4832200000000  0.5128950000000 1.0
C      1  0.4621890000000  0.5087150000000  0.5522410000000 1.0
C      1  0.5652480000000  0.4967990000000  0.5136310000000 1.0
C      1  0.4946520000000  0.5554030000000  0.5262610000000 1.0
C      1  0.4916820000000  0.4802810000000  0.4855900000000 1.0
C      1  0.4527880000000  0.4633100000000  0.5141960000000 1.0
C      1  0.4685940000000  0.5282350000000  0.4721950000000 1.0
C      1  0.5327750000000  0.5255500000000  0.5073440000000 1.0
C      1  0.5186100000000  0.4683370000000  0.5509950000000 1.0
C      1  0.5049040000000  0.5286010000000  0.4941340000000 1.0
C      1  0.4934050000000  0.4938450000000  0.5333160000000 1.0
C      1  0.5060760000000  0.5588750000000  0.4681380000000 1.0
C      1  0.5339810000000  0.5587940000000  0.4609510000000 1.0
C      1  0.5125140000000  0.4969530000000  0.5703340000000 1.0
C      1  0.4978950000000  0.5616160000000  0.4978920000000 1.0
C      1  0.5197460000000  0.5159850000000  0.4437790000000 1.0
C      1  0.4946900000000  0.4422700000000  0.4712270000000 1.0
C      1  0.5347450000000  0.5141250000000  0.5327100000000 1.0
C      1  0.4851990000000  0.4733880000000  0.5549320000000 1.0
C      1  0.4876620000000  0.5087290000000  0.4419250000000 1.0
C      1  0.5168230000000  0.5192420000000  0.5531410000000 1.0
C      1  0.4776690000000  0.4469370000000  0.5026520000000 1.0
C      1  0.4911290000000  0.4580170000000  0.4433750000000 1.0
C      1  0.5302540000000  0.4702220000000  0.4879120000000 1.0
C      1  0.5513510000000  0.4846860000000  0.4784180000000 1.0
C      1  0.4393170000000  0.4696830000000  0.4771170000000 1.0
C      1  0.4403660000000  0.4924670000000  0.5018800000000 1.0
C      1  0.4662400000000  0.4605920000000  0.4745350000000 1.0
C      1  0.4811770000000  0.4959610000000  0.5774150000000 1.0
C      1  0.5588110000000  0.5374820000000  0.4669710000000 1.0
C      1  0.5398920000000  0.5340240000000  0.4418930000000 1.0
C      1  0.4722840000000  0.5318490000000  0.5032660000000 1.0
END
