TITL C-3289320-4661-148 0.00126903635052909 125000 -774.616602602785 0 0 146 (C1) n - 1
REM
REM in /nfs/bkarasulu/CARBON/AIRSS/Generating-Clusters/AIREBO/with-SteepDescent/Higher-Symm/SD-CG/HFTN-CG
REM
REM
REM
REM
REM
REM ./C.cell (b20cbc046b6831c77cfcea5457e17084)
REM
REM compiler GCC version 9.2.1 20190827 (Red Hat 9.2.1-1)
REM options -cpp -mtune=generic -march=x86-64 -g -O0 -fpre-include=/usr/include/finclude/math-vector-fortran.h
REM seed 315001730 200515892 484461267 -1811647966 101095494 -2095395680 -1076552248 -1363015977 446965359 -360918528 1876101594 -1433016532 1811028344 1773519794 -435721673 -1450567988 274709811 -583800005 947824107 -1826020001 90431890 -1775958561 -582957846 1379128128 2035363987 1681827129 401296000 1696369019 514500374 1926123141 815745229 539082600 -1868217965
REM
CELL 1.54180   50.00000   50.00000   50.00000   90.00000   90.00000   90.00000
LATT -1
SFAC C  
C      1  0.4844580000000  0.5799680000000  0.5777960000000 1.0
C      1  0.5359960000000  0.4422610000000  0.5499280000000 1.0
C      1  0.5706550000000  0.5494380000000  0.4897210000000 1.0
C      1  0.5343760000000  0.4325410000000  0.4301640000000 1.0
C      1  0.4617310000000  0.5397470000000  0.4628860000000 1.0
C      1  0.4240240000000  0.4451760000000  0.5168230000000 1.0
C      1  0.4233210000000  0.5143820000000  0.5698430000000 1.0
C      1  0.5199790000000  0.4814020000000  0.6069500000000 1.0
C      1  0.5965410000000  0.5159900000000  0.5456020000000 1.0
C      1  0.5744870000000  0.4802440000000  0.4333440000000 1.0
C      1  0.4854410000000  0.5120780000000  0.3942250000000 1.0
C      1  0.4005020000000  0.4799310000000  0.4626250000000 1.0
C      1  0.4231840000000  0.5529720000000  0.4662610000000 1.0
C      1  0.4300240000000  0.4518060000000  0.5586580000000 1.0
C      1  0.5025690000000  0.5549970000000  0.5867160000000 1.0
C      1  0.5670220000000  0.4493760000000  0.5417300000000 1.0
C      1  0.5726530000000  0.5492770000000  0.4557100000000 1.0
C      1  0.5102770000000  0.4393900000000  0.4070900000000 1.0
C      1  0.4312030000000  0.4737040000000  0.4379780000000 1.0
C      1  0.4224150000000  0.5098030000000  0.5308550000000 1.0
C      1  0.4854350000000  0.4898990000000  0.5890080000000 1.0
C      1  0.5639420000000  0.5279350000000  0.5651770000000 1.0
C      1  0.5725080000000  0.4860180000000  0.4725180000000 1.0
C      1  0.5192410000000  0.5282210000000  0.4079300000000 1.0
C      1  0.4991610000000  0.4516490000000  0.5376040000000 1.0
C      1  0.5341640000000  0.5426850000000  0.5169540000000 1.0
C      1  0.5244770000000  0.4479240000000  0.4863420000000 1.0
C      1  0.5000360000000  0.5499220000000  0.4657800000000 1.0
C      1  0.4680200000000  0.4582700000000  0.4814530000000 1.0
C      1  0.4689190000000  0.5527470000000  0.5195020000000 1.0
C      1  0.4245550000000  0.5278860000000  0.4544890000000 1.0
C      1  0.4282000000000  0.4792470000000  0.5446060000000 1.0
C      1  0.4949750000000  0.5222480000000  0.5840870000000 1.0
C      1  0.5813980000000  0.4701830000000  0.5577010000000 1.0
C      1  0.5671280000000  0.5186270000000  0.4644970000000 1.0
C      1  0.5071580000000  0.4672510000000  0.3970630000000 1.0
C      1  0.4252300000000  0.4387910000000  0.4774850000000 1.0
C      1  0.4391040000000  0.5624700000000  0.5584480000000 1.0
C      1  0.5217080000000  0.4488340000000  0.5846510000000 1.0
C      1  0.5773810000000  0.5619620000000  0.5270130000000 1.0
C      1  0.5641680000000  0.4314490000000  0.4386840000000 1.0
C      1  0.4677160000000  0.5598870000000  0.4138390000000 1.0
C      1  0.4801220000000  0.4938780000000  0.4967880000000 1.0
C      1  0.4814460000000  0.5153870000000  0.5220300000000 1.0
C      1  0.5060370000000  0.4931460000000  0.5295970000000 1.0
C      1  0.5185340000000  0.5089850000000  0.5021980000000 1.0
C      1  0.5177100000000  0.4783700000000  0.4614400000000 1.0
C      1  0.5015040000000  0.5054010000000  0.4729730000000 1.0
C      1  0.5186910000000  0.4168160000000  0.5394080000000 1.0
C      1  0.5498510000000  0.5747240000000  0.4989780000000 1.0
C      1  0.5215760000000  0.4110730000000  0.4532660000000 1.0
C      1  0.4743410000000  0.5933590000000  0.4640130000000 1.0
C      1  0.4408490000000  0.4211720000000  0.4995090000000 1.0
C      1  0.4787190000000  0.5904020000000  0.5477110000000 1.0
C      1  0.5964150000000  0.5277470000000  0.4965030000000 1.0
C      1  0.5316270000000  0.4829540000000  0.3944480000000 1.0
C      1  0.4376970000000  0.5201010000000  0.4309880000000 1.0
C      1  0.3977900000000  0.4645560000000  0.5216110000000 1.0
C      1  0.4543440000000  0.5280620000000  0.5977280000000 1.0
C      1  0.5637620000000  0.4812500000000  0.5759340000000 1.0
C      1  0.4962550000000  0.4468500000000  0.4730860000000 1.0
C      1  0.4793110000000  0.5463120000000  0.4900540000000 1.0
C      1  0.4815240000000  0.4643180000000  0.5112810000000 1.0
C      1  0.5027890000000  0.5534290000000  0.5214310000000 1.0
C      1  0.5190990000000  0.4509290000000  0.5142680000000 1.0
C      1  0.5242690000000  0.5384800000000  0.4861890000000 1.0
C      1  0.4566020000000  0.4741800000000  0.4569920000000 1.0
C      1  0.4514760000000  0.5274650000000  0.5306500000000 1.0
C      1  0.5009060000000  0.4730960000000  0.5637220000000 1.0
C      1  0.5457650000000  0.5235350000000  0.5394310000000 1.0
C      1  0.5428750000000  0.4722320000000  0.4780700000000 1.0
C      1  0.5008140000000  0.5333810000000  0.4360770000000 1.0
C      1  0.4994820000000  0.5796100000000  0.4537590000000 1.0
C      1  0.4624310000000  0.4256590000000  0.4736170000000 1.0
C      1  0.4575700000000  0.5809160000000  0.5274640000000 1.0
C      1  0.4878550000000  0.4223540000000  0.5459500000000 1.0
C      1  0.5384470000000  0.5729880000000  0.5286200000000 1.0
C      1  0.5379840000000  0.4212810000000  0.4775510000000 1.0
C      1  0.5340820000000  0.4768470000000  0.5698530000000 1.0
C      1  0.5751970000000  0.5282570000000  0.5230730000000 1.0
C      1  0.5449030000000  0.4782420000000  0.4197980000000 1.0
C      1  0.4683090000000  0.5291370000000  0.4258590000000 1.0
C      1  0.4299060000000  0.4717170000000  0.4779040000000 1.0
C      1  0.4521250000000  0.5316420000000  0.5644660000000 1.0
C      1  0.4254920000000  0.5559330000000  0.4979200000000 1.0
C      1  0.4627090000000  0.4470910000000  0.5667530000000 1.0
C      1  0.5313690000000  0.5609350000000  0.5686990000000 1.0
C      1  0.5768670000000  0.4531110000000  0.4947990000000 1.0
C      1  0.5278820000000  0.5623780000000  0.4316210000000 1.0
C      1  0.4613570000000  0.4430000000000  0.4287090000000 1.0
C      1  0.4276240000000  0.5647900000000  0.5265280000000 1.0
C      1  0.4907330000000  0.4368180000000  0.5766170000000 1.0
C      1  0.5588920000000  0.5668070000000  0.5550980000000 1.0
C      1  0.5676640000000  0.4302470000000  0.4720930000000 1.0
C      1  0.4985150000000  0.5703220000000  0.4210580000000 1.0
C      1  0.4419640000000  0.4350130000000  0.4481290000000 1.0
C      1  0.5680380000000  0.5081570000000  0.5830650000000 1.0
C      1  0.5983580000000  0.5031060000000  0.4839690000000 1.0
C      1  0.5292940000000  0.5106610000000  0.3902950000000 1.0
C      1  0.4295610000000  0.4948880000000  0.4214500000000 1.0
C      1  0.3966760000000  0.4898920000000  0.5226700000000 1.0
C      1  0.4653970000000  0.5072160000000  0.6063980000000 1.0
C      1  0.4780340000000  0.4834120000000  0.4346240000000 1.0
C      1  0.4478220000000  0.5028760000000  0.4951730000000 1.0
C      1  0.4775200000000  0.4839990000000  0.5457890000000 1.0
C      1  0.5205900000000  0.5115290000000  0.5537800000000 1.0
C      1  0.5458010000000  0.4921050000000  0.5034710000000 1.0
C      1  0.5255550000000  0.5170800000000  0.4519400000000 1.0
C      1  0.5780990000000  0.4578070000000  0.4551330000000 1.0
C      1  0.4929380000000  0.5449570000000  0.3987560000000 1.0
C      1  0.4116760000000  0.4507930000000  0.4491240000000 1.0
C      1  0.4170590000000  0.5392790000000  0.5469450000000 1.0
C      1  0.4952150000000  0.4601000000000  0.6010060000000 1.0
C      1  0.5871900000000  0.5473010000000  0.5560540000000 1.0
C      1  0.4220230000000  0.5046400000000  0.4730850000000 1.0
C      1  0.4515750000000  0.4982930000000  0.5577930000000 1.0
C      1  0.5223800000000  0.5042650000000  0.5862050000000 1.0
C      1  0.6006880000000  0.4897280000000  0.5499570000000 1.0
C      1  0.5494170000000  0.5002760000000  0.4432460000000 1.0
C      1  0.4872200000000  0.4867670000000  0.4053090000000 1.0
C      1  0.5129610000000  0.5866170000000  0.5653390000000 1.0
C      1  0.5511140000000  0.4220210000000  0.5277600000000 1.0
C      1  0.5542010000000  0.5767690000000  0.4660740000000 1.0
C      1  0.4967750000000  0.4200420000000  0.4319740000000 1.0
C      1  0.4508830000000  0.5708310000000  0.4711320000000 1.0
C      1  0.4444030000000  0.4281540000000  0.5380660000000 1.0
C      1  0.4603470000000  0.4579880000000  0.5346270000000 1.0
C      1  0.5126220000000  0.5428630000000  0.5504020000000 1.0
C      1  0.5570900000000  0.4629410000000  0.5140620000000 1.0
C      1  0.5386900000000  0.5479420000000  0.4568630000000 1.0
C      1  0.4917060000000  0.4527270000000  0.4398840000000 1.0
C      1  0.4476500000000  0.5339450000000  0.4914180000000 1.0
C      1  0.4342100000000  0.4771250000000  0.5111970000000 1.0
C      1  0.4841050000000  0.5277920000000  0.5535780000000 1.0
C      1  0.5328040000000  0.4731500000000  0.5360590000000 1.0
C      1  0.5576290000000  0.5185850000000  0.4956030000000 1.0
C      1  0.5240150000000  0.4626020000000  0.4360450000000 1.0
C      1  0.4741230000000  0.5098800000000  0.4532840000000 1.0
C      1  0.5228220000000  0.5817640000000  0.4781750000000 1.0
C      1  0.4886020000000  0.4091620000000  0.4631400000000 1.0
C      1  0.4689380000000  0.5851460000000  0.4961850000000 1.0
C      1  0.4704690000000  0.4237740000000  0.5166510000000 1.0
C      1  0.5098940000000  0.5909670000000  0.5332590000000 1.0
C      1  0.5261040000000  0.4123210000000  0.5066500000000 1.0
C      1  0.4960220000000  0.4203570000000  0.4944240000000 1.0
C      1  0.5007150000000  0.5801390000000  0.5028670000000 1.0
END
