TITL C-3289324-3781-225 0.000248967753835403 125000 -472.962506136303 0 0 89 (C1) n - 1
REM
REM in /nfs/bkarasulu/CARBON/AIRSS/Generating-Clusters/AIREBO/with-SteepDescent/Higher-Symm/SD-CG/HFTN-CG
REM
REM
REM
REM
REM
REM ./C.cell (b20cbc046b6831c77cfcea5457e17084)
REM
REM compiler GCC version 9.2.1 20190827 (Red Hat 9.2.1-1)
REM options -cpp -mtune=generic -march=x86-64 -g -O0 -fpre-include=/usr/include/finclude/math-vector-fortran.h
REM seed -1831091377 -2140029292 1043339618 1613705061 -1198117452 -1589133340 1954828917 -1285724860 -1101716916 -2119403288 -440624894 -1126066107 -532667736 1814757317 1084900180 -1542188252 -2107366529 -1676030409 -1820260589 -2073434336 1842080722 -1718627782 486438265 803779760 101130760 -318464652 1358007968 1511672810 -1112375813 124384740 -2019924994 -2123555320 -1742280278
REM
CELL 1.54180   50.00000   50.00000   50.00000   90.00000   90.00000   90.00000
LATT -1
SFAC C  
C      1  0.4614850000000  0.4411360000000  0.4512990000000 1.0
C      1  0.4744610000000  0.5545640000000  0.5486850000000 1.0
C      1  0.4750140000000  0.4447880000000  0.5505350000000 1.0
C      1  0.4717480000000  0.5549400000000  0.4480900000000 1.0
C      1  0.4678950000000  0.4457050000000  0.4838930000000 1.0
C      1  0.4740820000000  0.5502800000000  0.5149670000000 1.0
C      1  0.4707830000000  0.4497890000000  0.5170690000000 1.0
C      1  0.4732040000000  0.5536540000000  0.4822500000000 1.0
C      1  0.5007780000000  0.4509380000000  0.5689600000000 1.0
C      1  0.4969230000000  0.5441320000000  0.4278510000000 1.0
C      1  0.4871260000000  0.4449340000000  0.4396540000000 1.0
C      1  0.4998200000000  0.5438940000000  0.5686680000000 1.0
C      1  0.5708730000000  0.4810420000000  0.5464590000000 1.0
C      1  0.5712720000000  0.5166550000000  0.4578790000000 1.0
C      1  0.5727680000000  0.4858450000000  0.4540770000000 1.0
C      1  0.5721560000000  0.5122840000000  0.5457720000000 1.0
C      1  0.4097920000000  0.4914870000000  0.5369240000000 1.0
C      1  0.4090710000000  0.5053300000000  0.4727140000000 1.0
C      1  0.4144440000000  0.4841200000000  0.4601110000000 1.0
C      1  0.4071800000000  0.5159320000000  0.5309860000000 1.0
C      1  0.5228390000000  0.4862200000000  0.5330690000000 1.0
C      1  0.5306000000000  0.5103880000000  0.4692390000000 1.0
C      1  0.5219540000000  0.4773570000000  0.4645700000000 1.0
C      1  0.5301780000000  0.5147050000000  0.5303340000000 1.0
C      1  0.4317020000000  0.5258940000000  0.4834030000000 1.0
C      1  0.4349710000000  0.4740570000000  0.5263870000000 1.0
C      1  0.4322720000000  0.5314570000000  0.5171870000000 1.0
C      1  0.4320170000000  0.4691320000000  0.4927060000000 1.0
C      1  0.5800470000000  0.5258810000000  0.4867320000000 1.0
C      1  0.5800830000000  0.4790480000000  0.5136380000000 1.0
C      1  0.5845690000000  0.5229830000000  0.5187520000000 1.0
C      1  0.5814670000000  0.4798200000000  0.4865800000000 1.0
C      1  0.5193490000000  0.5168940000000  0.4309420000000 1.0
C      1  0.5193550000000  0.4794830000000  0.5722240000000 1.0
C      1  0.5164620000000  0.5134830000000  0.5677440000000 1.0
C      1  0.5276830000000  0.4852590000000  0.4258980000000 1.0
C      1  0.5416260000000  0.4393220000000  0.5449630000000 1.0
C      1  0.5378660000000  0.5607790000000  0.4476420000000 1.0
C      1  0.5455010000000  0.4429840000000  0.4463760000000 1.0
C      1  0.5432990000000  0.5580660000000  0.5627950000000 1.0
C      1  0.5136090000000  0.5686440000000  0.4362250000000 1.0
C      1  0.5122010000000  0.4305450000000  0.5471800000000 1.0
C      1  0.5131150000000  0.5683580000000  0.5509880000000 1.0
C      1  0.5143810000000  0.4445000000000  0.4599900000000 1.0
C      1  0.5192510000000  0.5721790000000  0.4924370000000 1.0
C      1  0.5102120000000  0.4431450000000  0.5172660000000 1.0
C      1  0.5163550000000  0.5585980000000  0.5185540000000 1.0
C      1  0.5182170000000  0.4319820000000  0.4913760000000 1.0
C      1  0.4428260000000  0.5128350000000  0.4349870000000 1.0
C      1  0.4460150000000  0.4890400000000  0.5707680000000 1.0
C      1  0.4385960000000  0.5127260000000  0.5650930000000 1.0
C      1  0.4433300000000  0.4877950000000  0.4327440000000 1.0
C      1  0.4505450000000  0.5307510000000  0.4591380000000 1.0
C      1  0.4618800000000  0.4743710000000  0.5471820000000 1.0
C      1  0.4556690000000  0.5267810000000  0.5414500000000 1.0
C      1  0.4451190000000  0.4694730000000  0.4613320000000 1.0
C      1  0.4937140000000  0.4857950000000  0.5508020000000 1.0
C      1  0.4884760000000  0.5164760000000  0.4430790000000 1.0
C      1  0.4976840000000  0.4852660000000  0.4420560000000 1.0
C      1  0.4846950000000  0.5167120000000  0.5560350000000 1.0
C      1  0.4945050000000  0.4086350000000  0.5317650000000 1.0
C      1  0.4992710000000  0.5880130000000  0.4494560000000 1.0
C      1  0.5084910000000  0.4115620000000  0.4526620000000 1.0
C      1  0.4962710000000  0.5899640000000  0.5330260000000 1.0
C      1  0.5506320000000  0.4698260000000  0.4346090000000 1.0
C      1  0.5456950000000  0.5263090000000  0.5576400000000 1.0
C      1  0.5472660000000  0.4630260000000  0.5619440000000 1.0
C      1  0.5446600000000  0.5301500000000  0.4453910000000 1.0
C      1  0.4783170000000  0.4735910000000  0.4674600000000 1.0
C      1  0.4762300000000  0.5163470000000  0.5164580000000 1.0
C      1  0.4733450000000  0.4837280000000  0.5165680000000 1.0
C      1  0.4815790000000  0.5246600000000  0.4716190000000 1.0
C      1  0.5039180000000  0.4716450000000  0.5149580000000 1.0
C      1  0.5036770000000  0.5147280000000  0.4875080000000 1.0
C      1  0.5009620000000  0.4841140000000  0.4879010000000 1.0
C      1  0.5076330000000  0.5287750000000  0.5153640000000 1.0
C      1  0.5454880000000  0.5565440000000  0.5314720000000 1.0
C      1  0.5479050000000  0.4405960000000  0.4813440000000 1.0
C      1  0.5386100000000  0.5604960000000  0.4761640000000 1.0
C      1  0.5499120000000  0.4395140000000  0.5145540000000 1.0
C      1  0.4838430000000  0.5801940000000  0.5100990000000 1.0
C      1  0.4898150000000  0.4199910000000  0.4797940000000 1.0
C      1  0.4927760000000  0.5812770000000  0.4786810000000 1.0
C      1  0.4792900000000  0.4187070000000  0.5107890000000 1.0
C      1  0.5521030000000  0.4704750000000  0.4744060000000 1.0
C      1  0.5536700000000  0.5313180000000  0.5159190000000 1.0
C      1  0.5488960000000  0.4719230000000  0.5233180000000 1.0
C      1  0.5475750000000  0.5336240000000  0.4850800000000 1.0
C      1  0.4336180000000  0.4999110000000  0.5052540000000 1.0
END
