TITL C-3289325-7307-152 0.000687768614972325 125000 -725.557009433855 0 0 133 (C1) n - 1
REM
REM in /nfs/bkarasulu/CARBON/AIRSS/Generating-Clusters/AIREBO/with-SteepDescent/Higher-Symm/SD-CG/HFTN-CG
REM
REM
REM
REM
REM
REM ./C.cell (b20cbc046b6831c77cfcea5457e17084)
REM
REM compiler GCC version 9.2.1 20190827 (Red Hat 9.2.1-1)
REM options -cpp -mtune=generic -march=x86-64 -g -O0 -fpre-include=/usr/include/finclude/math-vector-fortran.h
REM seed 1869766602 -1261904798 -398245900 1096716139 2039239243 218639414 -1224641363 -175549852 -1738704356 1204989555 2061339288 104396925 905989919 -35999716 -1608064623 53967159 -63310346 -528999168 41847903 1385896561 -1167881765 1495707987 1163185190 -1840147111 768978693 811882093 -1729063273 -1887470395 195802318 -1344427541 1126144747 -1537768995 -1539201810
REM
CELL 1.54180   50.00000   50.00000   50.00000   90.00000   90.00000   90.00000
LATT -1
SFAC C  
C      1  0.4628830000000  0.5587660000000  0.5195580000000 1.0
C      1  0.5304370000000  0.5830530000000  0.5415050000000 1.0
C      1  0.4112680000000  0.4684770000000  0.5157730000000 1.0
C      1  0.5348840000000  0.5875900000000  0.4543920000000 1.0
C      1  0.5121060000000  0.5038730000000  0.5268200000000 1.0
C      1  0.5874550000000  0.5250110000000  0.5101700000000 1.0
C      1  0.5861780000000  0.4868390000000  0.5217270000000 1.0
C      1  0.4645560000000  0.5505980000000  0.5749280000000 1.0
C      1  0.4949740000000  0.4794870000000  0.5531330000000 1.0
C      1  0.4338350000000  0.5366330000000  0.5798200000000 1.0
C      1  0.4850400000000  0.3959220000000  0.5186840000000 1.0
C      1  0.4175890000000  0.5118000000000  0.5625940000000 1.0
C      1  0.5332160000000  0.4937460000000  0.4108060000000 1.0
C      1  0.4078560000000  0.5023240000000  0.4521120000000 1.0
C      1  0.5031440000000  0.5881790000000  0.5442370000000 1.0
C      1  0.5633530000000  0.4432730000000  0.5384210000000 1.0
C      1  0.5256210000000  0.5019010000000  0.5993770000000 1.0
C      1  0.5076810000000  0.4351890000000  0.5375950000000 1.0
C      1  0.5218210000000  0.5605760000000  0.4929750000000 1.0
C      1  0.5181160000000  0.4570040000000  0.4120760000000 1.0
C      1  0.4101170000000  0.4816190000000  0.4698260000000 1.0
C      1  0.5252480000000  0.5147020000000  0.5757310000000 1.0
C      1  0.5541450000000  0.5228500000000  0.4716330000000 1.0
C      1  0.5384500000000  0.4653420000000  0.5080140000000 1.0
C      1  0.4864330000000  0.4187790000000  0.5920120000000 1.0
C      1  0.5265220000000  0.5515230000000  0.4151740000000 1.0
C      1  0.5511970000000  0.5455370000000  0.4927910000000 1.0
C      1  0.5016010000000  0.4177860000000  0.4497670000000 1.0
C      1  0.4908980000000  0.5776360000000  0.4443180000000 1.0
C      1  0.4848910000000  0.6015250000000  0.5239580000000 1.0
C      1  0.5640920000000  0.4618880000000  0.4575200000000 1.0
C      1  0.4870020000000  0.5095540000000  0.4051650000000 1.0
C      1  0.5099720000000  0.4300230000000  0.6009320000000 1.0
C      1  0.5046620000000  0.4902170000000  0.3944380000000 1.0
C      1  0.4466940000000  0.4871880000000  0.4872410000000 1.0
C      1  0.4266770000000  0.5153300000000  0.4875660000000 1.0
C      1  0.5571920000000  0.5665010000000  0.5522520000000 1.0
C      1  0.4877080000000  0.4636810000000  0.4474940000000 1.0
C      1  0.4253730000000  0.4805170000000  0.5620350000000 1.0
C      1  0.5096260000000  0.4502090000000  0.5095470000000 1.0
C      1  0.5115220000000  0.5500880000000  0.5539680000000 1.0
C      1  0.5472190000000  0.5778370000000  0.5157000000000 1.0
C      1  0.4597010000000  0.5049150000000  0.3989890000000 1.0
C      1  0.5477890000000  0.4975490000000  0.4863180000000 1.0
C      1  0.4643050000000  0.4550490000000  0.4044440000000 1.0
C      1  0.4905420000000  0.4622050000000  0.3976120000000 1.0
C      1  0.4374310000000  0.4395760000000  0.4091190000000 1.0
C      1  0.4642900000000  0.5626860000000  0.4554990000000 1.0
C      1  0.5920170000000  0.5060950000000  0.4604000000000 1.0
C      1  0.5686450000000  0.5139130000000  0.4425630000000 1.0
C      1  0.5164380000000  0.5847140000000  0.4741410000000 1.0
C      1  0.4722100000000  0.5414970000000  0.4784290000000 1.0
C      1  0.4023730000000  0.5551820000000  0.5364230000000 1.0
C      1  0.5098830000000  0.4826100000000  0.4328970000000 1.0
C      1  0.4047300000000  0.5140360000000  0.5066400000000 1.0
C      1  0.4954140000000  0.5634280000000  0.5746820000000 1.0
C      1  0.5470120000000  0.4198990000000  0.5081430000000 1.0
C      1  0.4740440000000  0.4299210000000  0.5699480000000 1.0
C      1  0.4012320000000  0.4858070000000  0.4962690000000 1.0
C      1  0.5650430000000  0.5786790000000  0.4556160000000 1.0
C      1  0.4780370000000  0.5490900000000  0.4092940000000 1.0
C      1  0.4916540000000  0.5506190000000  0.5051060000000 1.0
C      1  0.5699210000000  0.4409830000000  0.5081530000000 1.0
C      1  0.4734580000000  0.5859070000000  0.5019010000000 1.0
C      1  0.5519290000000  0.5144740000000  0.5594100000000 1.0
C      1  0.4873290000000  0.4906980000000  0.4764140000000 1.0
C      1  0.4336570000000  0.5684230000000  0.4525540000000 1.0
C      1  0.4891540000000  0.5189260000000  0.4330190000000 1.0
C      1  0.5316010000000  0.4222380000000  0.4616650000000 1.0
C      1  0.4649030000000  0.4941520000000  0.5930180000000 1.0
C      1  0.5523730000000  0.4385130000000  0.4445720000000 1.0
C      1  0.4480560000000  0.5284350000000  0.5235860000000 1.0
C      1  0.4152020000000  0.5276290000000  0.5324450000000 1.0
C      1  0.5727310000000  0.5553520000000  0.5165660000000 1.0
C      1  0.4483270000000  0.5211330000000  0.5535820000000 1.0
C      1  0.5133950000000  0.5177600000000  0.4889640000000 1.0
C      1  0.5162560000000  0.4553820000000  0.5907670000000 1.0
C      1  0.4718680000000  0.5173800000000  0.5749390000000 1.0
C      1  0.4886140000000  0.5024340000000  0.5065040000000 1.0
C      1  0.5938560000000  0.5327370000000  0.5413280000000 1.0
C      1  0.4760600000000  0.4226150000000  0.5372650000000 1.0
C      1  0.4663790000000  0.4463650000000  0.5149380000000 1.0
C      1  0.4651200000000  0.4565970000000  0.5656930000000 1.0
C      1  0.4356830000000  0.5184750000000  0.4440740000000 1.0
C      1  0.4462380000000  0.4933550000000  0.4237370000000 1.0
C      1  0.5564060000000  0.4178240000000  0.5547040000000 1.0
C      1  0.5825830000000  0.5128360000000  0.5586480000000 1.0
C      1  0.4712770000000  0.4703030000000  0.5358200000000 1.0
C      1  0.4864920000000  0.5883310000000  0.4763030000000 1.0
C      1  0.5104310000000  0.4791570000000  0.6052320000000 1.0
C      1  0.5327990000000  0.4073970000000  0.4877740000000 1.0
C      1  0.5455400000000  0.5602830000000  0.4379680000000 1.0
C      1  0.5329480000000  0.5304990000000  0.4485450000000 1.0
C      1  0.5391720000000  0.5416570000000  0.5453580000000 1.0
C      1  0.4924110000000  0.5372820000000  0.5346800000000 1.0
C      1  0.4277500000000  0.4472660000000  0.5551030000000 1.0
C      1  0.4307390000000  0.4790730000000  0.5311820000000 1.0
C      1  0.5035890000000  0.4015210000000  0.4974470000000 1.0
C      1  0.5007730000000  0.5626920000000  0.4206990000000 1.0
C      1  0.5392430000000  0.4932900000000  0.5393860000000 1.0
C      1  0.4987760000000  0.5123570000000  0.5569320000000 1.0
C      1  0.4746100000000  0.5701690000000  0.5486430000000 1.0
C      1  0.5360670000000  0.5251440000000  0.5154110000000 1.0
C      1  0.4366240000000  0.4638840000000  0.4646110000000 1.0
C      1  0.5926530000000  0.4881600000000  0.5480080000000 1.0
C      1  0.5505060000000  0.4872950000000  0.4394130000000 1.0
C      1  0.5416230000000  0.4432140000000  0.4184280000000 1.0
C      1  0.5180060000000  0.4532360000000  0.4583690000000 1.0
C      1  0.4437140000000  0.4308080000000  0.5439300000000 1.0
C      1  0.5101010000000  0.5067260000000  0.4568910000000 1.0
C      1  0.5673520000000  0.4700760000000  0.4906790000000 1.0
C      1  0.5858850000000  0.5616900000000  0.5467400000000 1.0
C      1  0.5877460000000  0.4973530000000  0.4902730000000 1.0
C      1  0.4670870000000  0.4906550000000  0.4504520000000 1.0
C      1  0.4811120000000  0.4382860000000  0.4643540000000 1.0
C      1  0.5337070000000  0.4170870000000  0.5340540000000 1.0
C      1  0.5731710000000  0.5671280000000  0.4783910000000 1.0
C      1  0.5143880000000  0.4576330000000  0.5605300000000 1.0
C      1  0.4834900000000  0.4652030000000  0.4937890000000 1.0
C      1  0.5037340000000  0.5439100000000  0.4694990000000 1.0
C      1  0.4573370000000  0.4959290000000  0.5183370000000 1.0
C      1  0.4498540000000  0.4745970000000  0.5803120000000 1.0
C      1  0.4997230000000  0.4294600000000  0.4878400000000 1.0
C      1  0.5393060000000  0.4629210000000  0.5419290000000 1.0
C      1  0.4622340000000  0.5371800000000  0.4350430000000 1.0
C      1  0.5579100000000  0.4991190000000  0.5163260000000 1.0
C      1  0.5448620000000  0.5227900000000  0.4190320000000 1.0
C      1  0.4836440000000  0.4854890000000  0.6120990000000 1.0
C      1  0.5307590000000  0.4814520000000  0.4664590000000 1.0
C      1  0.4194430000000  0.5482190000000  0.4464190000000 1.0
C      1  0.4564200000000  0.5154890000000  0.4710890000000 1.0
C      1  0.4451220000000  0.4624060000000  0.4329750000000 1.0
C      1  0.4567270000000  0.4475250000000  0.4824870000000 1.0
END
