TITL C-3289323-3850-473 0.000930291007962959 125000 -441.485919430948 0 0 82 (C1) n - 1
REM
REM in /nfs/bkarasulu/CARBON/AIRSS/Generating-Clusters/AIREBO/with-SteepDescent/Higher-Symm/SD-CG/HFTN-CG
REM
REM
REM
REM
REM
REM ./C.cell (b20cbc046b6831c77cfcea5457e17084)
REM
REM compiler GCC version 9.2.1 20190827 (Red Hat 9.2.1-1)
REM options -cpp -mtune=generic -march=x86-64 -g -O0 -fpre-include=/usr/include/finclude/math-vector-fortran.h
REM seed 547741679 -926556936 -1953088002 1075070248 -632156153 487559244 -725709911 -591325588 -1079718801 -701712158 1910413388 1231539188 -743158617 1058285603 1855439794 -1295430419 -1309963548 -148756845 -1571798822 2070255510 -94818602 2032184584 551010151 1077858624 815971565 -953448646 1818192269 722125571 1913352029 26073397 -1708550881 -1081392056 -520703262
REM
CELL 1.54180   50.00000   50.00000   50.00000   90.00000   90.00000   90.00000
LATT -1
SFAC C  
C      1  0.4812680000000  0.4961390000000  0.4621240000000 1.0
C      1  0.5212230000000  0.5106010000000  0.5310700000000 1.0
C      1  0.4309480000000  0.5023530000000  0.4620700000000 1.0
C      1  0.5696910000000  0.4953910000000  0.5363280000000 1.0
C      1  0.4522500000000  0.4709690000000  0.5329410000000 1.0
C      1  0.5472470000000  0.5304620000000  0.4651490000000 1.0
C      1  0.4787870000000  0.4505660000000  0.4369080000000 1.0
C      1  0.5235620000000  0.5461700000000  0.5669760000000 1.0
C      1  0.5476120000000  0.5599860000000  0.4738920000000 1.0
C      1  0.4475870000000  0.4401950000000  0.5244110000000 1.0
C      1  0.5538100000000  0.5456090000000  0.5512740000000 1.0
C      1  0.4478270000000  0.4532030000000  0.4477060000000 1.0
C      1  0.4957300000000  0.5464340000000  0.4245090000000 1.0
C      1  0.5029700000000  0.4619520000000  0.5762150000000 1.0
C      1  0.5079250000000  0.4199810000000  0.5319090000000 1.0
C      1  0.4853040000000  0.5823950000000  0.4687840000000 1.0
C      1  0.5279500000000  0.4613750000000  0.4356830000000 1.0
C      1  0.4705540000000  0.5378840000000  0.5653380000000 1.0
C      1  0.5703580000000  0.5642270000000  0.5283300000000 1.0
C      1  0.4296870000000  0.4365170000000  0.4698030000000 1.0
C      1  0.5648500000000  0.5599880000000  0.5014620000000 1.0
C      1  0.4347870000000  0.4416820000000  0.4961130000000 1.0
C      1  0.4464090000000  0.5522910000000  0.5456590000000 1.0
C      1  0.5564780000000  0.4512950000000  0.4517840000000 1.0
C      1  0.4798440000000  0.4486940000000  0.4948420000000 1.0
C      1  0.5229180000000  0.5405980000000  0.5147670000000 1.0
C      1  0.5406060000000  0.4798860000000  0.4612600000000 1.0
C      1  0.4596770000000  0.5220920000000  0.5372240000000 1.0
C      1  0.5159160000000  0.5055030000000  0.4918760000000 1.0
C      1  0.4870420000000  0.4943350000000  0.5059360000000 1.0
C      1  0.5082790000000  0.4826250000000  0.4714070000000 1.0
C      1  0.4884450000000  0.5179870000000  0.5263200000000 1.0
C      1  0.5039560000000  0.4463480000000  0.4478650000000 1.0
C      1  0.4974150000000  0.5506440000000  0.5574890000000 1.0
C      1  0.4759740000000  0.5666890000000  0.5145430000000 1.0
C      1  0.5290440000000  0.4339740000000  0.4904800000000 1.0
C      1  0.4431200000000  0.5499220000000  0.4784940000000 1.0
C      1  0.5554510000000  0.4480480000000  0.5184460000000 1.0
C      1  0.5043050000000  0.4685940000000  0.5016290000000 1.0
C      1  0.4965660000000  0.5313340000000  0.4953790000000 1.0
C      1  0.4657380000000  0.4812680000000  0.4391070000000 1.0
C      1  0.5366600000000  0.5170380000000  0.5580460000000 1.0
C      1  0.5643850000000  0.5224250000000  0.5298030000000 1.0
C      1  0.4390670000000  0.4762820000000  0.4684880000000 1.0
C      1  0.4999300000000  0.5498430000000  0.4510480000000 1.0
C      1  0.4967900000000  0.4594120000000  0.5500150000000 1.0
C      1  0.4781490000000  0.5273030000000  0.4144780000000 1.0
C      1  0.5260630000000  0.4745990000000  0.5848240000000 1.0
C      1  0.5342320000000  0.4927230000000  0.4241100000000 1.0
C      1  0.4601130000000  0.5080870000000  0.5745620000000 1.0
C      1  0.4277400000000  0.4913080000000  0.5058340000000 1.0
C      1  0.5768530000000  0.5082980000000  0.4919360000000 1.0
C      1  0.4176380000000  0.5291430000000  0.4696980000000 1.0
C      1  0.5816280000000  0.4673420000000  0.5288460000000 1.0
C      1  0.5219230000000  0.5720220000000  0.5018120000000 1.0
C      1  0.4764580000000  0.4185760000000  0.5073120000000 1.0
C      1  0.5326180000000  0.4998620000000  0.3978780000000 1.0
C      1  0.4566680000000  0.5008020000000  0.6005970000000 1.0
C      1  0.5617550000000  0.4820030000000  0.4873970000000 1.0
C      1  0.4412200000000  0.5185060000000  0.5092160000000 1.0
C      1  0.4800290000000  0.4387060000000  0.5341700000000 1.0
C      1  0.5161380000000  0.5696480000000  0.4709210000000 1.0
C      1  0.5413330000000  0.4977600000000  0.5068370000000 1.0
C      1  0.4624970000000  0.5013260000000  0.4890110000000 1.0
C      1  0.5445200000000  0.5099700000000  0.4478870000000 1.0
C      1  0.4529210000000  0.4918710000000  0.5498700000000 1.0
C      1  0.4713650000000  0.3943110000000  0.5013330000000 1.0
C      1  0.5258140000000  0.5948370000000  0.5140670000000 1.0
C      1  0.4852820000000  0.5294490000000  0.4676670000000 1.0
C      1  0.5129790000000  0.4775980000000  0.5313420000000 1.0
C      1  0.4660740000000  0.5724470000000  0.4858920000000 1.0
C      1  0.5306280000000  0.4247980000000  0.5184540000000 1.0
C      1  0.4550400000000  0.5259440000000  0.4576350000000 1.0
C      1  0.5439690000000  0.4732200000000  0.5382570000000 1.0
C      1  0.5412400000000  0.4883550000000  0.5669610000000 1.0
C      1  0.4626260000000  0.5115060000000  0.4303020000000 1.0
C      1  0.4972180000000  0.5567990000000  0.5300600000000 1.0
C      1  0.5058430000000  0.4391670000000  0.4750830000000 1.0
C      1  0.5547500000000  0.4507220000000  0.4845010000000 1.0
C      1  0.4462560000000  0.5503150000000  0.5123570000000 1.0
C      1  0.5510800000000  0.5294510000000  0.4992970000000 1.0
C      1  0.4534010000000  0.4700200000000  0.4986930000000 1.0
END
