TITL C-3289330-4660-441 -7.04187005687743e-05 125000 -705.51513310715 0 0 125 (C1) n - 1
REM
REM in /nfs/bkarasulu/CARBON/AIRSS/Generating-Clusters/AIREBO/with-SteepDescent/Higher-Symm/SD-CG/HFTN-CG
REM
REM
REM
REM
REM
REM ./C.cell (b20cbc046b6831c77cfcea5457e17084)
REM
REM compiler GCC version 9.2.1 20190827 (Red Hat 9.2.1-1)
REM options -cpp -mtune=generic -march=x86-64 -g -O0 -fpre-include=/usr/include/finclude/math-vector-fortran.h
REM seed -1027111226 666299754 441405660 -1661617494 -1695371574 1949807579 -1373782011 1022092689 815153103 -1577044003 -172433178 416049478 -1525556464 103640997 1869982171 -889454386 654420866 1854949890 -1513774922 1319038614 1655154106 1371251053 -741894774 -949801012 -2013457067 392308779 70463288 1722048648 -1021260545 -268973653 -1712077401 603633654 126708532
REM
CELL 1.54180   50.00000   50.00000   50.00000   90.00000   90.00000   90.00000
LATT -1
SFAC C  
C      1  0.5865680000000  0.4527410000000  0.4813190000000 1.0
C      1  0.5186820000000  0.4737680000000  0.4158670000000 1.0
C      1  0.4220030000000  0.4531200000000  0.4571320000000 1.0
C      1  0.4397010000000  0.4529080000000  0.5669190000000 1.0
C      1  0.5323030000000  0.4541890000000  0.5771260000000 1.0
C      1  0.4118870000000  0.4523400000000  0.4834220000000 1.0
C      1  0.4865160000000  0.4748980000000  0.4141600000000 1.0
C      1  0.5734310000000  0.4542420000000  0.4570030000000 1.0
C      1  0.5569200000000  0.4526860000000  0.5643040000000 1.0
C      1  0.4633780000000  0.4711570000000  0.5831250000000 1.0
C      1  0.5623270000000  0.4279950000000  0.5514600000000 1.0
C      1  0.5606590000000  0.4311950000000  0.4497110000000 1.0
C      1  0.4788140000000  0.4449550000000  0.4221750000000 1.0
C      1  0.4175740000000  0.4290410000000  0.4964900000000 1.0
C      1  0.4779720000000  0.4428630000000  0.5711460000000 1.0
C      1  0.4395960000000  0.4291750000000  0.5531680000000 1.0
C      1  0.4338300000000  0.4284810000000  0.4491160000000 1.0
C      1  0.5239620000000  0.4447500000000  0.4271230000000 1.0
C      1  0.5844530000000  0.4293110000000  0.4952500000000 1.0
C      1  0.5164290000000  0.4322780000000  0.5727580000000 1.0
C      1  0.5462610000000  0.5412190000000  0.5804850000000 1.0
C      1  0.5941430000000  0.5413970000000  0.4873460000000 1.0
C      1  0.5155730000000  0.5369410000000  0.4042360000000 1.0
C      1  0.4147150000000  0.5368540000000  0.4607340000000 1.0
C      1  0.4367050000000  0.5350240000000  0.5685370000000 1.0
C      1  0.4578800000000  0.5382030000000  0.5888330000000 1.0
C      1  0.4025160000000  0.5398620000000  0.4876340000000 1.0
C      1  0.4859820000000  0.5336110000000  0.4031870000000 1.0
C      1  0.5891270000000  0.5387470000000  0.4582770000000 1.0
C      1  0.5734090000000  0.5437730000000  0.5665080000000 1.0
C      1  0.5657150000000  0.5107330000000  0.5639220000000 1.0
C      1  0.5816150000000  0.5091880000000  0.4513160000000 1.0
C      1  0.4765260000000  0.5037460000000  0.4027560000000 1.0
C      1  0.4081030000000  0.5063650000000  0.4855980000000 1.0
C      1  0.4571020000000  0.5045000000000  0.5843180000000 1.0
C      1  0.4291770000000  0.5060900000000  0.5609400000000 1.0
C      1  0.4183440000000  0.5058490000000  0.4529110000000 1.0
C      1  0.5127820000000  0.5032620000000  0.4005400000000 1.0
C      1  0.5897240000000  0.5077560000000  0.4863580000000 1.0
C      1  0.5386230000000  0.5093670000000  0.5851610000000 1.0
C      1  0.4726630000000  0.4787850000000  0.4423180000000 1.0
C      1  0.4203850000000  0.4779570000000  0.4988110000000 1.0
C      1  0.4899960000000  0.4807040000000  0.5668190000000 1.0
C      1  0.5608950000000  0.4799980000000  0.5502030000000 1.0
C      1  0.5618670000000  0.4815150000000  0.4520180000000 1.0
C      1  0.5312080000000  0.4801860000000  0.4439970000000 1.0
C      1  0.5789710000000  0.4775650000000  0.4977540000000 1.0
C      1  0.5205030000000  0.4820210000000  0.5762150000000 1.0
C      1  0.4428950000000  0.4796630000000  0.5499340000000 1.0
C      1  0.4403550000000  0.4800100000000  0.4549670000000 1.0
C      1  0.5459430000000  0.5073840000000  0.4068520000000 1.0
C      1  0.4264330000000  0.5027220000000  0.4214350000000 1.0
C      1  0.4036800000000  0.5060240000000  0.5426600000000 1.0
C      1  0.5107560000000  0.5081880000000  0.6046200000000 1.0
C      1  0.5995720000000  0.5042580000000  0.5187590000000 1.0
C      1  0.4456310000000  0.5036370000000  0.4056440000000 1.0
C      1  0.5661650000000  0.5060960000000  0.4211740000000 1.0
C      1  0.5914450000000  0.5043170000000  0.5425530000000 1.0
C      1  0.4858820000000  0.5082920000000  0.6020560000000 1.0
C      1  0.3984650000000  0.5053660000000  0.5182120000000 1.0
C      1  0.5543580000000  0.5309430000000  0.5070120000000 1.0
C      1  0.5244020000000  0.5323400000000  0.4512550000000 1.0
C      1  0.4614320000000  0.5337120000000  0.4627350000000 1.0
C      1  0.4536520000000  0.5301880000000  0.5259470000000 1.0
C      1  0.5101100000000  0.5337210000000  0.5532700000000 1.0
C      1  0.4409270000000  0.5344100000000  0.4969510000000 1.0
C      1  0.4854330000000  0.5348640000000  0.4430490000000 1.0
C      1  0.5504660000000  0.5384720000000  0.4679440000000 1.0
C      1  0.5469700000000  0.5349670000000  0.5381800000000 1.0
C      1  0.4795720000000  0.5373950000000  0.5552450000000 1.0
C      1  0.5512540000000  0.5755850000000  0.4969390000000 1.0
C      1  0.5158730000000  0.5713670000000  0.4499820000000 1.0
C      1  0.4593010000000  0.5726820000000  0.4708340000000 1.0
C      1  0.4605270000000  0.5708060000000  0.5303410000000 1.0
C      1  0.5166020000000  0.5753200000000  0.5474780000000 1.0
C      1  0.4502440000000  0.5737610000000  0.5016060000000 1.0
C      1  0.4837970000000  0.5737750000000  0.4519510000000 1.0
C      1  0.5401670000000  0.5770020000000  0.4669450000000 1.0
C      1  0.5405800000000  0.5806060000000  0.5246930000000 1.0
C      1  0.4861260000000  0.5761210000000  0.5479660000000 1.0
C      1  0.5151380000000  0.5025020000000  0.4600020000000 1.0
C      1  0.4571660000000  0.5032610000000  0.4732170000000 1.0
C      1  0.4584770000000  0.4982500000000  0.5295960000000 1.0
C      1  0.5180810000000  0.5025860000000  0.5492460000000 1.0
C      1  0.5536570000000  0.4978110000000  0.5004180000000 1.0
C      1  0.4861720000000  0.5036360000000  0.4556960000000 1.0
C      1  0.5466040000000  0.5054700000000  0.4707770000000 1.0
C      1  0.5439480000000  0.5018470000000  0.5316010000000 1.0
C      1  0.4838490000000  0.5052180000000  0.5451010000000 1.0
C      1  0.4443500000000  0.5003730000000  0.5013570000000 1.0
C      1  0.4461550000000  0.4560380000000  0.5037130000000 1.0
C      1  0.4904700000000  0.4657380000000  0.5391310000000 1.0
C      1  0.5402000000000  0.4627040000000  0.5294920000000 1.0
C      1  0.5338170000000  0.4478370000000  0.4820270000000 1.0
C      1  0.4865100000000  0.4562850000000  0.4612390000000 1.0
C      1  0.5542200000000  0.4551750000000  0.5045720000000 1.0
C      1  0.5142260000000  0.4519180000000  0.5333930000000 1.0
C      1  0.4621410000000  0.4586140000000  0.5315180000000 1.0
C      1  0.4604170000000  0.4637950000000  0.4771370000000 1.0
C      1  0.5157200000000  0.4629040000000  0.4642030000000 1.0
C      1  0.4588970000000  0.4252350000000  0.5257760000000 1.0
C      1  0.5148850000000  0.4204340000000  0.5409700000000 1.0
C      1  0.5538280000000  0.4212000000000  0.5030320000000 1.0
C      1  0.5151140000000  0.4285750000000  0.4515440000000 1.0
C      1  0.4555040000000  0.4191160000000  0.4641150000000 1.0
C      1  0.5454410000000  0.4167060000000  0.5325620000000 1.0
C      1  0.4832850000000  0.4276250000000  0.5486610000000 1.0
C      1  0.4495700000000  0.4233750000000  0.4948990000000 1.0
C      1  0.4820390000000  0.4265560000000  0.4507060000000 1.0
C      1  0.5398250000000  0.4173320000000  0.4720370000000 1.0
C      1  0.4378810000000  0.5519010000000  0.4584010000000 1.0
C      1  0.4427850000000  0.5499940000000  0.5458710000000 1.0
C      1  0.5259790000000  0.5543620000000  0.5672640000000 1.0
C      1  0.5713160000000  0.5536700000000  0.4984940000000 1.0
C      1  0.5223350000000  0.5503000000000  0.4272280000000 1.0
C      1  0.5679210000000  0.5617280000000  0.4545960000000 1.0
C      1  0.5581390000000  0.5638860000000  0.5456390000000 1.0
C      1  0.4739600000000  0.5612990000000  0.5759770000000 1.0
C      1  0.4211370000000  0.5602580000000  0.5002880000000 1.0
C      1  0.4786860000000  0.5579440000000  0.4222870000000 1.0
C      1  0.4861450000000  0.5375650000000  0.5218130000000 1.0
C      1  0.5258060000000  0.5333910000000  0.4907520000000 1.0
C      1  0.4994970000000  0.5364660000000  0.4740510000000 1.0
C      1  0.4746550000000  0.5333910000000  0.4926960000000 1.0
C      1  0.5175180000000  0.5336190000000  0.5212110000000 1.0
END
