TITL C-3289330-4660-738 0.000679195692565041 125000 -1050.78749179833 0 0 189 (C1) n - 1
REM
REM in /nfs/bkarasulu/CARBON/AIRSS/Generating-Clusters/AIREBO/with-SteepDescent/Higher-Symm/SD-CG/HFTN-CG
REM
REM
REM
REM
REM
REM ./C.cell (b20cbc046b6831c77cfcea5457e17084)
REM
REM compiler GCC version 9.2.1 20190827 (Red Hat 9.2.1-1)
REM options -cpp -mtune=generic -march=x86-64 -g -O0 -fpre-include=/usr/include/finclude/math-vector-fortran.h
REM seed -288806796 -1825001204 -1934296342 1786802340 274375259 1265483989 941834670 1504528319 1374217135 629713179 738401664 1630292530 -1864591120 -1599230055 1968479526 -1998397778 425985564 -1401778046 523138494 -625257545 965105042 -2112796148 -282974010 397840751 -311411560 1114809009 285984346 876905523 -1440823332 1316237043 -463213732 -521137562 943686514
REM
CELL 1.54180   50.00000   50.00000   50.00000   90.00000   90.00000   90.00000
LATT -1
SFAC C  
C      1  0.5783680000000  0.5803170000000  0.4795170000000 1.0
C      1  0.5637040000000  0.5735810000000  0.5520150000000 1.0
C      1  0.5017500000000  0.5831470000000  0.5799190000000 1.0
C      1  0.4400320000000  0.5832890000000  0.5520160000000 1.0
C      1  0.4219000000000  0.5795950000000  0.4841780000000 1.0
C      1  0.4684960000000  0.5793270000000  0.4311450000000 1.0
C      1  0.5372460000000  0.5819000000000  0.4298620000000 1.0
C      1  0.4286240000000  0.5233180000000  0.5020450000000 1.0
C      1  0.4558880000000  0.5231770000000  0.4490100000000 1.0
C      1  0.5122420000000  0.5170020000000  0.4335970000000 1.0
C      1  0.5498500000000  0.5223630000000  0.4735620000000 1.0
C      1  0.5540910000000  0.5196470000000  0.5291780000000 1.0
C      1  0.5151180000000  0.5266240000000  0.5648580000000 1.0
C      1  0.4599150000000  0.5205130000000  0.5555780000000 1.0
C      1  0.4599220000000  0.4867480000000  0.5080410000000 1.0
C      1  0.4646970000000  0.4840950000000  0.4783360000000 1.0
C      1  0.4958660000000  0.4836060000000  0.4703970000000 1.0
C      1  0.5272660000000  0.4876950000000  0.4729710000000 1.0
C      1  0.5380200000000  0.4857910000000  0.5051710000000 1.0
C      1  0.5173790000000  0.4814880000000  0.5318490000000 1.0
C      1  0.4863430000000  0.4863860000000  0.5252240000000 1.0
C      1  0.4639780000000  0.4805570000000  0.5959760000000 1.0
C      1  0.3949900000000  0.4665920000000  0.5305800000000 1.0
C      1  0.4037830000000  0.4701690000000  0.4373070000000 1.0
C      1  0.4839700000000  0.4824690000000  0.3915860000000 1.0
C      1  0.5813150000000  0.4762790000000  0.4195940000000 1.0
C      1  0.6028220000000  0.4869740000000  0.5064490000000 1.0
C      1  0.5552170000000  0.4709830000000  0.5920130000000 1.0
C      1  0.5329800000000  0.4522490000000  0.5075440000000 1.0
C      1  0.5259700000000  0.4499170000000  0.5411010000000 1.0
C      1  0.4868500000000  0.4557470000000  0.5331500000000 1.0
C      1  0.4607280000000  0.4411750000000  0.5172470000000 1.0
C      1  0.4572220000000  0.4524260000000  0.4882020000000 1.0
C      1  0.4844390000000  0.4515790000000  0.4682810000000 1.0
C      1  0.5403400000000  0.4565610000000  0.4743380000000 1.0
C      1  0.5445130000000  0.4009910000000  0.4601350000000 1.0
C      1  0.5556920000000  0.3943280000000  0.5028220000000 1.0
C      1  0.5353110000000  0.3961780000000  0.5503410000000 1.0
C      1  0.4719630000000  0.4098280000000  0.5496310000000 1.0
C      1  0.4489010000000  0.4015030000000  0.5319050000000 1.0
C      1  0.4445940000000  0.3964680000000  0.4756360000000 1.0
C      1  0.4862210000000  0.4029550000000  0.4487320000000 1.0
C      1  0.4909510000000  0.6102310000000  0.5280010000000 1.0
C      1  0.4633580000000  0.6135540000000  0.5113340000000 1.0
C      1  0.4725030000000  0.6153940000000  0.4803370000000 1.0
C      1  0.4996830000000  0.6138000000000  0.4629500000000 1.0
C      1  0.5276030000000  0.6147710000000  0.4804710000000 1.0
C      1  0.5415780000000  0.6101740000000  0.5096240000000 1.0
C      1  0.5215290000000  0.6141820000000  0.5356970000000 1.0
C      1  0.4880860000000  0.4702900000000  0.6118670000000 1.0
C      1  0.4086250000000  0.4510690000000  0.5502090000000 1.0
C      1  0.4004050000000  0.4510450000000  0.4599640000000 1.0
C      1  0.4735990000000  0.4571200000000  0.3877780000000 1.0
C      1  0.5576780000000  0.4539180000000  0.4148060000000 1.0
C      1  0.5950660000000  0.4635950000000  0.4920910000000 1.0
C      1  0.5719140000000  0.4476790000000  0.5816360000000 1.0
C      1  0.5777370000000  0.5152430000000  0.4883790000000 1.0
C      1  0.5606890000000  0.5049110000000  0.5566370000000 1.0
C      1  0.4905310000000  0.5218180000000  0.5958190000000 1.0
C      1  0.4247240000000  0.5099560000000  0.5394760000000 1.0
C      1  0.4203570000000  0.5138930000000  0.4641680000000 1.0
C      1  0.4702440000000  0.5166570000000  0.4124800000000 1.0
C      1  0.5499290000000  0.5206980000000  0.4214760000000 1.0
C      1  0.4412860000000  0.5394600000000  0.5360580000000 1.0
C      1  0.4342040000000  0.5424630000000  0.4763880000000 1.0
C      1  0.4803140000000  0.5412510000000  0.4337030000000 1.0
C      1  0.5335170000000  0.5421970000000  0.4421140000000 1.0
C      1  0.5658460000000  0.5450530000000  0.4931970000000 1.0
C      1  0.5524280000000  0.5492720000000  0.5326060000000 1.0
C      1  0.4892640000000  0.5460910000000  0.5720150000000 1.0
C      1  0.4591850000000  0.5123490000000  0.6049760000000 1.0
C      1  0.3959640000000  0.4947350000000  0.5295440000000 1.0
C      1  0.4074800000000  0.4981430000000  0.4372880000000 1.0
C      1  0.4906700000000  0.5132520000000  0.3855860000000 1.0
C      1  0.5815270000000  0.5103110000000  0.4203000000000 1.0
C      1  0.6207620000000  0.5036840000000  0.5197140000000 1.0
C      1  0.5540570000000  0.4984260000000  0.5863400000000 1.0
C      1  0.4263150000000  0.4212830000000  0.5305180000000 1.0
C      1  0.4240870000000  0.4211350000000  0.4716340000000 1.0
C      1  0.4736210000000  0.4315880000000  0.4353730000000 1.0
C      1  0.5402330000000  0.4259750000000  0.4374680000000 1.0
C      1  0.5745790000000  0.4192540000000  0.4914270000000 1.0
C      1  0.5553650000000  0.4233070000000  0.5546020000000 1.0
C      1  0.4987640000000  0.4295590000000  0.5853780000000 1.0
C      1  0.4714300000000  0.4334330000000  0.4014910000000 1.0
C      1  0.5560340000000  0.4249140000000  0.4072370000000 1.0
C      1  0.6010800000000  0.4364760000000  0.4963730000000 1.0
C      1  0.5791110000000  0.4194470000000  0.5786360000000 1.0
C      1  0.4945510000000  0.4436910000000  0.6129300000000 1.0
C      1  0.4031530000000  0.4219780000000  0.5556710000000 1.0
C      1  0.3926320000000  0.4223830000000  0.4587770000000 1.0
C      1  0.3968370000000  0.4499840000000  0.5049880000000 1.0
C      1  0.4291620000000  0.4545460000000  0.4325640000000 1.0
C      1  0.5167800000000  0.4436260000000  0.4103080000000 1.0
C      1  0.5836310000000  0.4515380000000  0.4443640000000 1.0
C      1  0.5893420000000  0.4428850000000  0.5383300000000 1.0
C      1  0.5298660000000  0.4592950000000  0.5884350000000 1.0
C      1  0.4510550000000  0.4382540000000  0.5809620000000 1.0
C      1  0.4926760000000  0.5676340000000  0.4171550000000 1.0
C      1  0.5588840000000  0.5647410000000  0.4391440000000 1.0
C      1  0.5855960000000  0.5661270000000  0.5058700000000 1.0
C      1  0.5500960000000  0.5739920000000  0.5807360000000 1.0
C      1  0.4740360000000  0.5716200000000  0.5838830000000 1.0
C      1  0.4252160000000  0.5671510000000  0.5336160000000 1.0
C      1  0.4276100000000  0.5664870000000  0.4553200000000 1.0
C      1  0.5197420000000  0.5639290000000  0.4610160000000 1.0
C      1  0.5346560000000  0.5583990000000  0.4898480000000 1.0
C      1  0.5247660000000  0.5632150000000  0.5208730000000 1.0
C      1  0.4969620000000  0.5569930000000  0.5394370000000 1.0
C      1  0.4656720000000  0.5614150000000  0.5266920000000 1.0
C      1  0.4563190000000  0.5620610000000  0.4942970000000 1.0
C      1  0.4897730000000  0.5610910000000  0.4596520000000 1.0
C      1  0.4465430000000  0.5729760000000  0.5777410000000 1.0
C      1  0.4100860000000  0.5696560000000  0.5087650000000 1.0
C      1  0.4442230000000  0.5647750000000  0.4311830000000 1.0
C      1  0.5206660000000  0.5683730000000  0.4119340000000 1.0
C      1  0.5821680000000  0.5674270000000  0.4542850000000 1.0
C      1  0.5893320000000  0.5644750000000  0.5335410000000 1.0
C      1  0.5236160000000  0.5680490000000  0.5903010000000 1.0
C      1  0.4129580000000  0.4258480000000  0.5034320000000 1.0
C      1  0.4405180000000  0.4304620000000  0.4433320000000 1.0
C      1  0.5066620000000  0.4245980000000  0.4313370000000 1.0
C      1  0.5657110000000  0.4288790000000  0.4598260000000 1.0
C      1  0.5728310000000  0.4221670000000  0.5253220000000 1.0
C      1  0.5307140000000  0.4318170000000  0.5764420000000 1.0
C      1  0.4712250000000  0.4211510000000  0.5746770000000 1.0
C      1  0.5781020000000  0.4736400000000  0.5391610000000 1.0
C      1  0.5068470000000  0.4823380000000  0.5786650000000 1.0
C      1  0.4440560000000  0.4696750000000  0.5706630000000 1.0
C      1  0.4121000000000  0.4764750000000  0.4958620000000 1.0
C      1  0.4491140000000  0.4765760000000  0.4325970000000 1.0
C      1  0.5203140000000  0.4747150000000  0.4179860000000 1.0
C      1  0.5745810000000  0.4833850000000  0.4521590000000 1.0
C      1  0.4319030000000  0.4932720000000  0.5123240000000 1.0
C      1  0.4471660000000  0.4941210000000  0.4573480000000 1.0
C      1  0.4915420000000  0.4920410000000  0.4233310000000 1.0
C      1  0.5476330000000  0.5022010000000  0.4499240000000 1.0
C      1  0.5703370000000  0.4943310000000  0.5133190000000 1.0
C      1  0.5275310000000  0.4973830000000  0.5564630000000 1.0
C      1  0.4785350000000  0.5000450000000  0.5722200000000 1.0
C      1  0.5073950000000  0.4958440000000  0.6098760000000 1.0
C      1  0.4296810000000  0.4974660000000  0.5669040000000 1.0
C      1  0.4003580000000  0.5019020000000  0.4841020000000 1.0
C      1  0.4476240000000  0.4928240000000  0.4053720000000 1.0
C      1  0.5359250000000  0.4956040000000  0.4033010000000 1.0
C      1  0.5944250000000  0.5056580000000  0.4640060000000 1.0
C      1  0.5915790000000  0.4994190000000  0.5551540000000 1.0
C      1  0.4307810000000  0.5515970000000  0.5879110000000 1.0
C      1  0.3881530000000  0.5513130000000  0.5073380000000 1.0
C      1  0.4449820000000  0.5414490000000  0.4151690000000 1.0
C      1  0.5338950000000  0.5455110000000  0.4016240000000 1.0
C      1  0.6026930000000  0.5497870000000  0.4455450000000 1.0
C      1  0.6063320000000  0.5442720000000  0.5433500000000 1.0
C      1  0.5175150000000  0.5432550000000  0.6011460000000 1.0
C      1  0.4727330000000  0.4041310000000  0.4800600000000 1.0
C      1  0.4973550000000  0.4254100000000  0.4702020000000 1.0
C      1  0.5262660000000  0.4256080000000  0.4748760000000 1.0
C      1  0.5366650000000  0.4186020000000  0.5040310000000 1.0
C      1  0.5229930000000  0.4173190000000  0.5319090000000 1.0
C      1  0.4935950000000  0.4236650000000  0.5311360000000 1.0
C      1  0.4724040000000  0.4098170000000  0.5098120000000 1.0
C      1  0.5048600000000  0.5246080000000  0.5328390000000 1.0
C      1  0.4750290000000  0.5178400000000  0.5274020000000 1.0
C      1  0.4615530000000  0.5298690000000  0.5026830000000 1.0
C      1  0.4750880000000  0.5343230000000  0.4724660000000 1.0
C      1  0.5010770000000  0.5168960000000  0.4658320000000 1.0
C      1  0.5220730000000  0.5271070000000  0.4855410000000 1.0
C      1  0.5252170000000  0.5161270000000  0.5136620000000 1.0
C      1  0.6099040000000  0.5162860000000  0.5427210000000 1.0
C      1  0.5294180000000  0.5136180000000  0.5928570000000 1.0
C      1  0.4405430000000  0.5226650000000  0.5834400000000 1.0
C      1  0.3958210000000  0.5213780000000  0.5091480000000 1.0
C      1  0.4327140000000  0.5138940000000  0.4259080000000 1.0
C      1  0.5162550000000  0.5203240000000  0.3999960000000 1.0
C      1  0.5979160000000  0.5221800000000  0.4409250000000 1.0
C      1  0.5038830000000  0.5884610000000  0.5503120000000 1.0
C      1  0.4646740000000  0.5928120000000  0.5372690000000 1.0
C      1  0.4497730000000  0.5926620000000  0.4889560000000 1.0
C      1  0.4763920000000  0.5901010000000  0.4587640000000 1.0
C      1  0.5247250000000  0.5947220000000  0.4538430000000 1.0
C      1  0.5492080000000  0.5887280000000  0.4848560000000 1.0
C      1  0.5417740000000  0.5875520000000  0.5335710000000 1.0
C      1  0.5558980000000  0.4575630000000  0.5543490000000 1.0
C      1  0.4999320000000  0.4531020000000  0.5627350000000 1.0
C      1  0.4410360000000  0.4488550000000  0.5439190000000 1.0
C      1  0.4272530000000  0.4543690000000  0.4794050000000 1.0
C      1  0.4778930000000  0.4651310000000  0.4390140000000 1.0
C      1  0.5375640000000  0.4593980000000  0.4405690000000 1.0
C      1  0.5707180000000  0.4664910000000  0.4789830000000 1.0
END
