TITL C-3289327-5623-280 0.00590558289986249 125000 -956.39682211738 0 0 174 (C1) n - 1
REM
REM in /nfs/bkarasulu/CARBON/AIRSS/Generating-Clusters/AIREBO/with-SteepDescent/Higher-Symm/SD-CG/HFTN-CG
REM
REM
REM
REM
REM
REM ./C.cell (b20cbc046b6831c77cfcea5457e17084)
REM
REM compiler GCC version 9.2.1 20190827 (Red Hat 9.2.1-1)
REM options -cpp -mtune=generic -march=x86-64 -g -O0 -fpre-include=/usr/include/finclude/math-vector-fortran.h
REM seed 1174509480 468036652 -1835117395 -344296963 -1380472938 -1755321479 1042116215 334131893 630800406 -968739589 954795461 -1754062888 -681643861 -2116743593 -60535264 1625712713 -1638633203 2117084416 -567784021 -2109420774 1155986067 1983096890 -704138569 811464263 2015560354 -1591397865 -64162409 706264668 -1038943138 479224622 -881026375 -1928877951 -1214107161
REM
CELL 1.54180   50.00000   50.00000   50.00000   90.00000   90.00000   90.00000
LATT -1
SFAC C  
C      1  0.5670020000000  0.4800060000000  0.5784340000000 1.0
C      1  0.4670830000000  0.4864430000000  0.4415260000000 1.0
C      1  0.5414790000000  0.5688740000000  0.4453200000000 1.0
C      1  0.5767630000000  0.4910840000000  0.4552190000000 1.0
C      1  0.4813370000000  0.4963440000000  0.5067470000000 1.0
C      1  0.4811960000000  0.4177270000000  0.5814350000000 1.0
C      1  0.5036320000000  0.6033890000000  0.4715830000000 1.0
C      1  0.5198720000000  0.4997290000000  0.5145860000000 1.0
C      1  0.4978920000000  0.4857080000000  0.4328330000000 1.0
C      1  0.5911940000000  0.4317620000000  0.4883310000000 1.0
C      1  0.4661150000000  0.4195620000000  0.5026570000000 1.0
C      1  0.4566270000000  0.5082880000000  0.4176000000000 1.0
C      1  0.5602090000000  0.4393240000000  0.4775990000000 1.0
C      1  0.5707590000000  0.5202320000000  0.5207840000000 1.0
C      1  0.4896630000000  0.5193550000000  0.6001010000000 1.0
C      1  0.5406570000000  0.5894950000000  0.4991870000000 1.0
C      1  0.4773540000000  0.4454290000000  0.5933090000000 1.0
C      1  0.5305430000000  0.5201210000000  0.4934720000000 1.0
C      1  0.5318420000000  0.4697450000000  0.4465450000000 1.0
C      1  0.5067010000000  0.4500950000000  0.4023980000000 1.0
C      1  0.4077130000000  0.4589970000000  0.4756720000000 1.0
C      1  0.4136890000000  0.5649080000000  0.5282270000000 1.0
C      1  0.4504170000000  0.4874670000000  0.5696800000000 1.0
C      1  0.4908130000000  0.5816320000000  0.5551980000000 1.0
C      1  0.4779560000000  0.6078740000000  0.5378090000000 1.0
C      1  0.5647800000000  0.5294870000000  0.3732260000000 1.0
C      1  0.4062910000000  0.4486260000000  0.5249940000000 1.0
C      1  0.5486710000000  0.5231780000000  0.3939480000000 1.0
C      1  0.4817280000000  0.6016930000000  0.4527930000000 1.0
C      1  0.5281350000000  0.5410840000000  0.4025420000000 1.0
C      1  0.4378950000000  0.5718820000000  0.4086430000000 1.0
C      1  0.5893750000000  0.4276690000000  0.5172940000000 1.0
C      1  0.4201510000000  0.4481700000000  0.5492370000000 1.0
C      1  0.5312920000000  0.4796100000000  0.4922330000000 1.0
C      1  0.4682840000000  0.5332610000000  0.4095250000000 1.0
C      1  0.4749460000000  0.5330300000000  0.5454780000000 1.0
C      1  0.5721270000000  0.5433580000000  0.4982480000000 1.0
C      1  0.4270900000000  0.4806830000000  0.4686790000000 1.0
C      1  0.5876880000000  0.5477460000000  0.4683290000000 1.0
C      1  0.5344510000000  0.5469510000000  0.5677980000000 1.0
C      1  0.5502690000000  0.4100480000000  0.5511490000000 1.0
C      1  0.5326700000000  0.6052330000000  0.4750810000000 1.0
C      1  0.4142200000000  0.4715300000000  0.5665360000000 1.0
C      1  0.5337950000000  0.4378800000000  0.5394260000000 1.0
C      1  0.6153390000000  0.5057390000000  0.5199160000000 1.0
C      1  0.5545110000000  0.5886680000000  0.4617550000000 1.0
C      1  0.4033980000000  0.5427110000000  0.4745750000000 1.0
C      1  0.4445430000000  0.5691740000000  0.5283870000000 1.0
C      1  0.4593300000000  0.4065750000000  0.4655780000000 1.0
C      1  0.3735760000000  0.5437350000000  0.4712270000000 1.0
C      1  0.5679260000000  0.4428320000000  0.4449380000000 1.0
C      1  0.5197150000000  0.4775770000000  0.5943790000000 1.0
C      1  0.5744660000000  0.4893950000000  0.5069400000000 1.0
C      1  0.4204460000000  0.4985150000000  0.4443560000000 1.0
C      1  0.4187250000000  0.5260930000000  0.4518910000000 1.0
C      1  0.5829340000000  0.4649960000000  0.5999480000000 1.0
C      1  0.5940050000000  0.4890470000000  0.5347860000000 1.0
C      1  0.5240160000000  0.4931360000000  0.4648690000000 1.0
C      1  0.4873240000000  0.4832170000000  0.4778910000000 1.0
C      1  0.4465860000000  0.4792080000000  0.5149480000000 1.0
C      1  0.4709830000000  0.4971120000000  0.5924720000000 1.0
C      1  0.5559430000000  0.4705330000000  0.4706250000000 1.0
C      1  0.6134660000000  0.5041910000000  0.4918760000000 1.0
C      1  0.4228750000000  0.5077730000000  0.4871190000000 1.0
C      1  0.5932620000000  0.5493360000000  0.5516120000000 1.0
C      1  0.4877960000000  0.5567910000000  0.4424150000000 1.0
C      1  0.5754660000000  0.5780910000000  0.4790470000000 1.0
C      1  0.4270410000000  0.5372090000000  0.4983850000000 1.0
C      1  0.5227560000000  0.4600180000000  0.5160920000000 1.0
C      1  0.4500230000000  0.4399920000000  0.5480390000000 1.0
C      1  0.4729790000000  0.4510590000000  0.5254780000000 1.0
C      1  0.5028070000000  0.5133890000000  0.4749770000000 1.0
C      1  0.4535380000000  0.5386640000000  0.5196510000000 1.0
C      1  0.5764970000000  0.5698210000000  0.5410290000000 1.0
C      1  0.4896480000000  0.4778950000000  0.5290180000000 1.0
C      1  0.5195120000000  0.4275210000000  0.4462530000000 1.0
C      1  0.4978120000000  0.5138160000000  0.5541050000000 1.0
C      1  0.4502590000000  0.5862400000000  0.5039450000000 1.0
C      1  0.4764480000000  0.5432580000000  0.4949380000000 1.0
C      1  0.5046640000000  0.3850760000000  0.5481490000000 1.0
C      1  0.5849260000000  0.5262250000000  0.5690040000000 1.0
C      1  0.5857980000000  0.4968850000000  0.5605880000000 1.0
C      1  0.5318630000000  0.5755770000000  0.5263680000000 1.0
C      1  0.5198810000000  0.3962860000000  0.4421560000000 1.0
C      1  0.3982080000000  0.5186840000000  0.5347940000000 1.0
C      1  0.5224980000000  0.5445300000000  0.5157540000000 1.0
C      1  0.4965090000000  0.4504390000000  0.5009140000000 1.0
C      1  0.4516220000000  0.4369750000000  0.4553080000000 1.0
C      1  0.5593910000000  0.4421690000000  0.5100010000000 1.0
C      1  0.4538580000000  0.5002630000000  0.4909420000000 1.0
C      1  0.4992240000000  0.5666250000000  0.5045010000000 1.0
C      1  0.4730310000000  0.6039740000000  0.5110120000000 1.0
C      1  0.4203020000000  0.4431220000000  0.4991060000000 1.0
C      1  0.5054450000000  0.4981680000000  0.3942250000000 1.0
C      1  0.4612790000000  0.4444980000000  0.4276290000000 1.0
C      1  0.4988820000000  0.4111380000000  0.5063880000000 1.0
C      1  0.5441610000000  0.5575360000000  0.4929990000000 1.0
C      1  0.5268080000000  0.4821400000000  0.4152820000000 1.0
C      1  0.5744130000000  0.4924490000000  0.4237870000000 1.0
C      1  0.5125540000000  0.4268740000000  0.5893880000000 1.0
C      1  0.5458930000000  0.4364970000000  0.4295140000000 1.0
C      1  0.4830070000000  0.5430840000000  0.5875950000000 1.0
C      1  0.5049870000000  0.3831620000000  0.4576900000000 1.0
C      1  0.4068770000000  0.5454740000000  0.5485120000000 1.0
C      1  0.5488820000000  0.5721660000000  0.5543180000000 1.0
C      1  0.4994240000000  0.5463560000000  0.4700520000000 1.0
C      1  0.4335260000000  0.4891950000000  0.4203140000000 1.0
C      1  0.4884470000000  0.4002640000000  0.4759100000000 1.0
C      1  0.5527760000000  0.4995050000000  0.4090680000000 1.0
C      1  0.5495650000000  0.5026050000000  0.5407260000000 1.0
C      1  0.4162930000000  0.5677730000000  0.4940380000000 1.0
C      1  0.4706650000000  0.4159330000000  0.5539110000000 1.0
C      1  0.4938010000000  0.4419310000000  0.4287570000000 1.0
C      1  0.4348630000000  0.5877420000000  0.4736680000000 1.0
C      1  0.4946900000000  0.5944200000000  0.4969520000000 1.0
C      1  0.4969810000000  0.4716850000000  0.3869960000000 1.0
C      1  0.4547780000000  0.5435620000000  0.5706480000000 1.0
C      1  0.4323840000000  0.4221310000000  0.4792870000000 1.0
C      1  0.4950720000000  0.4598910000000  0.6079150000000 1.0
C      1  0.5189390000000  0.4332160000000  0.4798280000000 1.0
C      1  0.4544640000000  0.5109210000000  0.4613300000000 1.0
C      1  0.4453450000000  0.3949160000000  0.4950150000000 1.0
C      1  0.4579860000000  0.5728700000000  0.5567340000000 1.0
C      1  0.5947110000000  0.4809840000000  0.4808990000000 1.0
C      1  0.5762360000000  0.5730810000000  0.5126690000000 1.0
C      1  0.3847160000000  0.4905310000000  0.5474120000000 1.0
C      1  0.5037640000000  0.5586410000000  0.5766450000000 1.0
C      1  0.4434840000000  0.4621090000000  0.4158570000000 1.0
C      1  0.4800550000000  0.5238740000000  0.4459640000000 1.0
C      1  0.5108170000000  0.5155080000000  0.4345520000000 1.0
C      1  0.4413080000000  0.4927270000000  0.5385890000000 1.0
C      1  0.6130380000000  0.5278580000000  0.4787510000000 1.0
C      1  0.3789640000000  0.4980310000000  0.5158340000000 1.0
C      1  0.5428830000000  0.4994090000000  0.5928870000000 1.0
C      1  0.4874770000000  0.4340810000000  0.4725070000000 1.0
C      1  0.5071540000000  0.4352530000000  0.5568820000000 1.0
C      1  0.5531290000000  0.4713650000000  0.5263360000000 1.0
C      1  0.4889150000000  0.5579340000000  0.5327990000000 1.0
C      1  0.5362420000000  0.4506160000000  0.4067150000000 1.0
C      1  0.5948240000000  0.4518100000000  0.4638900000000 1.0
C      1  0.4304080000000  0.5175140000000  0.5328360000000 1.0
C      1  0.4630980000000  0.4598200000000  0.5694360000000 1.0
C      1  0.3855320000000  0.4533350000000  0.4633770000000 1.0
C      1  0.5991370000000  0.5285060000000  0.5317340000000 1.0
C      1  0.4845120000000  0.4005810000000  0.5347700000000 1.0
C      1  0.5570710000000  0.5088490000000  0.4851260000000 1.0
C      1  0.5184120000000  0.4889890000000  0.5433610000000 1.0
C      1  0.5221740000000  0.4047700000000  0.5583430000000 1.0
C      1  0.4575440000000  0.5603570000000  0.4273320000000 1.0
C      1  0.6009090000000  0.5534890000000  0.4416310000000 1.0
C      1  0.4250460000000  0.5325010000000  0.5693840000000 1.0
C      1  0.4590620000000  0.5859820000000  0.4496540000000 1.0
C      1  0.4992630000000  0.5280450000000  0.4056190000000 1.0
C      1  0.5307420000000  0.5495620000000  0.4664040000000 1.0
C      1  0.5168140000000  0.5144700000000  0.6087440000000 1.0
C      1  0.4535470000000  0.5607520000000  0.4799370000000 1.0
C      1  0.5001650000000  0.4610570000000  0.4561430000000 1.0
C      1  0.4222630000000  0.5038060000000  0.5719050000000 1.0
C      1  0.4534180000000  0.4507300000000  0.4976640000000 1.0
C      1  0.5267780000000  0.5277540000000  0.5430250000000 1.0
C      1  0.4586420000000  0.4675110000000  0.4685200000000 1.0
C      1  0.4956120000000  0.5234790000000  0.5126430000000 1.0
C      1  0.5222210000000  0.5932970000000  0.5531290000000 1.0
C      1  0.4963320000000  0.4880230000000  0.5762130000000 1.0
C      1  0.5316630000000  0.4510040000000  0.5840610000000 1.0
C      1  0.5340740000000  0.5626740000000  0.4193610000000 1.0
C      1  0.5357240000000  0.5217810000000  0.4539110000000 1.0
C      1  0.3852100000000  0.4669650000000  0.5246710000000 1.0
C      1  0.4928590000000  0.4620130000000  0.5582410000000 1.0
C      1  0.5538320000000  0.5186710000000  0.5704050000000 1.0
C      1  0.5315630000000  0.4220820000000  0.5093800000000 1.0
C      1  0.5680550000000  0.5220480000000  0.4590650000000 1.0
C      1  0.5512880000000  0.4597050000000  0.5585570000000 1.0
C      1  0.4460350000000  0.5430990000000  0.4542770000000 1.0
END
