TITL C-3289324-3781-127 -0.000836271856922259 125000 -365.192941949799 0 0 67 (C1) n - 1
REM
REM in /nfs/bkarasulu/CARBON/AIRSS/Generating-Clusters/AIREBO/with-SteepDescent/Higher-Symm/SD-CG/HFTN-CG
REM
REM
REM
REM
REM
REM ./C.cell (b20cbc046b6831c77cfcea5457e17084)
REM
REM compiler GCC version 9.2.1 20190827 (Red Hat 9.2.1-1)
REM options -cpp -mtune=generic -march=x86-64 -g -O0 -fpre-include=/usr/include/finclude/math-vector-fortran.h
REM seed -2040907916 -261625538 -1113633108 344928787 1462429300 -1104235052 508080524 -1374496862 -779478774 1083218971 -1773079783 -1222461999 -1984438088 -1059793081 1751820561 -2041354161 2062084041 1470130433 1448951707 -2052396320 1050677800 -1108335354 -1177013656 995462421 -1047761246 -1156235423 -2127018352 -1469646503 -852140140 1026407267 -1311866290 519794595 1610031688
REM
CELL 1.54180   50.00000   50.00000   50.00000   90.00000   90.00000   90.00000
LATT -1
SFAC C  
C      1  0.5080030000000  0.4794970000000  0.5042600000000 1.0
C      1  0.5142210000000  0.4946710000000  0.5313020000000 1.0
C      1  0.5127330000000  0.5253990000000  0.5265250000000 1.0
C      1  0.5155390000000  0.5256230000000  0.4745860000000 1.0
C      1  0.5120600000000  0.4918600000000  0.4771880000000 1.0
C      1  0.4782840000000  0.4683560000000  0.5063370000000 1.0
C      1  0.4850710000000  0.4777760000000  0.5367700000000 1.0
C      1  0.4836740000000  0.5297190000000  0.5131880000000 1.0
C      1  0.4836780000000  0.5328040000000  0.4793270000000 1.0
C      1  0.4810050000000  0.5014620000000  0.4661550000000 1.0
C      1  0.4471390000000  0.4712260000000  0.4620020000000 1.0
C      1  0.4434460000000  0.4512250000000  0.5142000000000 1.0
C      1  0.4488910000000  0.4989380000000  0.5461400000000 1.0
C      1  0.4421380000000  0.5389730000000  0.5191530000000 1.0
C      1  0.4456640000000  0.5270320000000  0.4684010000000 1.0
C      1  0.5582410000000  0.4700350000000  0.4650830000000 1.0
C      1  0.5553860000000  0.4607950000000  0.5183940000000 1.0
C      1  0.5628390000000  0.5025680000000  0.5459650000000 1.0
C      1  0.5568440000000  0.5411670000000  0.5172370000000 1.0
C      1  0.5535320000000  0.5233550000000  0.4628090000000 1.0
C      1  0.4790260000000  0.4714990000000  0.4502000000000 1.0
C      1  0.4733440000000  0.4351800000000  0.5120270000000 1.0
C      1  0.4795360000000  0.5014410000000  0.5577340000000 1.0
C      1  0.4663530000000  0.5584940000000  0.5184980000000 1.0
C      1  0.4686130000000  0.5392500000000  0.4495340000000 1.0
C      1  0.5293790000000  0.4660960000000  0.4635290000000 1.0
C      1  0.5254320000000  0.4573340000000  0.5227340000000 1.0
C      1  0.5362520000000  0.4955130000000  0.5555850000000 1.0
C      1  0.5257990000000  0.5549020000000  0.5192110000000 1.0
C      1  0.5258860000000  0.5221640000000  0.4435570000000 1.0
C      1  0.5029400000000  0.5341510000000  0.5789810000000 1.0
C      1  0.5216240000000  0.5784800000000  0.4950580000000 1.0
C      1  0.5014160000000  0.5035120000000  0.4040730000000 1.0
C      1  0.5062210000000  0.4245670000000  0.4531860000000 1.0
C      1  0.5080400000000  0.4358090000000  0.5662000000000 1.0
C      1  0.4735160000000  0.5343910000000  0.5801880000000 1.0
C      1  0.4956510000000  0.5848100000000  0.4863290000000 1.0
C      1  0.4744080000000  0.5042110000000  0.4103380000000 1.0
C      1  0.4803630000000  0.4364530000000  0.4484490000000 1.0
C      1  0.4807600000000  0.4334110000000  0.5621970000000 1.0
C      1  0.4774480000000  0.5649070000000  0.4890820000000 1.0
C      1  0.4680080000000  0.5095460000000  0.4357890000000 1.0
C      1  0.4839860000000  0.4526980000000  0.4781020000000 1.0
C      1  0.4722660000000  0.4485370000000  0.5412250000000 1.0
C      1  0.4793760000000  0.5335260000000  0.5467080000000 1.0
C      1  0.5301770000000  0.5483360000000  0.4860240000000 1.0
C      1  0.5178830000000  0.4986790000000  0.4264320000000 1.0
C      1  0.5206110000000  0.4382640000000  0.4722680000000 1.0
C      1  0.5176050000000  0.4595960000000  0.5538120000000 1.0
C      1  0.5166560000000  0.5224590000000  0.5595850000000 1.0
C      1  0.5674560000000  0.5301710000000  0.5411950000000 1.0
C      1  0.5627090000000  0.5266700000000  0.4939930000000 1.0
C      1  0.5681920000000  0.4975090000000  0.4677770000000 1.0
C      1  0.5699960000000  0.4658380000000  0.4919230000000 1.0
C      1  0.5712090000000  0.4857090000000  0.5259910000000 1.0
C      1  0.4370650000000  0.5248650000000  0.5432080000000 1.0
C      1  0.4363110000000  0.5253170000000  0.4961440000000 1.0
C      1  0.4355530000000  0.4989320000000  0.4662720000000 1.0
C      1  0.4367690000000  0.4666460000000  0.4894260000000 1.0
C      1  0.4412880000000  0.4809420000000  0.5261960000000 1.0
C      1  0.5055430000000  0.4398440000000  0.5010820000000 1.0
C      1  0.5068410000000  0.4852680000000  0.5692250000000 1.0
C      1  0.5011360000000  0.5453920000000  0.4430820000000 1.0
C      1  0.5109150000000  0.4755390000000  0.4407560000000 1.0
C      1  0.4961290000000  0.5608130000000  0.5347610000000 1.0
C      1  0.5814740000000  0.4989700000000  0.4986240000000 1.0
C      1  0.4249270000000  0.4956810000000  0.5002180000000 1.0
END
