TITL C-3289325-7307-310 0.00184795789045168 125000 -631.197700174239 0 0 105 (C1) n - 1
REM
REM in /nfs/bkarasulu/CARBON/AIRSS/Generating-Clusters/AIREBO/with-SteepDescent/Higher-Symm/SD-CG/HFTN-CG
REM
REM
REM
REM
REM
REM ./C.cell (b20cbc046b6831c77cfcea5457e17084)
REM
REM compiler GCC version 9.2.1 20190827 (Red Hat 9.2.1-1)
REM options -cpp -mtune=generic -march=x86-64 -g -O0 -fpre-include=/usr/include/finclude/math-vector-fortran.h
REM seed -1670521392 54223954 1647131145 379872747 -911477742 -144831647 -715214013 90066295 1135903129 372436099 -1002778887 -1736994662 1556721090 145030705 -209907157 1844531404 265814163 -175875625 -1769185347 -948987191 881533457 986732587 1810473682 1617745424 -398853072 -1480634350 1624822774 -1087557117 144552110 1687786275 1419713999 -986864982 -1704459549
REM
CELL 1.54180   50.00000   50.00000   50.00000   90.00000   90.00000   90.00000
LATT -1
SFAC C  
C      1  0.4625940000000  0.5101980000000  0.5099250000000 1.0
C      1  0.4751280000000  0.4671370000000  0.5336370000000 1.0
C      1  0.5238250000000  0.4603950000000  0.5158370000000 1.0
C      1  0.5446130000000  0.5169770000000  0.5227390000000 1.0
C      1  0.5002440000000  0.5445690000000  0.5288150000000 1.0
C      1  0.4538680000000  0.4801250000000  0.5174310000000 1.0
C      1  0.4732970000000  0.5391010000000  0.5195870000000 1.0
C      1  0.5267310000000  0.5406030000000  0.5132050000000 1.0
C      1  0.5405720000000  0.4856810000000  0.5117710000000 1.0
C      1  0.4947410000000  0.4475340000000  0.5203310000000 1.0
C      1  0.5121010000000  0.5785450000000  0.4796780000000 1.0
C      1  0.4209230000000  0.5391990000000  0.4855260000000 1.0
C      1  0.4432390000000  0.4357980000000  0.4875550000000 1.0
C      1  0.5449870000000  0.4242630000000  0.4820100000000 1.0
C      1  0.5803410000000  0.5177870000000  0.4862420000000 1.0
C      1  0.5118220000000  0.4195260000000  0.4815620000000 1.0
C      1  0.4252760000000  0.4643310000000  0.4827420000000 1.0
C      1  0.4466230000000  0.5613470000000  0.4839640000000 1.0
C      1  0.5454420000000  0.5771920000000  0.4759370000000 1.0
C      1  0.5863990000000  0.4842800000000  0.4848330000000 1.0
C      1  0.5893520000000  0.5233040000000  0.5161920000000 1.0
C      1  0.5107080000000  0.5907830000000  0.5083740000000 1.0
C      1  0.4116450000000  0.5371280000000  0.5126980000000 1.0
C      1  0.4414860000000  0.4280770000000  0.5151300000000 1.0
C      1  0.5511350000000  0.4144220000000  0.5090430000000 1.0
C      1  0.5893340000000  0.4741910000000  0.5114200000000 1.0
C      1  0.5074130000000  0.3977540000000  0.5037660000000 1.0
C      1  0.4073410000000  0.4629380000000  0.5079590000000 1.0
C      1  0.4417320000000  0.5758250000000  0.5107590000000 1.0
C      1  0.5593050000000  0.5862160000000  0.4992450000000 1.0
C      1  0.4949340000000  0.5415310000000  0.4393810000000 1.0
C      1  0.4546260000000  0.5130340000000  0.4459440000000 1.0
C      1  0.4788840000000  0.4682640000000  0.4410960000000 1.0
C      1  0.5299310000000  0.4618820000000  0.4515640000000 1.0
C      1  0.5410460000000  0.5168840000000  0.4334940000000 1.0
C      1  0.5038140000000  0.4570940000000  0.4321660000000 1.0
C      1  0.4542490000000  0.4865940000000  0.4337020000000 1.0
C      1  0.4680370000000  0.5367510000000  0.4308140000000 1.0
C      1  0.5265640000000  0.5385130000000  0.4479100000000 1.0
C      1  0.5452880000000  0.4874480000000  0.4460490000000 1.0
C      1  0.4295640000000  0.5347850000000  0.4385090000000 1.0
C      1  0.4524380000000  0.4489260000000  0.4449390000000 1.0
C      1  0.5401020000000  0.4305270000000  0.4431520000000 1.0
C      1  0.5711650000000  0.5163990000000  0.4376210000000 1.0
C      1  0.5060050000000  0.5718700000000  0.4408360000000 1.0
C      1  0.4295190000000  0.4708620000000  0.4435360000000 1.0
C      1  0.4496630000000  0.5603020000000  0.4355950000000 1.0
C      1  0.5362930000000  0.5695460000000  0.4379860000000 1.0
C      1  0.5780690000000  0.4856240000000  0.4376270000000 1.0
C      1  0.5086610000000  0.4292580000000  0.4429360000000 1.0
C      1  0.5171400000000  0.5264840000000  0.5786260000000 1.0
C      1  0.4687730000000  0.5366460000000  0.5653860000000 1.0
C      1  0.4547680000000  0.4826430000000  0.5682890000000 1.0
C      1  0.5021150000000  0.4653950000000  0.5819040000000 1.0
C      1  0.5438680000000  0.4855900000000  0.5633480000000 1.0
C      1  0.5262440000000  0.4646180000000  0.5669400000000 1.0
C      1  0.4750990000000  0.4635400000000  0.5736630000000 1.0
C      1  0.4566390000000  0.5106200000000  0.5609450000000 1.0
C      1  0.4958520000000  0.5419110000000  0.5684230000000 1.0
C      1  0.5403030000000  0.5129770000000  0.5695210000000 1.0
C      1  0.5763750000000  0.5343890000000  0.4591190000000 1.0
C      1  0.4853910000000  0.5849400000000  0.4591550000000 1.0
C      1  0.4198840000000  0.5206720000000  0.4640970000000 1.0
C      1  0.4586840000000  0.4293480000000  0.4644490000000 1.0
C      1  0.5627770000000  0.4429000000000  0.4640420000000 1.0
C      1  0.5768540000000  0.4686540000000  0.4630300000000 1.0
C      1  0.4857280000000  0.4201630000000  0.4614630000000 1.0
C      1  0.4200200000000  0.4925000000000  0.4644300000000 1.0
C      1  0.4582390000000  0.5753270000000  0.4585310000000 1.0
C      1  0.5601190000000  0.5577160000000  0.4580550000000 1.0
C      1  0.5630410000000  0.5663770000000  0.5229230000000 1.0
C      1  0.4658840000000  0.5812080000000  0.5269470000000 1.0
C      1  0.4110340000000  0.4844410000000  0.5287700000000 1.0
C      1  0.4882380000000  0.4038620000000  0.5224590000000 1.0
C      1  0.5716990000000  0.4543540000000  0.5265370000000 1.0
C      1  0.5535470000000  0.4342410000000  0.5290770000000 1.0
C      1  0.4632780000000  0.4184160000000  0.5311770000000 1.0
C      1  0.4164890000000  0.5122200000000  0.5265510000000 1.0
C      1  0.4925850000000  0.5837700000000  0.5277280000000 1.0
C      1  0.5743870000000  0.5422860000000  0.5309360000000 1.0
C      1  0.5056580000000  0.5678680000000  0.5529840000000 1.0
C      1  0.4438290000000  0.5143370000000  0.5353010000000 1.0
C      1  0.4716740000000  0.4410420000000  0.5521110000000 1.0
C      1  0.5265350000000  0.4438900000000  0.5440850000000 1.0
C      1  0.5564170000000  0.5271140000000  0.5506100000000 1.0
C      1  0.5002910000000  0.4245520000000  0.5448580000000 1.0
C      1  0.4371440000000  0.4714890000000  0.5453350000000 1.0
C      1  0.4533450000000  0.5530520000000  0.5413010000000 1.0
C      1  0.5319630000000  0.5677160000000  0.5331510000000 1.0
C      1  0.5612300000000  0.4839480000000  0.5379190000000 1.0
C      1  0.5267360000000  0.5390920000000  0.4810760000000 1.0
C      1  0.4710430000000  0.5411570000000  0.4866310000000 1.0
C      1  0.4549150000000  0.4799550000000  0.4852420000000 1.0
C      1  0.4971760000000  0.4482580000000  0.4886660000000 1.0
C      1  0.5409030000000  0.4898700000000  0.4777980000000 1.0
C      1  0.5246760000000  0.4618550000000  0.4829190000000 1.0
C      1  0.4767210000000  0.4639700000000  0.4729250000000 1.0
C      1  0.4588030000000  0.5118160000000  0.4761640000000 1.0
C      1  0.4968620000000  0.5490430000000  0.4723450000000 1.0
C      1  0.5488320000000  0.5175450000000  0.4894180000000 1.0
C      1  0.4233520000000  0.4464210000000  0.5284350000000 1.0
C      1  0.4227800000000  0.5591450000000  0.5275830000000 1.0
C      1  0.5338850000000  0.3916800000000  0.5136320000000 1.0
C      1  0.5909390000000  0.4984320000000  0.5297600000000 1.0
C      1  0.5381720000000  0.5972260000000  0.5185080000000 1.0
END
