TITL C-3289324-3781-19 -0.000539284155936283 125000 -243.397042156125 0 0 58 (C1) n - 1
REM
REM in /nfs/bkarasulu/CARBON/AIRSS/Generating-Clusters/AIREBO/with-SteepDescent/Higher-Symm/SD-CG/HFTN-CG
REM
REM
REM
REM
REM
REM ./C.cell (b20cbc046b6831c77cfcea5457e17084)
REM
REM compiler GCC version 9.2.1 20190827 (Red Hat 9.2.1-1)
REM options -cpp -mtune=generic -march=x86-64 -g -O0 -fpre-include=/usr/include/finclude/math-vector-fortran.h
REM seed 850526992 -483039559 -797100319 1257636566 -1657332984 183253855 347445508 -1854530226 -329914082 684453037 -1836002853 673048656 -1922281188 -2093755620 653357331 34160170 -1192612961 -686771053 171379346 -1836620439 1394898627 1826684776 1682440530 -1770863412 1948513166 -1960860651 334740094 224165738 -2021385545 -1642195373 -986894052 704042638 124732173
REM
CELL 1.54180   50.00000   50.00000   50.00000   90.00000   90.00000   90.00000
LATT -1
SFAC C  
C      1  0.5093470000000  0.5458660000000  0.4523140000000 1.0
C      1  0.5311470000000  0.4441430000000  0.5103920000000 1.0
C      1  0.4448800000000  0.5075150000000  0.5430700000000 1.0
C      1  0.5086870000000  0.5487280000000  0.5547920000000 1.0
C      1  0.4912940000000  0.4641270000000  0.4468530000000 1.0
C      1  0.5110920000000  0.4631680000000  0.5576030000000 1.0
C      1  0.4651570000000  0.4429520000000  0.4940860000000 1.0
C      1  0.4573640000000  0.5532500000000  0.5099260000000 1.0
C      1  0.5431050000000  0.5534650000000  0.4925270000000 1.0
C      1  0.5503130000000  0.5120010000000  0.4615620000000 1.0
C      1  0.5568390000000  0.4893340000000  0.5437480000000 1.0
C      1  0.4507830000000  0.4950260000000  0.4604990000000 1.0
C      1  0.5208460000000  0.5685600000000  0.5102740000000 1.0
C      1  0.5727450000000  0.5061580000000  0.5210460000000 1.0
C      1  0.5221830000000  0.5195500000000  0.5649480000000 1.0
C      1  0.4823390000000  0.5791460000000  0.4764020000000 1.0
C      1  0.4885590000000  0.4213300000000  0.5276080000000 1.0
C      1  0.5153400000000  0.4234270000000  0.4798750000000 1.0
C      1  0.4220190000000  0.5171240000000  0.4771620000000 1.0
C      1  0.4262880000000  0.4820190000000  0.5185040000000 1.0
C      1  0.5792240000000  0.4893560000000  0.4800170000000 1.0
C      1  0.4968480000000  0.5262150000000  0.4297570000000 1.0
C      1  0.4742980000000  0.4853460000000  0.5808040000000 1.0
C      1  0.5276890000000  0.4832240000000  0.4212530000000 1.0
C      1  0.5011110000000  0.5374420000000  0.5267960000000 1.0
C      1  0.5265310000000  0.5217720000000  0.5103720000000 1.0
C      1  0.5206940000000  0.5035740000000  0.5348580000000 1.0
C      1  0.4918660000000  0.5282930000000  0.4835620000000 1.0
C      1  0.4980320000000  0.4702260000000  0.5224360000000 1.0
C      1  0.5027290000000  0.4699930000000  0.4828550000000 1.0
C      1  0.4620490000000  0.5215780000000  0.4962710000000 1.0
C      1  0.4713210000000  0.4812370000000  0.5048540000000 1.0
C      1  0.5299250000000  0.4819970000000  0.4987350000000 1.0
C      1  0.4795450000000  0.5068860000000  0.4627770000000 1.0
C      1  0.4814590000000  0.4975210000000  0.5309410000000 1.0
C      1  0.5167630000000  0.4965140000000  0.4714540000000 1.0
C      1  0.5515840000000  0.4782240000000  0.4654280000000 1.0
C      1  0.4770690000000  0.4620280000000  0.5562040000000 1.0
C      1  0.4592150000000  0.5559190000000  0.4760770000000 1.0
C      1  0.4494770000000  0.4739390000000  0.5400290000000 1.0
C      1  0.4465760000000  0.5287740000000  0.4599200000000 1.0
C      1  0.5548060000000  0.5233030000000  0.5416640000000 1.0
C      1  0.5253170000000  0.4639790000000  0.4491860000000 1.0
C      1  0.5413500000000  0.5475400000000  0.5598320000000 1.0
C      1  0.4754490000000  0.5440840000000  0.4492200000000 1.0
C      1  0.5462660000000  0.5524600000000  0.5263860000000 1.0
C      1  0.5374230000000  0.4491570000000  0.4773410000000 1.0
C      1  0.4660550000000  0.4468190000000  0.5278590000000 1.0
C      1  0.4900500000000  0.5571800000000  0.5014150000000 1.0
C      1  0.5526950000000  0.5058980000000  0.4949270000000 1.0
C      1  0.4992500000000  0.4949680000000  0.5598070000000 1.0
C      1  0.4980930000000  0.4426540000000  0.5025350000000 1.0
C      1  0.4422460000000  0.4946550000000  0.4934110000000 1.0
C      1  0.5025770000000  0.4955840000000  0.4405630000000 1.0
C      1  0.5252640000000  0.5289380000000  0.4771490000000 1.0
C      1  0.5309180000000  0.4713690000000  0.5310220000000 1.0
C      1  0.4687260000000  0.5273370000000  0.5291090000000 1.0
C      1  0.4701860000000  0.4693700000000  0.4730070000000 1.0
END
