TITL C-3289335-9438-699 -0.00042517200505188 125000 -229.934497207909 0 0 42 (C6) n - 1
REM
REM in /nfs/bkarasulu/CARBON/AIRSS/Generating-Clusters/AIREBO/with-SteepDescent/Higher-Symm/SD-CG/HFTN-CG
REM
REM
REM
REM
REM
REM ./C.cell (b20cbc046b6831c77cfcea5457e17084)
REM
REM compiler GCC version 9.2.1 20190827 (Red Hat 9.2.1-1)
REM options -cpp -mtune=generic -march=x86-64 -g -O0 -fpre-include=/usr/include/finclude/math-vector-fortran.h
REM seed 993144069 -682792604 -747457278 -2095721160 230534409 1561005857 1358294067 -1629922177 -73064146 770550481 -751962555 337591663 1640259383 1568425708 -1142599253 386595434 733665589 2127484969 -1956155089 -959748524 602997223 -210197920 478618987 -659471222 1593453688 884064362 432534740 1472156237 901101007 754353354 -2076345450 337071095 -1792483375
REM
CELL 1.54180   50.00000   50.00000   50.00000   90.00000   90.00000   90.00000
LATT -1
SFAC C  
C      1  0.5396970000000  0.5421290000000  0.5600980000000 1.0
C      1  0.5397330000000  0.5731100000000  0.4935630000000 1.0
C      1  0.5397250000000  0.5309660000000  0.4334550000000 1.0
C      1  0.5397420000000  0.4578600000000  0.4399380000000 1.0
C      1  0.5396840000000  0.4268590000000  0.5064720000000 1.0
C      1  0.5396630000000  0.4690120000000  0.5665710000000 1.0
C      1  0.4738640000000  0.5441700000000  0.4382960000000 1.0
C      1  0.4738540000000  0.5755270000000  0.5073930000000 1.0
C      1  0.4738220000000  0.5313580000000  0.5690890000000 1.0
C      1  0.4737940000000  0.4558420000000  0.5616830000000 1.0
C      1  0.4738230000000  0.4244910000000  0.4925850000000 1.0
C      1  0.4738710000000  0.4686570000000  0.4308880000000 1.0
C      1  0.4699520000000  0.5599260000000  0.4573730000000 1.0
C      1  0.4699560000000  0.4930550000000  0.4267840000000 1.0
C      1  0.4699290000000  0.4331400000000  0.4694020000000 1.0
C      1  0.4698900000000  0.4400880000000  0.5426040000000 1.0
C      1  0.4699010000000  0.5069600000000  0.5731910000000 1.0
C      1  0.4699310000000  0.5668810000000  0.5305730000000 1.0
C      1  0.5185480000000  0.5508180000000  0.5375870000000 1.0
C      1  0.5185200000000  0.4928520000000  0.5628120000000 1.0
C      1  0.5185240000000  0.4420170000000  0.5252330000000 1.0
C      1  0.5185630000000  0.4491660000000  0.4624190000000 1.0
C      1  0.5185720000000  0.5071340000000  0.4372080000000 1.0
C      1  0.5185730000000  0.5579810000000  0.4747780000000 1.0
C      1  0.5193680000000  0.5520840000000  0.5082650000000 1.0
C      1  0.5193670000000  0.5332200000000  0.4590180000000 1.0
C      1  0.5193790000000  0.4811150000000  0.4507830000000 1.0
C      1  0.5193470000000  0.4478930000000  0.4917430000000 1.0
C      1  0.5193240000000  0.4667760000000  0.5409900000000 1.0
C      1  0.5193380000000  0.5188760000000  0.5492450000000 1.0
C      1  0.4865500000000  0.5612800000000  0.4834810000000 1.0
C      1  0.4865240000000  0.5449430000000  0.5447960000000 1.0
C      1  0.4864970000000  0.4836720000000  0.5613110000000 1.0
C      1  0.4865070000000  0.4387310000000  0.5165090000000 1.0
C      1  0.4865470000000  0.4550660000000  0.4551900000000 1.0
C      1  0.4865540000000  0.5163340000000  0.4386790000000 1.0
C      1  0.4966400000000  0.5209270000000  0.5230570000000 1.0
C      1  0.4966500000000  0.5095110000000  0.4703500000000 1.0
C      1  0.4966530000000  0.4695630000000  0.5065950000000 1.0
C      1  0.4966280000000  0.4904950000000  0.5296500000000 1.0
C      1  0.4966820000000  0.5304420000000  0.4934030000000 1.0
C      1  0.4966750000000  0.4790740000000  0.4769410000000 1.0
END
