TITL C-3289323-3850-84 -0.00488003211018672 125000 -245.148239192603 0 0 47 (C1) n - 1
REM
REM in /nfs/bkarasulu/CARBON/AIRSS/Generating-Clusters/AIREBO/with-SteepDescent/Higher-Symm/SD-CG/HFTN-CG
REM
REM
REM
REM
REM
REM ./C.cell (b20cbc046b6831c77cfcea5457e17084)
REM
REM compiler GCC version 9.2.1 20190827 (Red Hat 9.2.1-1)
REM options -cpp -mtune=generic -march=x86-64 -g -O0 -fpre-include=/usr/include/finclude/math-vector-fortran.h
REM seed -529537820 -271198544 -1386126212 1892508311 -960249013 -1774084706 454450009 1343751103 974160927 1166342757 2018156411 -1243648029 413455466 -1797254347 -2043403452 -255756449 -1812911047 -574525223 -534389049 842373613 -966326911 -239159725 862096301 1421002112 -1868834583 -135440741 -61822473 1342613114 -1708044930 209465993 484158930 1010183402 -500410111
REM
CELL 1.54180   50.00000   50.00000   50.00000   90.00000   90.00000   90.00000
LATT -1
SFAC C  
C      1  0.4491700000000  0.4785030000000  0.4821070000000 1.0
C      1  0.5036490000000  0.4634650000000  0.4689390000000 1.0
C      1  0.5536070000000  0.4640540000000  0.4943440000000 1.0
C      1  0.4897220000000  0.4979580000000  0.4834340000000 1.0
C      1  0.5324460000000  0.4306080000000  0.4993930000000 1.0
C      1  0.4712120000000  0.4569850000000  0.4675410000000 1.0
C      1  0.5102420000000  0.4917000000000  0.4581620000000 1.0
C      1  0.4726740000000  0.5087910000000  0.5312730000000 1.0
C      1  0.4922870000000  0.4887490000000  0.5154310000000 1.0
C      1  0.5345250000000  0.5070480000000  0.5148090000000 1.0
C      1  0.4636290000000  0.5396310000000  0.5211780000000 1.0
C      1  0.4599550000000  0.4599600000000  0.5056660000000 1.0
C      1  0.4699660000000  0.4512990000000  0.5321850000000 1.0
C      1  0.4979640000000  0.5405140000000  0.4817290000000 1.0
C      1  0.5210040000000  0.4528370000000  0.5200410000000 1.0
C      1  0.5276460000000  0.5233670000000  0.5667080000000 1.0
C      1  0.4506450000000  0.4935110000000  0.4515920000000 1.0
C      1  0.5449010000000  0.5368680000000  0.5248880000000 1.0
C      1  0.5435770000000  0.5576830000000  0.4822030000000 1.0
C      1  0.4774210000000  0.5674310000000  0.4760970000000 1.0
C      1  0.4668880000000  0.5132720000000  0.4740000000000 1.0
C      1  0.5485910000000  0.4811980000000  0.5515310000000 1.0
C      1  0.5316760000000  0.4495160000000  0.4722000000000 1.0
C      1  0.4935460000000  0.4581250000000  0.5006920000000 1.0
C      1  0.4859830000000  0.4250880000000  0.4978120000000 1.0
C      1  0.4952990000000  0.4578640000000  0.5405590000000 1.0
C      1  0.5114350000000  0.5176310000000  0.5353640000000 1.0
C      1  0.5433660000000  0.4771230000000  0.5205170000000 1.0
C      1  0.5351190000000  0.5085890000000  0.4516350000000 1.0
C      1  0.4453130000000  0.5030820000000  0.5442860000000 1.0
C      1  0.5208780000000  0.5087890000000  0.4886240000000 1.0
C      1  0.5476220000000  0.5388450000000  0.5527620000000 1.0
C      1  0.4348210000000  0.5241980000000  0.4709840000000 1.0
C      1  0.4332330000000  0.5051880000000  0.4936360000000 1.0
C      1  0.4813410000000  0.5655140000000  0.5079580000000 1.0
C      1  0.5368580000000  0.5594050000000  0.5097870000000 1.0
C      1  0.5126250000000  0.5730980000000  0.5166320000000 1.0
C      1  0.5011960000000  0.4878700000000  0.5482460000000 1.0
C      1  0.4970300000000  0.5363630000000  0.5157100000000 1.0
C      1  0.4611820000000  0.5180110000000  0.4352110000000 1.0
C      1  0.5276350000000  0.5350240000000  0.4688550000000 1.0
C      1  0.5274570000000  0.4941830000000  0.5633720000000 1.0
C      1  0.5569640000000  0.4927080000000  0.4486340000000 1.0
C      1  0.4746060000000  0.5405010000000  0.4570170000000 1.0
C      1  0.4684510000000  0.4303960000000  0.4752700000000 1.0
C      1  0.5577540000000  0.4689270000000  0.4631630000000 1.0
C      1  0.4368900000000  0.5185280000000  0.5178210000000 1.0
END
