TITL C-3289320-4661-73 0.003181048889992 125000 -936.037776710446 0 0 172 (C1) n - 1
REM
REM in /nfs/bkarasulu/CARBON/AIRSS/Generating-Clusters/AIREBO/with-SteepDescent/Higher-Symm/SD-CG/HFTN-CG
REM
REM
REM
REM
REM
REM ./C.cell (b20cbc046b6831c77cfcea5457e17084)
REM
REM compiler GCC version 9.2.1 20190827 (Red Hat 9.2.1-1)
REM options -cpp -mtune=generic -march=x86-64 -g -O0 -fpre-include=/usr/include/finclude/math-vector-fortran.h
REM seed -733317612 1771919642 -944178040 -80390736 82679945 1673472846 -667498676 178320411 1678191014 1236447136 1289813768 -986849434 -1858705212 717046550 -174316540 1949462712 -963206422 -338712778 1108548485 -866411002 1403871346 1537936671 1424820450 -1817482233 373293819 -2104233949 787665125 -119006456 227023092 -1976707028 694621745 1625538302 969197877
REM
CELL 1.54180   50.00000   50.00000   50.00000   90.00000   90.00000   90.00000
LATT -1
SFAC C  
C      1  0.5489130000000  0.4706210000000  0.5580900000000 1.0
C      1  0.4696090000000  0.4684970000000  0.4420260000000 1.0
C      1  0.5300680000000  0.4634380000000  0.4437420000000 1.0
C      1  0.4525670000000  0.4717120000000  0.5552360000000 1.0
C      1  0.5995390000000  0.5059300000000  0.5460480000000 1.0
C      1  0.3959540000000  0.5058540000000  0.4505130000000 1.0
C      1  0.5954510000000  0.5029750000000  0.4505270000000 1.0
C      1  0.4117620000000  0.5096450000000  0.5524670000000 1.0
C      1  0.3998490000000  0.4620690000000  0.4857090000000 1.0
C      1  0.6009320000000  0.4600270000000  0.5124770000000 1.0
C      1  0.4036270000000  0.4646310000000  0.5176980000000 1.0
C      1  0.6042810000000  0.4599150000000  0.4814620000000 1.0
C      1  0.5510810000000  0.5299330000000  0.4930340000000 1.0
C      1  0.4611900000000  0.5284040000000  0.5282150000000 1.0
C      1  0.5467930000000  0.5249800000000  0.5226640000000 1.0
C      1  0.4599860000000  0.5345610000000  0.4943160000000 1.0
C      1  0.5649030000000  0.4938140000000  0.4261610000000 1.0
C      1  0.4379320000000  0.4968360000000  0.5823650000000 1.0
C      1  0.5608240000000  0.5010800000000  0.5800880000000 1.0
C      1  0.4394870000000  0.5003250000000  0.4198000000000 1.0
C      1  0.4780390000000  0.5735220000000  0.4743040000000 1.0
C      1  0.5054150000000  0.6089570000000  0.4907750000000 1.0
C      1  0.4830510000000  0.5897960000000  0.4972000000000 1.0
C      1  0.5181090000000  0.5844860000000  0.4788250000000 1.0
C      1  0.4886420000000  0.4680980000000  0.5203920000000 1.0
C      1  0.5233880000000  0.4662260000000  0.4831320000000 1.0
C      1  0.4893180000000  0.4687490000000  0.4857640000000 1.0
C      1  0.5205370000000  0.4743100000000  0.5304290000000 1.0
C      1  0.5719090000000  0.4476530000000  0.5475680000000 1.0
C      1  0.4380030000000  0.4644940000000  0.4539280000000 1.0
C      1  0.5552100000000  0.4572950000000  0.4600490000000 1.0
C      1  0.4357810000000  0.4445420000000  0.5516590000000 1.0
C      1  0.5109820000000  0.5633960000000  0.5217170000000 1.0
C      1  0.4860790000000  0.5427210000000  0.4784050000000 1.0
C      1  0.5117800000000  0.5600380000000  0.4905540000000 1.0
C      1  0.4831340000000  0.5750190000000  0.5269430000000 1.0
C      1  0.5988280000000  0.5417470000000  0.4862330000000 1.0
C      1  0.4032170000000  0.5412020000000  0.5294560000000 1.0
C      1  0.5948050000000  0.5505810000000  0.5188760000000 1.0
C      1  0.3993100000000  0.5394050000000  0.4725800000000 1.0
C      1  0.5574450000000  0.5755090000000  0.4557330000000 1.0
C      1  0.4533580000000  0.5978350000000  0.5464040000000 1.0
C      1  0.5478630000000  0.5883140000000  0.5450910000000 1.0
C      1  0.4396760000000  0.5744100000000  0.4466160000000 1.0
C      1  0.5690960000000  0.4140080000000  0.5083540000000 1.0
C      1  0.4359810000000  0.4239470000000  0.4809510000000 1.0
C      1  0.5621580000000  0.4227740000000  0.4789280000000 1.0
C      1  0.4405040000000  0.4225920000000  0.5127930000000 1.0
C      1  0.5516800000000  0.4514140000000  0.4926570000000 1.0
C      1  0.4499760000000  0.4529830000000  0.5046610000000 1.0
C      1  0.5560060000000  0.4589530000000  0.5205870000000 1.0
C      1  0.4562510000000  0.4727900000000  0.4792200000000 1.0
C      1  0.4823980000000  0.4351520000000  0.5195570000000 1.0
C      1  0.5153900000000  0.4359030000000  0.4962720000000 1.0
C      1  0.4839090000000  0.4351800000000  0.4855710000000 1.0
C      1  0.5213560000000  0.4404880000000  0.5267870000000 1.0
C      1  0.4836360000000  0.5212370000000  0.4521400000000 1.0
C      1  0.5161070000000  0.5202650000000  0.5504490000000 1.0
C      1  0.4854010000000  0.5097360000000  0.5606740000000 1.0
C      1  0.5181710000000  0.5146180000000  0.4564080000000 1.0
C      1  0.4833490000000  0.4783930000000  0.5523640000000 1.0
C      1  0.5192600000000  0.4903540000000  0.4348380000000 1.0
C      1  0.4863430000000  0.4944380000000  0.4313730000000 1.0
C      1  0.5161180000000  0.4776180000000  0.5639910000000 1.0
C      1  0.5212720000000  0.4067050000000  0.5228750000000 1.0
C      1  0.4842000000000  0.4031050000000  0.4729030000000 1.0
C      1  0.5145420000000  0.4113930000000  0.4759520000000 1.0
C      1  0.4914080000000  0.4029800000000  0.5258740000000 1.0
C      1  0.5426480000000  0.5589690000000  0.5185890000000 1.0
C      1  0.4448910000000  0.5634040000000  0.4941010000000 1.0
C      1  0.5617560000000  0.5558400000000  0.4908420000000 1.0
C      1  0.4567820000000  0.5601630000000  0.5241850000000 1.0
C      1  0.4579610000000  0.4308750000000  0.4362330000000 1.0
C      1  0.5276920000000  0.4253710000000  0.5795290000000 1.0
C      1  0.4530630000000  0.4207740000000  0.5608110000000 1.0
C      1  0.5367960000000  0.4208480000000  0.4366190000000 1.0
C      1  0.5117430000000  0.5163780000000  0.6098860000000 1.0
C      1  0.4753640000000  0.5253670000000  0.3859570000000 1.0
C      1  0.4948590000000  0.5382690000000  0.3700660000000 1.0
C      1  0.4824410000000  0.5219600000000  0.6128040000000 1.0
C      1  0.5501130000000  0.4718140000000  0.5898910000000 1.0
C      1  0.4483620000000  0.4748150000000  0.4168400000000 1.0
C      1  0.5542180000000  0.4692570000000  0.4219060000000 1.0
C      1  0.4403940000000  0.4663660000000  0.5846260000000 1.0
C      1  0.4381790000000  0.5682720000000  0.5584680000000 1.0
C      1  0.5667240000000  0.5456920000000  0.4419340000000 1.0
C      1  0.4252120000000  0.5567090000000  0.4317610000000 1.0
C      1  0.5564110000000  0.5561090000000  0.5559250000000 1.0
C      1  0.5120110000000  0.5055240000000  0.5199730000000 1.0
C      1  0.4870620000000  0.5024050000000  0.4802660000000 1.0
C      1  0.5203120000000  0.4998780000000  0.4869790000000 1.0
C      1  0.4810470000000  0.5067180000000  0.5134590000000 1.0
C      1  0.5861160000000  0.5718000000000  0.4831260000000 1.0
C      1  0.4068340000000  0.5651690000000  0.5143670000000 1.0
C      1  0.5903810000000  0.5787300000000  0.5222250000000 1.0
C      1  0.4059040000000  0.5636120000000  0.4857120000000 1.0
C      1  0.5620220000000  0.5941650000000  0.4812160000000 1.0
C      1  0.4301880000000  0.5799660000000  0.5278170000000 1.0
C      1  0.5605910000000  0.5876370000000  0.5146910000000 1.0
C      1  0.4300970000000  0.5767580000000  0.4730330000000 1.0
C      1  0.3905130000000  0.5189310000000  0.5187380000000 1.0
C      1  0.6157780000000  0.5123640000000  0.4853080000000 1.0
C      1  0.3942670000000  0.5150370000000  0.4893820000000 1.0
C      1  0.6043170000000  0.5192710000000  0.5165680000000 1.0
C      1  0.5521650000000  0.5055970000000  0.4754000000000 1.0
C      1  0.4589450000000  0.4831620000000  0.5175100000000 1.0
C      1  0.5490740000000  0.4910560000000  0.5225610000000 1.0
C      1  0.4533300000000  0.5066120000000  0.4811430000000 1.0
C      1  0.5143940000000  0.4879020000000  0.5963710000000 1.0
C      1  0.4853750000000  0.4993500000000  0.3976370000000 1.0
C      1  0.5153370000000  0.5098750000000  0.4086670000000 1.0
C      1  0.4822140000000  0.4975000000000  0.5910130000000 1.0
C      1  0.5106840000000  0.4404930000000  0.4366000000000 1.0
C      1  0.4838150000000  0.4305160000000  0.5535310000000 1.0
C      1  0.5147810000000  0.4279830000000  0.5553890000000 1.0
C      1  0.4851820000000  0.4422130000000  0.4523160000000 1.0
C      1  0.4719460000000  0.5722810000000  0.5589590000000 1.0
C      1  0.5377800000000  0.5605960000000  0.4322480000000 1.0
C      1  0.4698690000000  0.5740000000000  0.4447020000000 1.0
C      1  0.5238990000000  0.5656870000000  0.5530860000000 1.0
C      1  0.5482680000000  0.3981820000000  0.5199910000000 1.0
C      1  0.4572730000000  0.4156420000000  0.4630350000000 1.0
C      1  0.5395800000000  0.4108270000000  0.4622550000000 1.0
C      1  0.4597020000000  0.4054460000000  0.5326240000000 1.0
C      1  0.5156670000000  0.5416410000000  0.4168150000000 1.0
C      1  0.4842800000000  0.5563450000000  0.5801130000000 1.0
C      1  0.5110510000000  0.5459860000000  0.5721180000000 1.0
C      1  0.4848820000000  0.5471600000000  0.4301640000000 1.0
C      1  0.5401940000000  0.4476310000000  0.5990240000000 1.0
C      1  0.4576000000000  0.4458350000000  0.4114440000000 1.0
C      1  0.5427990000000  0.4415410000000  0.4130520000000 1.0
C      1  0.4467990000000  0.4384510000000  0.5896200000000 1.0
C      1  0.4207810000000  0.4466810000000  0.4728760000000 1.0
C      1  0.5858480000000  0.4326210000000  0.5223240000000 1.0
C      1  0.4169630000000  0.4401080000000  0.5292210000000 1.0
C      1  0.5853280000000  0.4440060000000  0.4682570000000 1.0
C      1  0.5155940000000  0.5986730000000  0.5538020000000 1.0
C      1  0.4922350000000  0.5861790000000  0.4254820000000 1.0
C      1  0.5160560000000  0.5813470000000  0.4208490000000 1.0
C      1  0.4869370000000  0.6026230000000  0.5556210000000 1.0
C      1  0.5786490000000  0.4805280000000  0.5469060000000 1.0
C      1  0.4255600000000  0.4922150000000  0.4563740000000 1.0
C      1  0.5732350000000  0.4817950000000  0.4633240000000 1.0
C      1  0.4297050000000  0.4880910000000  0.5431650000000 1.0
C      1  0.3879320000000  0.4850440000000  0.4743010000000 1.0
C      1  0.6163290000000  0.4808090000000  0.5338500000000 1.0
C      1  0.3916970000000  0.4927900000000  0.5327470000000 1.0
C      1  0.6126730000000  0.4834610000000  0.4695030000000 1.0
C      1  0.4188230000000  0.5308810000000  0.4477160000000 1.0
C      1  0.5794280000000  0.5332980000000  0.5440610000000 1.0
C      1  0.4271410000000  0.5390750000000  0.5524830000000 1.0
C      1  0.5918860000000  0.5304950000000  0.4557780000000 1.0
C      1  0.4491970000000  0.5155870000000  0.4486030000000 1.0
C      1  0.5495120000000  0.5227950000000  0.5564230000000 1.0
C      1  0.4521960000000  0.5170280000000  0.5589910000000 1.0
C      1  0.5495450000000  0.5171940000000  0.4435460000000 1.0
C      1  0.5254310000000  0.5366410000000  0.5979490000000 1.0
C      1  0.4650910000000  0.5414910000000  0.4055150000000 1.0
C      1  0.5158480000000  0.5486500000000  0.3848200000000 1.0
C      1  0.4741910000000  0.5471650000000  0.6035470000000 1.0
C      1  0.4894100000000  0.4715310000000  0.3822390000000 1.0
C      1  0.5098990000000  0.4644120000000  0.6184600000000 1.0
C      1  0.4828950000000  0.4647840000000  0.6003540000000 1.0
C      1  0.5186610000000  0.4781790000000  0.3967470000000 1.0
C      1  0.4272700000000  0.4851530000000  0.5114390000000 1.0
C      1  0.5833670000000  0.5026360000000  0.4886090000000 1.0
C      1  0.4218380000000  0.5013400000000  0.4875040000000 1.0
C      1  0.5820780000000  0.4882360000000  0.5148330000000 1.0
C      1  0.5102070000000  0.4461040000000  0.4044540000000 1.0
C      1  0.4793400000000  0.4351490000000  0.5869450000000 1.0
C      1  0.5087210000000  0.4347350000000  0.6043320000000 1.0
C      1  0.4794310000000  0.4451670000000  0.3933860000000 1.0
END
