TITL C-3289332-8317-69 0.00405563359283154 125000 -487.319767108843 0 0 97 (C1) n - 1
REM
REM in /nfs/bkarasulu/CARBON/AIRSS/Generating-Clusters/AIREBO/with-SteepDescent/Higher-Symm/SD-CG/HFTN-CG
REM
REM
REM
REM
REM
REM ./C.cell (b20cbc046b6831c77cfcea5457e17084)
REM
REM compiler GCC version 9.2.1 20190827 (Red Hat 9.2.1-1)
REM options -cpp -mtune=generic -march=x86-64 -g -O0 -fpre-include=/usr/include/finclude/math-vector-fortran.h
REM seed 1515473243 1573964860 -590742526 642158202 1147951486 1793446864 -1887249975 1051446103 1131316445 53423633 685214594 1456541745 517268671 1232779368 -910729969 -846117190 -1143622798 137004134 602011324 -1211284335 -1099969228 -258548130 -1797154106 1662117272 -1292123343 -1624952130 -1772235692 -662152954 920225763 -1292754359 -2120504582 1017784030 1851221086
REM
CELL 1.54180   50.00000   50.00000   50.00000   90.00000   90.00000   90.00000
LATT -1
SFAC C  
C      1  0.4578360000000  0.4775560000000  0.4434150000000 1.0
C      1  0.5455130000000  0.4754910000000  0.4451670000000 1.0
C      1  0.4605770000000  0.4495700000000  0.4548430000000 1.0
C      1  0.5438420000000  0.4462210000000  0.4560020000000 1.0
C      1  0.5504960000000  0.5388930000000  0.5373270000000 1.0
C      1  0.4545090000000  0.5327400000000  0.5447110000000 1.0
C      1  0.5328840000000  0.5653880000000  0.4946120000000 1.0
C      1  0.4653950000000  0.5588480000000  0.4983050000000 1.0
C      1  0.4717570000000  0.5584100000000  0.5557510000000 1.0
C      1  0.5330970000000  0.5622940000000  0.5517700000000 1.0
C      1  0.4701510000000  0.4830640000000  0.5623660000000 1.0
C      1  0.5275590000000  0.4795030000000  0.5540350000000 1.0
C      1  0.5694370000000  0.4929540000000  0.4557720000000 1.0
C      1  0.4332840000000  0.4952220000000  0.4538730000000 1.0
C      1  0.4651360000000  0.5531050000000  0.4461750000000 1.0
C      1  0.5310600000000  0.5529340000000  0.4435760000000 1.0
C      1  0.5436990000000  0.5640660000000  0.4645210000000 1.0
C      1  0.4528010000000  0.5599090000000  0.4688410000000 1.0
C      1  0.5343620000000  0.5165200000000  0.5182240000000 1.0
C      1  0.4727370000000  0.5218700000000  0.5181250000000 1.0
C      1  0.5356040000000  0.4836540000000  0.4172240000000 1.0
C      1  0.4693920000000  0.4848120000000  0.4161220000000 1.0
C      1  0.5284050000000  0.4479460000000  0.4826620000000 1.0
C      1  0.4662700000000  0.4535020000000  0.4865240000000 1.0
C      1  0.4324260000000  0.5078450000000  0.5404560000000 1.0
C      1  0.5697810000000  0.5109150000000  0.5343550000000 1.0
C      1  0.4568940000000  0.5610980000000  0.5261030000000 1.0
C      1  0.5465000000000  0.5681970000000  0.5211760000000 1.0
C      1  0.5584640000000  0.5143680000000  0.4728980000000 1.0
C      1  0.4403070000000  0.5091320000000  0.4793410000000 1.0
C      1  0.4684030000000  0.4916060000000  0.4725610000000 1.0
C      1  0.5331260000000  0.4916890000000  0.4724540000000 1.0
C      1  0.4616340000000  0.4927850000000  0.5309140000000 1.0
C      1  0.5446440000000  0.4881820000000  0.5300920000000 1.0
C      1  0.4355400000000  0.5409440000000  0.4857010000000 1.0
C      1  0.5616230000000  0.5460200000000  0.4816010000000 1.0
C      1  0.5256090000000  0.4243620000000  0.5031340000000 1.0
C      1  0.4615240000000  0.4286800000000  0.5068610000000 1.0
C      1  0.5630560000000  0.5224660000000  0.5033180000000 1.0
C      1  0.4405110000000  0.5193990000000  0.5098560000000 1.0
C      1  0.4551980000000  0.4538970000000  0.5245730000000 1.0
C      1  0.5359710000000  0.4458160000000  0.5216620000000 1.0
C      1  0.4670730000000  0.4542970000000  0.5508750000000 1.0
C      1  0.5253940000000  0.4501120000000  0.5475890000000 1.0
C      1  0.4543900000000  0.4786050000000  0.5008730000000 1.0
C      1  0.5405450000000  0.4734060000000  0.5005080000000 1.0
C      1  0.4723310000000  0.4902220000000  0.5921040000000 1.0
C      1  0.5284960000000  0.4882210000000  0.5833520000000 1.0
C      1  0.4989140000000  0.5638010000000  0.4953340000000 1.0
C      1  0.4840820000000  0.4071010000000  0.5806600000000 1.0
C      1  0.4948450000000  0.6093070000000  0.5790730000000 1.0
C      1  0.5039070000000  0.4577170000000  0.4210190000000 1.0
C      1  0.4870100000000  0.4333630000000  0.4592270000000 1.0
C      1  0.4966090000000  0.5908160000000  0.5555690000000 1.0
C      1  0.5017910000000  0.5708700000000  0.5284680000000 1.0
C      1  0.5063270000000  0.5593750000000  0.5983560000000 1.0
C      1  0.5011100000000  0.6034520000000  0.5251140000000 1.0
C      1  0.5180630000000  0.4018300000000  0.4377160000000 1.0
C      1  0.5039460000000  0.5595130000000  0.5666530000000 1.0
C      1  0.5081130000000  0.5128130000000  0.5897260000000 1.0
C      1  0.4987360000000  0.4599510000000  0.4768920000000 1.0
C      1  0.4991670000000  0.5309780000000  0.3861250000000 1.0
C      1  0.4932110000000  0.4165410000000  0.5046690000000 1.0
C      1  0.4946650000000  0.4026440000000  0.5505400000000 1.0
C      1  0.4927780000000  0.4348570000000  0.3987560000000 1.0
C      1  0.5030080000000  0.5057620000000  0.3847060000000 1.0
C      1  0.5089030000000  0.3913150000000  0.4625910000000 1.0
C      1  0.4904240000000  0.4105150000000  0.4737740000000 1.0
C      1  0.5116720000000  0.3735370000000  0.5461170000000 1.0
C      1  0.4992020000000  0.4945340000000  0.5513110000000 1.0
C      1  0.4925630000000  0.4332850000000  0.5899580000000 1.0
C      1  0.4941210000000  0.4450270000000  0.5232170000000 1.0
C      1  0.5028530000000  0.5191950000000  0.5057340000000 1.0
C      1  0.5141190000000  0.6012740000000  0.4235530000000 1.0
C      1  0.5072010000000  0.3779750000000  0.4898260000000 1.0
C      1  0.5007430000000  0.4514150000000  0.6074370000000 1.0
C      1  0.4963780000000  0.3884250000000  0.5196510000000 1.0
C      1  0.5026240000000  0.4907370000000  0.4129480000000 1.0
C      1  0.5028490000000  0.5353540000000  0.4771030000000 1.0
C      1  0.5036080000000  0.5152110000000  0.4367470000000 1.0
C      1  0.4951350000000  0.5907110000000  0.4750230000000 1.0
C      1  0.5032570000000  0.5728890000000  0.4157150000000 1.0
C      1  0.5102320000000  0.4240580000000  0.4230900000000 1.0
C      1  0.4923290000000  0.6119290000000  0.5014440000000 1.0
C      1  0.5025900000000  0.5429280000000  0.4123550000000 1.0
C      1  0.5054600000000  0.5403830000000  0.5317510000000 1.0
C      1  0.5012990000000  0.5263360000000  0.5596050000000 1.0
C      1  0.4975650000000  0.5474450000000  0.4457570000000 1.0
C      1  0.4811520000000  0.6218160000000  0.4741970000000 1.0
C      1  0.4954710000000  0.4362530000000  0.5558950000000 1.0
C      1  0.5007460000000  0.5008990000000  0.4674690000000 1.0
C      1  0.5082570000000  0.5364780000000  0.6091330000000 1.0
C      1  0.4903880000000  0.4759460000000  0.5241260000000 1.0
C      1  0.5018370000000  0.4862710000000  0.4982010000000 1.0
C      1  0.5030370000000  0.5808810000000  0.4487630000000 1.0
C      1  0.5015180000000  0.4814310000000  0.6019940000000 1.0
C      1  0.5057430000000  0.4731690000000  0.4484310000000 1.0
END
