TITL C-3289324-3781-140 0.00350780529673707 125000 -1036.91483190677 0 0 196 (C1) n - 1
REM
REM in /nfs/bkarasulu/CARBON/AIRSS/Generating-Clusters/AIREBO/with-SteepDescent/Higher-Symm/SD-CG/HFTN-CG
REM
REM
REM
REM
REM
REM ./C.cell (b20cbc046b6831c77cfcea5457e17084)
REM
REM compiler GCC version 9.2.1 20190827 (Red Hat 9.2.1-1)
REM options -cpp -mtune=generic -march=x86-64 -g -O0 -fpre-include=/usr/include/finclude/math-vector-fortran.h
REM seed -475221797 -46110824 1544411004 2125388462 -1187294430 -380125742 -885853659 1466828227 -819031288 -117479371 -371400913 -1878822687 -1061428695 -716251124 189973439 -357578833 772902305 796149957 -1270709796 -282113419 -823175459 -1266359787 1656757191 -441851191 -111049283 851358540 -1975532724 1387579733 -781031961 968345869 744426831 -1994354365 96201218
REM
CELL 1.54180   50.00000   50.00000   50.00000   90.00000   90.00000   90.00000
LATT -1
SFAC C  
C      1  0.4721440000000  0.5461340000000  0.4994210000000 1.0
C      1  0.4966680000000  0.4885420000000  0.5363250000000 1.0
C      1  0.5379480000000  0.4986970000000  0.4745160000000 1.0
C      1  0.4702710000000  0.4605700000000  0.4998580000000 1.0
C      1  0.5199350000000  0.4682210000000  0.4957010000000 1.0
C      1  0.5219270000000  0.5285150000000  0.5169430000000 1.0
C      1  0.5096740000000  0.5235620000000  0.4615160000000 1.0
C      1  0.4986010000000  0.5280030000000  0.5416820000000 1.0
C      1  0.5067540000000  0.4853210000000  0.4723230000000 1.0
C      1  0.5448500000000  0.5086100000000  0.5265530000000 1.0
C      1  0.4550020000000  0.5006090000000  0.4768790000000 1.0
C      1  0.4699300000000  0.4882840000000  0.5195660000000 1.0
C      1  0.4052530000000  0.5148970000000  0.6008370000000 1.0
C      1  0.5951020000000  0.4243670000000  0.4854820000000 1.0
C      1  0.4920900000000  0.5834450000000  0.4188440000000 1.0
C      1  0.4248920000000  0.5154260000000  0.4151690000000 1.0
C      1  0.5766990000000  0.5067310000000  0.5941550000000 1.0
C      1  0.5690320000000  0.4839980000000  0.4234200000000 1.0
C      1  0.6015650000000  0.5933430000000  0.4895810000000 1.0
C      1  0.4132160000000  0.5756940000000  0.4911340000000 1.0
C      1  0.4224140000000  0.4307520000000  0.5097710000000 1.0
C      1  0.4996440000000  0.3998380000000  0.5833160000000 1.0
C      1  0.5102480000000  0.4063110000000  0.4231890000000 1.0
C      1  0.5105260000000  0.5836800000000  0.5733060000000 1.0
C      1  0.4229370000000  0.5592050000000  0.5510610000000 1.0
C      1  0.5514900000000  0.4218020000000  0.5562040000000 1.0
C      1  0.5636890000000  0.5491180000000  0.4241350000000 1.0
C      1  0.4222200000000  0.4417040000000  0.4481410000000 1.0
C      1  0.5801920000000  0.4387110000000  0.5493370000000 1.0
C      1  0.5784920000000  0.5582620000000  0.4533570000000 1.0
C      1  0.5487180000000  0.5723690000000  0.4439200000000 1.0
C      1  0.4479080000000  0.5785450000000  0.5636560000000 1.0
C      1  0.4438700000000  0.4201670000000  0.4331740000000 1.0
C      1  0.5621880000000  0.4468500000000  0.5770160000000 1.0
C      1  0.4327180000000  0.4488580000000  0.4165910000000 1.0
C      1  0.4411400000000  0.5476080000000  0.5773420000000 1.0
C      1  0.5899240000000  0.4892810000000  0.5711780000000 1.0
C      1  0.5699970000000  0.5910680000000  0.4948960000000 1.0
C      1  0.4898540000000  0.5731390000000  0.5968540000000 1.0
C      1  0.5924140000000  0.5050160000000  0.4315180000000 1.0
C      1  0.4083000000000  0.5123840000000  0.5688400000000 1.0
C      1  0.4189040000000  0.4902480000000  0.4372250000000 1.0
C      1  0.5689790000000  0.4146500000000  0.5023310000000 1.0
C      1  0.4335450000000  0.4123470000000  0.4852800000000 1.0
C      1  0.4332400000000  0.5892210000000  0.5150540000000 1.0
C      1  0.4919490000000  0.4275220000000  0.4053090000000 1.0
C      1  0.5110330000000  0.4313420000000  0.5856240000000 1.0
C      1  0.5161120000000  0.5612550000000  0.4095250000000 1.0
C      1  0.6047320000000  0.4645870000000  0.5024860000000 1.0
C      1  0.4999130000000  0.5966580000000  0.4555750000000 1.0
C      1  0.4603920000000  0.5032720000000  0.5975820000000 1.0
C      1  0.6006790000000  0.5401920000000  0.5041020000000 1.0
C      1  0.3935490000000  0.5430490000000  0.5037760000000 1.0
C      1  0.3982240000000  0.4622520000000  0.4920770000000 1.0
C      1  0.5007510000000  0.3990730000000  0.5337780000000 1.0
C      1  0.4938800000000  0.4015360000000  0.4592960000000 1.0
C      1  0.4957930000000  0.5996570000000  0.5427490000000 1.0
C      1  0.4586500000000  0.4966520000000  0.3939420000000 1.0
C      1  0.5381470000000  0.5007400000000  0.6023610000000 1.0
C      1  0.5399990000000  0.4996560000000  0.3981220000000 1.0
C      1  0.4513850000000  0.4293360000000  0.5562700000000 1.0
C      1  0.5381440000000  0.4160630000000  0.4343450000000 1.0
C      1  0.4386090000000  0.5451650000000  0.4244250000000 1.0
C      1  0.4223150000000  0.5557040000000  0.4523920000000 1.0
C      1  0.5805060000000  0.5553330000000  0.5626050000000 1.0
C      1  0.5837110000000  0.4411590000000  0.4603620000000 1.0
C      1  0.5515840000000  0.5617000000000  0.5805750000000 1.0
C      1  0.4435640000000  0.5771640000000  0.4377510000000 1.0
C      1  0.4812250000000  0.4179730000000  0.5629390000000 1.0
C      1  0.4464250000000  0.4459000000000  0.5807650000000 1.0
C      1  0.5616170000000  0.4326000000000  0.4356940000000 1.0
C      1  0.5740230000000  0.5391200000000  0.5917990000000 1.0
C      1  0.4802340000000  0.5025500000000  0.3705500000000 1.0
C      1  0.3797160000000  0.4918030000000  0.4937090000000 1.0
C      1  0.4998980000000  0.3777950000000  0.4829010000000 1.0
C      1  0.4860460000000  0.4966740000000  0.6189120000000 1.0
C      1  0.5077170000000  0.5003170000000  0.3847300000000 1.0
C      1  0.5107370000000  0.4968350000000  0.6214290000000 1.0
C      1  0.3710130000000  0.5179400000000  0.4994410000000 1.0
C      1  0.6237450000000  0.5153820000000  0.5071090000000 1.0
C      1  0.6255410000000  0.4905040000000  0.5080160000000 1.0
C      1  0.4880120000000  0.6203340000000  0.5011670000000 1.0
C      1  0.4951370000000  0.6210910000000  0.4772150000000 1.0
C      1  0.5009190000000  0.3769400000000  0.5079510000000 1.0
C      1  0.4061370000000  0.4926190000000  0.5422460000000 1.0
C      1  0.5388280000000  0.4107130000000  0.4889440000000 1.0
C      1  0.4897160000000  0.5383370000000  0.4089050000000 1.0
C      1  0.4115760000000  0.5157940000000  0.4575750000000 1.0
C      1  0.5955920000000  0.5056960000000  0.5437870000000 1.0
C      1  0.5990270000000  0.4928160000000  0.4607690000000 1.0
C      1  0.5395940000000  0.5905450000000  0.5101720000000 1.0
C      1  0.4563780000000  0.5911200000000  0.4895920000000 1.0
C      1  0.4538860000000  0.3994820000000  0.5093050000000 1.0
C      1  0.4944910000000  0.4597960000000  0.5883890000000 1.0
C      1  0.5070460000000  0.4563830000000  0.4043360000000 1.0
C      1  0.5112810000000  0.5470170000000  0.5892480000000 1.0
C      1  0.5775020000000  0.5255860000000  0.4532070000000 1.0
C      1  0.4561210000000  0.5703400000000  0.5316920000000 1.0
C      1  0.5297390000000  0.4533300000000  0.5691780000000 1.0
C      1  0.5766230000000  0.4710350000000  0.5486440000000 1.0
C      1  0.4385050000000  0.4697670000000  0.4500530000000 1.0
C      1  0.4277640000000  0.5261860000000  0.5445240000000 1.0
C      1  0.4556140000000  0.4264900000000  0.4635740000000 1.0
C      1  0.5514550000000  0.4283360000000  0.5238710000000 1.0
C      1  0.5489110000000  0.5736970000000  0.4753170000000 1.0
C      1  0.5317410000000  0.5391080000000  0.4300740000000 1.0
C      1  0.4730160000000  0.5514460000000  0.5787450000000 1.0
C      1  0.4658070000000  0.4447660000000  0.4111520000000 1.0
C      1  0.4731730000000  0.4071700000000  0.4853590000000 1.0
C      1  0.4870110000000  0.4796740000000  0.4020910000000 1.0
C      1  0.4064390000000  0.4900160000000  0.4751990000000 1.0
C      1  0.4768910000000  0.5926960000000  0.5166710000000 1.0
C      1  0.5199790000000  0.5901980000000  0.4823150000000 1.0
C      1  0.5172790000000  0.4131750000000  0.5097810000000 1.0
C      1  0.4862060000000  0.5240640000000  0.5899690000000 1.0
C      1  0.5148190000000  0.5160970000000  0.4140010000000 1.0
C      1  0.5183030000000  0.4808270000000  0.5857450000000 1.0
C      1  0.4043610000000  0.5181170000000  0.5212140000000 1.0
C      1  0.5935110000000  0.5166000000000  0.4812080000000 1.0
C      1  0.5883150000000  0.4842860000000  0.5208680000000 1.0
C      1  0.5216570000000  0.4163450000000  0.4610470000000 1.0
C      1  0.4600570000000  0.5294920000000  0.4031570000000 1.0
C      1  0.3927130000000  0.4731860000000  0.5231860000000 1.0
C      1  0.5226040000000  0.6047940000000  0.5316340000000 1.0
C      1  0.4659090000000  0.5935160000000  0.4577430000000 1.0
C      1  0.4672670000000  0.4049370000000  0.5363230000000 1.0
C      1  0.4631580000000  0.4693230000000  0.5976560000000 1.0
C      1  0.5315130000000  0.4694270000000  0.3933890000000 1.0
C      1  0.5409720000000  0.5344000000000  0.5982990000000 1.0
C      1  0.3989150000000  0.5418180000000  0.4706380000000 1.0
C      1  0.5905250000000  0.5359140000000  0.5362850000000 1.0
C      1  0.5977180000000  0.4674630000000  0.4718120000000 1.0
C      1  0.5480470000000  0.5586850000000  0.5185120000000 1.0
C      1  0.5190550000000  0.5580410000000  0.5580330000000 1.0
C      1  0.5604580000000  0.5210750000000  0.5663580000000 1.0
C      1  0.5528020000000  0.4377250000000  0.4741090000000 1.0
C      1  0.4425900000000  0.4426800000000  0.5272400000000 1.0
C      1  0.4422350000000  0.5628450000000  0.4789300000000 1.0
C      1  0.5090660000000  0.4455270000000  0.4365150000000 1.0
C      1  0.4845930000000  0.4514440000000  0.5579720000000 1.0
C      1  0.4861530000000  0.5549730000000  0.4349450000000 1.0
C      1  0.5565420000000  0.4644070000000  0.4425770000000 1.0
C      1  0.4367550000000  0.4873960000000  0.5526080000000 1.0
C      1  0.4443540000000  0.5169300000000  0.4520510000000 1.0
C      1  0.5101900000000  0.5516510000000  0.4531900000000 1.0
C      1  0.4555370000000  0.5152420000000  0.5537970000000 1.0
C      1  0.5498150000000  0.4608310000000  0.5208440000000 1.0
C      1  0.5248160000000  0.4443960000000  0.5369400000000 1.0
C      1  0.4826080000000  0.4447890000000  0.4537590000000 1.0
C      1  0.4804580000000  0.5541490000000  0.5490640000000 1.0
C      1  0.4655280000000  0.4646490000000  0.4360210000000 1.0
C      1  0.5456960000000  0.4760380000000  0.5494790000000 1.0
C      1  0.5477200000000  0.5183610000000  0.4505870000000 1.0
C      1  0.5529900000000  0.5460310000000  0.4905270000000 1.0
C      1  0.4448570000000  0.5418500000000  0.5192880000000 1.0
C      1  0.4440010000000  0.4544000000000  0.4791640000000 1.0
C      1  0.4399560000000  0.5309380000000  0.4813040000000 1.0
C      1  0.4764880000000  0.4444160000000  0.5293440000000 1.0
C      1  0.5276270000000  0.4711090000000  0.4350500000000 1.0
C      1  0.4420440000000  0.4729470000000  0.5253020000000 1.0
C      1  0.5544090000000  0.4711080000000  0.4756560000000 1.0
C      1  0.5586600000000  0.5357890000000  0.5357530000000 1.0
C      1  0.4726400000000  0.5543460000000  0.4663030000000 1.0
C      1  0.5178320000000  0.5599360000000  0.5275460000000 1.0
C      1  0.5220790000000  0.4490610000000  0.4677410000000 1.0
C      1  0.5277810000000  0.5257560000000  0.5590370000000 1.0
C      1  0.4618010000000  0.5131420000000  0.4301850000000 1.0
C      1  0.4662370000000  0.4775400000000  0.5664690000000 1.0
C      1  0.5600710000000  0.4791120000000  0.5865790000000 1.0
C      1  0.5879140000000  0.5642990000000  0.4837630000000 1.0
C      1  0.4773420000000  0.5900850000000  0.5695440000000 1.0
C      1  0.5646510000000  0.5165120000000  0.4144840000000 1.0
C      1  0.4350520000000  0.5193660000000  0.5887150000000 1.0
C      1  0.4328740000000  0.4820440000000  0.4081760000000 1.0
C      1  0.5896390000000  0.4374980000000  0.5167320000000 1.0
C      1  0.4087620000000  0.4346230000000  0.4784950000000 1.0
C      1  0.4083360000000  0.5665990000000  0.5233950000000 1.0
C      1  0.4769530000000  0.4122400000000  0.4317240000000 1.0
C      1  0.5204030000000  0.4112410000000  0.5589200000000 1.0
C      1  0.5229690000000  0.5862470000000  0.4328010000000 1.0
C      1  0.5622930000000  0.5173090000000  0.4892580000000 1.0
C      1  0.4949620000000  0.5671070000000  0.5100550000000 1.0
C      1  0.5216190000000  0.4941030000000  0.5573030000000 1.0
C      1  0.5606880000000  0.4873460000000  0.5052650000000 1.0
C      1  0.4331080000000  0.4825030000000  0.4949070000000 1.0
C      1  0.4320570000000  0.5140240000000  0.5067020000000 1.0
C      1  0.4880490000000  0.4364440000000  0.4841590000000 1.0
C      1  0.5045600000000  0.4431960000000  0.5108270000000 1.0
C      1  0.5013160000000  0.5649930000000  0.4797110000000 1.0
C      1  0.5102340000000  0.4970740000000  0.4409910000000 1.0
C      1  0.4839150000000  0.5057210000000  0.5627610000000 1.0
C      1  0.4801180000000  0.4906070000000  0.4308780000000 1.0
C      1  0.5168750000000  0.5206950000000  0.4896190000000 1.0
C      1  0.4783770000000  0.5190500000000  0.5177200000000 1.0
C      1  0.5213170000000  0.4886020000000  0.5177500000000 1.0
C      1  0.4794070000000  0.4858470000000  0.4808240000000 1.0
END
