TITL C-3289331-6719-425 -0.00261928383172759 125000 -1093.91454655488 0 0 198 (C1) n - 1
REM
REM in /nfs/bkarasulu/CARBON/AIRSS/Generating-Clusters/AIREBO/with-SteepDescent/Higher-Symm/SD-CG/HFTN-CG
REM
REM
REM
REM
REM
REM ./C.cell (b20cbc046b6831c77cfcea5457e17084)
REM
REM compiler GCC version 9.2.1 20190827 (Red Hat 9.2.1-1)
REM options -cpp -mtune=generic -march=x86-64 -g -O0 -fpre-include=/usr/include/finclude/math-vector-fortran.h
REM seed 2016501272 -1603563497 -1807538138 1196443326 373213223 2010400903 -1930282202 -1840824480 992836718 16616469 2049102858 -967149918 418622641 237240458 -2131652427 1494865840 -2061019110 384071824 1603423920 1134936030 1771894248 217689868 880838673 800059648 -982524435 1722565122 -1789818860 527621924 -1282244263 -149666367 -2083886419 -1808604362 382205924
REM
CELL 1.54180   50.00000   50.00000   50.00000   90.00000   90.00000   90.00000
LATT -1
SFAC C  
C      1  0.4836620000000  0.5643550000000  0.5940930000000 1.0
C      1  0.5608200000000  0.5368060000000  0.5915990000000 1.0
C      1  0.5532950000000  0.4553950000000  0.5916700000000 1.0
C      1  0.4763160000000  0.4334820000000  0.5979840000000 1.0
C      1  0.4323510000000  0.4995320000000  0.5931610000000 1.0
C      1  0.4693040000000  0.4821450000000  0.4632360000000 1.0
C      1  0.4634940000000  0.5214390000000  0.4602720000000 1.0
C      1  0.4815890000000  0.5691190000000  0.4770940000000 1.0
C      1  0.5418150000000  0.5091890000000  0.4632690000000 1.0
C      1  0.5153410000000  0.4632690000000  0.4760140000000 1.0
C      1  0.4172380000000  0.5098460000000  0.4233670000000 1.0
C      1  0.4814570000000  0.5763070000000  0.4247690000000 1.0
C      1  0.5609420000000  0.5487010000000  0.4256910000000 1.0
C      1  0.5687880000000  0.4465980000000  0.4353210000000 1.0
C      1  0.4696440000000  0.4253090000000  0.4279330000000 1.0
C      1  0.4679660000000  0.4960630000000  0.4923170000000 1.0
C      1  0.4740080000000  0.5226430000000  0.5072110000000 1.0
C      1  0.5045260000000  0.5294590000000  0.5044130000000 1.0
C      1  0.5316540000000  0.5078910000000  0.5064760000000 1.0
C      1  0.5203210000000  0.4770350000000  0.5058590000000 1.0
C      1  0.5330560000000  0.4770950000000  0.4559610000000 1.0
C      1  0.4883350000000  0.4592110000000  0.4568130000000 1.0
C      1  0.4532580000000  0.4986280000000  0.4410110000000 1.0
C      1  0.4908750000000  0.5320880000000  0.4485430000000 1.0
C      1  0.5217810000000  0.5289390000000  0.4510750000000 1.0
C      1  0.5499150000000  0.5636430000000  0.5651870000000 1.0
C      1  0.5677660000000  0.4780990000000  0.5626890000000 1.0
C      1  0.4923350000000  0.4203510000000  0.5639180000000 1.0
C      1  0.4326820000000  0.4747180000000  0.5623670000000 1.0
C      1  0.4569610000000  0.5646140000000  0.5651330000000 1.0
C      1  0.4829260000000  0.4746350000000  0.4269710000000 1.0
C      1  0.4556360000000  0.5131590000000  0.4130220000000 1.0
C      1  0.5011420000000  0.5327620000000  0.4174240000000 1.0
C      1  0.5343690000000  0.5121370000000  0.4241950000000 1.0
C      1  0.5225550000000  0.4709000000000  0.4261730000000 1.0
C      1  0.5217310000000  0.6012280000000  0.5353980000000 1.0
C      1  0.6102950000000  0.5156390000000  0.5374410000000 1.0
C      1  0.5385920000000  0.4102430000000  0.5311960000000 1.0
C      1  0.4323100000000  0.4262070000000  0.5371820000000 1.0
C      1  0.4092320000000  0.5439060000000  0.5318460000000 1.0
C      1  0.4194400000000  0.4411540000000  0.4512090000000 1.0
C      1  0.4103280000000  0.5637650000000  0.4462350000000 1.0
C      1  0.5313890000000  0.5990340000000  0.4423770000000 1.0
C      1  0.5980140000000  0.4930670000000  0.4495360000000 1.0
C      1  0.5388090000000  0.3970770000000  0.4500760000000 1.0
C      1  0.3931770000000  0.5230080000000  0.4815990000000 1.0
C      1  0.4725700000000  0.6122890000000  0.4717760000000 1.0
C      1  0.5861510000000  0.5375010000000  0.4688010000000 1.0
C      1  0.5806410000000  0.4231500000000  0.4638180000000 1.0
C      1  0.4455790000000  0.4046780000000  0.4785670000000 1.0
C      1  0.5338790000000  0.4786080000000  0.5837080000000 1.0
C      1  0.4883800000000  0.4605250000000  0.5840240000000 1.0
C      1  0.4595290000000  0.5026210000000  0.5781470000000 1.0
C      1  0.4891570000000  0.5400210000000  0.5740210000000 1.0
C      1  0.5344770000000  0.5257680000000  0.5806540000000 1.0
C      1  0.5191740000000  0.4898730000000  0.6069060000000 1.0
C      1  0.4924900000000  0.4809210000000  0.6062130000000 1.0
C      1  0.4764090000000  0.5035290000000  0.6030740000000 1.0
C      1  0.4924900000000  0.5262000000000  0.6019210000000 1.0
C      1  0.5187540000000  0.5177080000000  0.6045040000000 1.0
C      1  0.5425230000000  0.5005760000000  0.5621350000000 1.0
C      1  0.5155780000000  0.4583330000000  0.5685760000000 1.0
C      1  0.4666750000000  0.4738340000000  0.5615070000000 1.0
C      1  0.4596660000000  0.5311350000000  0.5596170000000 1.0
C      1  0.5194540000000  0.5489710000000  0.5614440000000 1.0
C      1  0.6141730000000  0.5088710000000  0.5072250000000 1.0
C      1  0.5421140000000  0.3965000000000  0.5002800000000 1.0
C      1  0.4273330000000  0.4156090000000  0.5052180000000 1.0
C      1  0.4031770000000  0.5467920000000  0.4999360000000 1.0
C      1  0.5287670000000  0.6191930000000  0.5073830000000 1.0
C      1  0.4313660000000  0.4614880000000  0.5188200000000 1.0
C      1  0.4496560000000  0.5568580000000  0.5273340000000 1.0
C      1  0.5452880000000  0.5702270000000  0.5262950000000 1.0
C      1  0.5708700000000  0.4807160000000  0.5232660000000 1.0
C      1  0.5037580000000  0.3993680000000  0.5109070000000 1.0
C      1  0.5027510000000  0.4386340000000  0.3957900000000 1.0
C      1  0.4439750000000  0.4817250000000  0.3912400000000 1.0
C      1  0.4653230000000  0.5459080000000  0.3923970000000 1.0
C      1  0.5291700000000  0.5510810000000  0.3956140000000 1.0
C      1  0.5616790000000  0.4829180000000  0.4005150000000 1.0
C      1  0.4270800000000  0.4125820000000  0.4515250000000 1.0
C      1  0.3871930000000  0.5441770000000  0.4556750000000 1.0
C      1  0.5028890000000  0.6128910000000  0.4556590000000 1.0
C      1  0.6064550000000  0.5236300000000  0.4558760000000 1.0
C      1  0.5670470000000  0.4005010000000  0.4483520000000 1.0
C      1  0.4802550000000  0.5897660000000  0.4500960000000 1.0
C      1  0.5613590000000  0.5330950000000  0.4521920000000 1.0
C      1  0.5488190000000  0.4340960000000  0.4600230000000 1.0
C      1  0.4574740000000  0.4085420000000  0.4467120000000 1.0
C      1  0.4072420000000  0.5170980000000  0.4511080000000 1.0
C      1  0.5090390000000  0.5557370000000  0.4906250000000 1.0
C      1  0.5598030000000  0.4988360000000  0.4896240000000 1.0
C      1  0.5059680000000  0.4336800000000  0.4905530000000 1.0
C      1  0.4483170000000  0.4726430000000  0.4848940000000 1.0
C      1  0.4486880000000  0.5317380000000  0.4863950000000 1.0
C      1  0.5367850000000  0.4307860000000  0.5879710000000 1.0
C      1  0.4512290000000  0.4460490000000  0.5856580000000 1.0
C      1  0.4330190000000  0.5303430000000  0.5894100000000 1.0
C      1  0.5118070000000  0.5750240000000  0.5906960000000 1.0
C      1  0.5798640000000  0.5145250000000  0.5863850000000 1.0
C      1  0.4656850000000  0.5085140000000  0.5346980000000 1.0
C      1  0.5132740000000  0.5323570000000  0.5333400000000 1.0
C      1  0.5405950000000  0.5186240000000  0.5374900000000 1.0
C      1  0.5124520000000  0.4610620000000  0.5348250000000 1.0
C      1  0.4898290000000  0.4856780000000  0.5410530000000 1.0
C      1  0.4797130000000  0.5157490000000  0.3891210000000 1.0
C      1  0.5132450000000  0.5216470000000  0.3896080000000 1.0
C      1  0.5322080000000  0.4941630000000  0.3954060000000 1.0
C      1  0.5074800000000  0.4706480000000  0.3957280000000 1.0
C      1  0.4764140000000  0.4843520000000  0.3952910000000 1.0
C      1  0.3987890000000  0.4335010000000  0.4989390000000 1.0
C      1  0.4169900000000  0.5694940000000  0.4844890000000 1.0
C      1  0.5550860000000  0.6066590000000  0.4935550000000 1.0
C      1  0.6165170000000  0.4789400000000  0.4989380000000 1.0
C      1  0.5280460000000  0.3725840000000  0.4941300000000 1.0
C      1  0.5416720000000  0.5730910000000  0.4183550000000 1.0
C      1  0.5813560000000  0.4704890000000  0.4253060000000 1.0
C      1  0.4953880000000  0.4226300000000  0.4168320000000 1.0
C      1  0.4269160000000  0.4850550000000  0.4132250000000 1.0
C      1  0.4605970000000  0.5639260000000  0.4122540000000 1.0
C      1  0.5647290000000  0.4767440000000  0.4642300000000 1.0
C      1  0.4940660000000  0.4265060000000  0.4595190000000 1.0
C      1  0.4296080000000  0.4833770000000  0.4601900000000 1.0
C      1  0.4643240000000  0.5532250000000  0.4525450000000 1.0
C      1  0.5324490000000  0.5534020000000  0.4707890000000 1.0
C      1  0.5359030000000  0.4351410000000  0.5542110000000 1.0
C      1  0.4550630000000  0.4432510000000  0.5521450000000 1.0
C      1  0.4257840000000  0.5339670000000  0.5586170000000 1.0
C      1  0.5061550000000  0.5799300000000  0.5568730000000 1.0
C      1  0.5843230000000  0.5259710000000  0.5568180000000 1.0
C      1  0.4726120000000  0.6042980000000  0.5334030000000 1.0
C      1  0.5936860000000  0.5624860000000  0.5336490000000 1.0
C      1  0.5772360000000  0.4360120000000  0.5320190000000 1.0
C      1  0.4688380000000  0.3980830000000  0.5298500000000 1.0
C      1  0.3987890000000  0.4961810000000  0.5360430000000 1.0
C      1  0.3905380000000  0.5207760000000  0.5450870000000 1.0
C      1  0.4941990000000  0.6195720000000  0.5396530000000 1.0
C      1  0.6147740000000  0.5472850000000  0.5422000000000 1.0
C      1  0.5712380000000  0.4085270000000  0.5404070000000 1.0
C      1  0.4429320000000  0.3969510000000  0.5367110000000 1.0
C      1  0.4526650000000  0.5523530000000  0.5964460000000 1.0
C      1  0.5385850000000  0.5623210000000  0.5961690000000 1.0
C      1  0.5719550000000  0.4838240000000  0.5947110000000 1.0
C      1  0.5070600000000  0.4256520000000  0.5898330000000 1.0
C      1  0.4321330000000  0.4686020000000  0.5957260000000 1.0
C      1  0.4182830000000  0.5019990000000  0.5126180000000 1.0
C      1  0.4813610000000  0.5812950000000  0.5099190000000 1.0
C      1  0.5769100000000  0.5455350000000  0.5110380000000 1.0
C      1  0.5595160000000  0.4428050000000  0.5094590000000 1.0
C      1  0.4793910000000  0.4232120000000  0.5094740000000 1.0
C      1  0.4608990000000  0.4517100000000  0.4281340000000 1.0
C      1  0.4330900000000  0.5328850000000  0.4127760000000 1.0
C      1  0.5040910000000  0.5613500000000  0.4248270000000 1.0
C      1  0.5640150000000  0.5200790000000  0.4150880000000 1.0
C      1  0.5358590000000  0.4447460000000  0.4326330000000 1.0
C      1  0.4584640000000  0.5997700000000  0.4928580000000 1.0
C      1  0.5624340000000  0.5571040000000  0.4833070000000 1.0
C      1  0.5766070000000  0.4519050000000  0.4815090000000 1.0
C      1  0.4787050000000  0.4054970000000  0.4804520000000 1.0
C      1  0.4084320000000  0.4926370000000  0.4826630000000 1.0
C      1  0.5767980000000  0.5775600000000  0.5496990000000 1.0
C      1  0.5889010000000  0.4557230000000  0.5483010000000 1.0
C      1  0.4896040000000  0.3956730000000  0.5497070000000 1.0
C      1  0.4060050000000  0.4722330000000  0.5478160000000 1.0
C      1  0.4505390000000  0.5918030000000  0.5466790000000 1.0
C      1  0.5989780000000  0.4866810000000  0.5414320000000 1.0
C      1  0.5149280000000  0.3890110000000  0.5375560000000 1.0
C      1  0.4060460000000  0.4452820000000  0.5347130000000 1.0
C      1  0.4320630000000  0.5813720000000  0.5257710000000 1.0
C      1  0.5529710000000  0.5977680000000  0.5450790000000 1.0
C      1  0.5917360000000  0.4646610000000  0.5052900000000 1.0
C      1  0.4984820000000  0.3789260000000  0.4881380000000 1.0
C      1  0.4044450000000  0.4664500000000  0.5009060000000 1.0
C      1  0.4319630000000  0.5891090000000  0.4982510000000 1.0
C      1  0.5619390000000  0.5813180000000  0.5021950000000 1.0
C      1  0.5150150000000  0.5770860000000  0.5124170000000 1.0
C      1  0.5741120000000  0.5139180000000  0.5165280000000 1.0
C      1  0.5283230000000  0.4383720000000  0.5150820000000 1.0
C      1  0.4542800000000  0.4445010000000  0.5002720000000 1.0
C      1  0.4359170000000  0.5303710000000  0.5156960000000 1.0
C      1  0.4860460000000  0.4399190000000  0.5383450000000 1.0
C      1  0.4418810000000  0.4886610000000  0.5327320000000 1.0
C      1  0.4799820000000  0.5657050000000  0.5401300000000 1.0
C      1  0.5596850000000  0.5427210000000  0.5402220000000 1.0
C      1  0.5458050000000  0.4650000000000  0.5402800000000 1.0
C      1  0.4375640000000  0.5571470000000  0.4324600000000 1.0
C      1  0.5257440000000  0.5682350000000  0.4453340000000 1.0
C      1  0.5689190000000  0.4968730000000  0.4370940000000 1.0
C      1  0.5175170000000  0.4186750000000  0.4383830000000 1.0
C      1  0.4324780000000  0.4633190000000  0.4342130000000 1.0
C      1  0.5931280000000  0.4976800000000  0.4828720000000 1.0
C      1  0.5315490000000  0.4151690000000  0.4779390000000 1.0
C      1  0.4265340000000  0.4396600000000  0.4811990000000 1.0
C      1  0.4253400000000  0.5414950000000  0.4670960000000 1.0
C      1  0.5287760000000  0.6082240000000  0.4750190000000 1.0
C      1  0.5041680000000  0.4993470000000  0.4232200000000 1.0
C      1  0.5023220000000  0.5106010000000  0.5504340000000 1.0
C      1  0.4961470000000  0.4911540000000  0.4968430000000 1.0
END
