TITL C-3289325-7307-451 -0.00195179753265027 125000 -835.777527568131 0 0 165 (C1) n - 1
REM
REM in /nfs/bkarasulu/CARBON/AIRSS/Generating-Clusters/AIREBO/with-SteepDescent/Higher-Symm/SD-CG/HFTN-CG
REM
REM
REM
REM
REM
REM ./C.cell (b20cbc046b6831c77cfcea5457e17084)
REM
REM compiler GCC version 9.2.1 20190827 (Red Hat 9.2.1-1)
REM options -cpp -mtune=generic -march=x86-64 -g -O0 -fpre-include=/usr/include/finclude/math-vector-fortran.h
REM seed -959549253 -1098364468 -844779637 -771060559 119351265 1629292007 1209377354 -1167989897 -1285994072 1053910900 -856500281 -1534263228 673950014 -1678606030 1927714669 494546199 148874402 -1155280935 580102526 -1117936210 -76838852 250896738 526697174 -2066166287 925782864 441542134 364520434 1662568349 -630938559 -988840694 1070805394 1150840951 1930626491
REM
CELL 1.54180   50.00000   50.00000   50.00000   90.00000   90.00000   90.00000
LATT -1
SFAC C  
C      1  0.5438700000000  0.5505590000000  0.5876990000000 1.0
C      1  0.5763240000000  0.5310910000000  0.4212110000000 1.0
C      1  0.4053610000000  0.5521060000000  0.5005550000000 1.0
C      1  0.5475120000000  0.4515510000000  0.5853820000000 1.0
C      1  0.5496600000000  0.4478610000000  0.4186980000000 1.0
C      1  0.4107500000000  0.4589580000000  0.4720900000000 1.0
C      1  0.4510220000000  0.5488970000000  0.5815900000000 1.0
C      1  0.4487400000000  0.5498770000000  0.4187500000000 1.0
C      1  0.6104000000000  0.5307450000000  0.4708030000000 1.0
C      1  0.4535970000000  0.4503270000000  0.5900830000000 1.0
C      1  0.4576320000000  0.4540140000000  0.4119180000000 1.0
C      1  0.5935050000000  0.4499960000000  0.5009570000000 1.0
C      1  0.4848280000000  0.5442900000000  0.4550270000000 1.0
C      1  0.4547850000000  0.5438460000000  0.5421580000000 1.0
C      1  0.5646570000000  0.5576680000000  0.5114320000000 1.0
C      1  0.4770200000000  0.4470280000000  0.4461910000000 1.0
C      1  0.4637750000000  0.4629630000000  0.5404920000000 1.0
C      1  0.5520910000000  0.4584570000000  0.5038560000000 1.0
C      1  0.5182850000000  0.5458410000000  0.4491370000000 1.0
C      1  0.5319010000000  0.5354960000000  0.5379130000000 1.0
C      1  0.4515550000000  0.5382380000000  0.5096780000000 1.0
C      1  0.5205640000000  0.4561530000000  0.4482830000000 1.0
C      1  0.5351520000000  0.4571550000000  0.5400080000000 1.0
C      1  0.4439670000000  0.4598350000000  0.5128130000000 1.0
C      1  0.5549300000000  0.5249220000000  0.5592500000000 1.0
C      1  0.5263380000000  0.5269830000000  0.4219730000000 1.0
C      1  0.4239710000000  0.5193720000000  0.5159650000000 1.0
C      1  0.5633960000000  0.4738770000000  0.5448020000000 1.0
C      1  0.5219600000000  0.4761750000000  0.4208230000000 1.0
C      1  0.4156260000000  0.4782710000000  0.5165040000000 1.0
C      1  0.4519160000000  0.5159100000000  0.5563120000000 1.0
C      1  0.4726560000000  0.5143720000000  0.4272870000000 1.0
C      1  0.5734400000000  0.5289480000000  0.5151040000000 1.0
C      1  0.4407860000000  0.4778010000000  0.5606810000000 1.0
C      1  0.4838830000000  0.4763900000000  0.4319300000000 1.0
C      1  0.5698110000000  0.4856190000000  0.5073040000000 1.0
C      1  0.4673750000000  0.5996880000000  0.5061310000000 1.0
C      1  0.5180380000000  0.5939190000000  0.5257580000000 1.0
C      1  0.5110750000000  0.5981790000000  0.4727660000000 1.0
C      1  0.4689390000000  0.4057690000000  0.5103240000000 1.0
C      1  0.5193520000000  0.3998320000000  0.5306330000000 1.0
C      1  0.5091120000000  0.4042610000000  0.4720100000000 1.0
C      1  0.5346840000000  0.5975370000000  0.4963280000000 1.0
C      1  0.4851220000000  0.5890790000000  0.5332050000000 1.0
C      1  0.4767980000000  0.5939080000000  0.4738950000000 1.0
C      1  0.5305680000000  0.4064560000000  0.4989320000000 1.0
C      1  0.4872430000000  0.4069330000000  0.5397320000000 1.0
C      1  0.4758100000000  0.4076500000000  0.4779740000000 1.0
C      1  0.4246020000000  0.5685060000000  0.5233940000000 1.0
C      1  0.5524510000000  0.5719940000000  0.5626560000000 1.0
C      1  0.5045560000000  0.5711970000000  0.4310990000000 1.0
C      1  0.4361340000000  0.4347690000000  0.5344390000000 1.0
C      1  0.5551980000000  0.4347340000000  0.5558710000000 1.0
C      1  0.5171170000000  0.4350250000000  0.4218520000000 1.0
C      1  0.5651330000000  0.5780200000000  0.5346250000000 1.0
C      1  0.4360960000000  0.5652280000000  0.5553870000000 1.0
C      1  0.4752750000000  0.5711770000000  0.4207350000000 1.0
C      1  0.5691790000000  0.4383310000000  0.5249800000000 1.0
C      1  0.4471160000000  0.4323240000000  0.5619270000000 1.0
C      1  0.4835260000000  0.4316940000000  0.4165470000000 1.0
C      1  0.5087880000000  0.5102500000000  0.5760980000000 1.0
C      1  0.5519670000000  0.5264320000000  0.4580630000000 1.0
C      1  0.4334290000000  0.5227970000000  0.4645160000000 1.0
C      1  0.5201200000000  0.4822910000000  0.5867400000000 1.0
C      1  0.5463490000000  0.4944390000000  0.4544960000000 1.0
C      1  0.4338090000000  0.4914430000000  0.4750140000000 1.0
C      1  0.4843220000000  0.5123030000000  0.5545430000000 1.0
C      1  0.4612070000000  0.5124700000000  0.4550130000000 1.0
C      1  0.5673180000000  0.5190580000000  0.4858400000000 1.0
C      1  0.4878790000000  0.4848610000000  0.5834670000000 1.0
C      1  0.4556710000000  0.4804640000000  0.4505110000000 1.0
C      1  0.5657480000000  0.4810320000000  0.4738150000000 1.0
C      1  0.4461010000000  0.5176800000000  0.4080500000000 1.0
C      1  0.4495940000000  0.5176880000000  0.5901950000000 1.0
C      1  0.5954320000000  0.5074730000000  0.4774100000000 1.0
C      1  0.4464640000000  0.4855620000000  0.4181680000000 1.0
C      1  0.4563960000000  0.4844580000000  0.5870330000000 1.0
C      1  0.5986560000000  0.4774660000000  0.4815880000000 1.0
C      1  0.5553150000000  0.5138650000000  0.4204360000000 1.0
C      1  0.5404360000000  0.5166370000000  0.5858770000000 1.0
C      1  0.4095600000000  0.5202730000000  0.4881510000000 1.0
C      1  0.5531280000000  0.4815060000000  0.4238730000000 1.0
C      1  0.5501250000000  0.4848100000000  0.5954220000000 1.0
C      1  0.4048190000000  0.4865520000000  0.4875670000000 1.0
C      1  0.5133000000000  0.5615170000000  0.5265510000000 1.0
C      1  0.5201740000000  0.5656900000000  0.4770130000000 1.0
C      1  0.4699390000000  0.5660700000000  0.5017370000000 1.0
C      1  0.5149810000000  0.4328220000000  0.5274670000000 1.0
C      1  0.5103990000000  0.4371020000000  0.4745510000000 1.0
C      1  0.4682730000000  0.4387060000000  0.5018900000000 1.0
C      1  0.4819890000000  0.5555070000000  0.5288250000000 1.0
C      1  0.4897890000000  0.5628390000000  0.4785840000000 1.0
C      1  0.5340080000000  0.5542490000000  0.5018820000000 1.0
C      1  0.4843110000000  0.4387980000000  0.5282300000000 1.0
C      1  0.4826910000000  0.4481850000000  0.4784730000000 1.0
C      1  0.5266930000000  0.4395680000000  0.5003330000000 1.0
C      1  0.5340290000000  0.5936350000000  0.5541410000000 1.0
C      1  0.5141780000000  0.5953240000000  0.4408240000000 1.0
C      1  0.4363780000000  0.5916940000000  0.5122700000000 1.0
C      1  0.5407270000000  0.4079320000000  0.5523060000000 1.0
C      1  0.5162730000000  0.4090000000000  0.4418440000000 1.0
C      1  0.4385890000000  0.4108710000000  0.5200950000000 1.0
C      1  0.4564510000000  0.5921790000000  0.5512380000000 1.0
C      1  0.4735230000000  0.5946840000000  0.4400500000000 1.0
C      1  0.5569290000000  0.6018040000000  0.5216930000000 1.0
C      1  0.4611660000000  0.4075680000000  0.5615460000000 1.0
C      1  0.4766950000000  0.4130490000000  0.4448380000000 1.0
C      1  0.5600430000000  0.4090870000000  0.5157080000000 1.0
C      1  0.4056240000000  0.4530570000000  0.4446960000000 1.0
C      1  0.5164170000000  0.4436220000000  0.5997740000000 1.0
C      1  0.5781350000000  0.4405330000000  0.4385690000000 1.0
C      1  0.4060960000000  0.5563150000000  0.4655950000000 1.0
C      1  0.5101220000000  0.5536310000000  0.5960690000000 1.0
C      1  0.5784930000000  0.5508410000000  0.4412130000000 1.0
C      1  0.5950410000000  0.4405660000000  0.4681760000000 1.0
C      1  0.4867120000000  0.4440760000000  0.6003910000000 1.0
C      1  0.4267050000000  0.4463080000000  0.4233000000000 1.0
C      1  0.5941100000000  0.5534400000000  0.4649970000000 1.0
C      1  0.4785530000000  0.5591290000000  0.5938470000000 1.0
C      1  0.4236650000000  0.5545350000000  0.4422150000000 1.0
C      1  0.4822800000000  0.4792090000000  0.4716860000000 1.0
C      1  0.4903810000000  0.4788730000000  0.5335340000000 1.0
C      1  0.5267500000000  0.4787290000000  0.4936830000000 1.0
C      1  0.4832470000000  0.5189450000000  0.4759600000000 1.0
C      1  0.4923430000000  0.5081150000000  0.5240000000000 1.0
C      1  0.5345090000000  0.5239500000000  0.4935670000000 1.0
C      1  0.5150660000000  0.4855570000000  0.4644700000000 1.0
C      1  0.5208550000000  0.4803560000000  0.5244910000000 1.0
C      1  0.4582690000000  0.4848480000000  0.4947330000000 1.0
C      1  0.5149740000000  0.5190080000000  0.4705730000000 1.0
C      1  0.5237090000000  0.5130390000000  0.5199900000000 1.0
C      1  0.4718560000000  0.5135900000000  0.5032100000000 1.0
C      1  0.4087940000000  0.4804090000000  0.5656660000000 1.0
C      1  0.5962070000000  0.4873920000000  0.5255910000000 1.0
C      1  0.4823820000000  0.4837090000000  0.4008800000000 1.0
C      1  0.4193680000000  0.5112860000000  0.5650080000000 1.0
C      1  0.5985450000000  0.5181400000000  0.5327350000000 1.0
C      1  0.4835010000000  0.5155720000000  0.3954140000000 1.0
C      1  0.5896890000000  0.4878230000000  0.5568550000000 1.0
C      1  0.3932420000000  0.4793440000000  0.5389540000000 1.0
C      1  0.5124980000000  0.4888740000000  0.3915660000000 1.0
C      1  0.5865780000000  0.5187910000000  0.5614770000000 1.0
C      1  0.4045250000000  0.5094940000000  0.5388730000000 1.0
C      1  0.5133340000000  0.5207340000000  0.3931460000000 1.0
C      1  0.4868440000000  0.5418180000000  0.5658340000000 1.0
C      1  0.5795120000000  0.5681890000000  0.4851580000000 1.0
C      1  0.4566000000000  0.5518670000000  0.4499470000000 1.0
C      1  0.4790250000000  0.4552860000000  0.5692180000000 1.0
C      1  0.5634660000000  0.4473370000000  0.4750600000000 1.0
C      1  0.4449420000000  0.4482210000000  0.4493880000000 1.0
C      1  0.5200230000000  0.5489790000000  0.5638530000000 1.0
C      1  0.4346310000000  0.5509480000000  0.4832910000000 1.0
C      1  0.5494140000000  0.5594870000000  0.4504760000000 1.0
C      1  0.5188890000000  0.4547370000000  0.5677300000000 1.0
C      1  0.4298250000000  0.4440890000000  0.4861860000000 1.0
C      1  0.5463820000000  0.4340230000000  0.4488500000000 1.0
C      1  0.4961840000000  0.5742300000000  0.5614930000000 1.0
C      1  0.4987660000000  0.4281530000000  0.5636730000000 1.0
C      1  0.4488660000000  0.5764610000000  0.4694980000000 1.0
C      1  0.5555540000000  0.5830800000000  0.4737010000000 1.0
C      1  0.4473390000000  0.4244680000000  0.4711240000000 1.0
C      1  0.5544390000000  0.4145720000000  0.4765820000000 1.0
C      1  0.5042170000000  0.5033610000000  0.4278890000000 1.0
C      1  0.5611740000000  0.5044570000000  0.5342760000000 1.0
C      1  0.4410070000000  0.4947250000000  0.5320410000000 1.0
END
