TITL C-3289331-6719-595 -0.00108943109053684 125000 -557.537215297586 0 0 101 (C1) n - 1
REM
REM in /nfs/bkarasulu/CARBON/AIRSS/Generating-Clusters/AIREBO/with-SteepDescent/Higher-Symm/SD-CG/HFTN-CG
REM
REM
REM
REM
REM
REM ./C.cell (b20cbc046b6831c77cfcea5457e17084)
REM
REM compiler GCC version 9.2.1 20190827 (Red Hat 9.2.1-1)
REM options -cpp -mtune=generic -march=x86-64 -g -O0 -fpre-include=/usr/include/finclude/math-vector-fortran.h
REM seed 723288084 936062745 2119623818 -765178567 -1705900296 -645887266 -1812914125 1601858462 -807231401 316617849 1209821341 1986499930 -1585321321 -614797509 -755749312 -2121922862 -1846804911 -1760863429 1794680185 505602259 2136575126 -132595144 122385117 -783748827 46086707 -478292204 -144874165 -429807091 -1854034644 766844082 -179853771 917250199 -1250699909
REM
CELL 1.54180   50.00000   50.00000   50.00000   90.00000   90.00000   90.00000
LATT -1
SFAC C  
C      1  0.5718790000000  0.4651980000000  0.5365000000000 1.0
C      1  0.4707810000000  0.5504830000000  0.5713370000000 1.0
C      1  0.5423840000000  0.5721560000000  0.4754180000000 1.0
C      1  0.4339370000000  0.4732220000000  0.4584690000000 1.0
C      1  0.4315650000000  0.5356440000000  0.5456930000000 1.0
C      1  0.5703480000000  0.5302440000000  0.4543540000000 1.0
C      1  0.5266650000000  0.5466930000000  0.4267250000000 1.0
C      1  0.5184300000000  0.4609260000000  0.5755720000000 1.0
C      1  0.4810120000000  0.4568040000000  0.4252200000000 1.0
C      1  0.4502560000000  0.5795710000000  0.5204350000000 1.0
C      1  0.4647820000000  0.4344820000000  0.4732030000000 1.0
C      1  0.5504730000000  0.4223140000000  0.5197840000000 1.0
C      1  0.5236560000000  0.4191400000000  0.5129430000000 1.0
C      1  0.4193100000000  0.5279770000000  0.5184500000000 1.0
C      1  0.5187100000000  0.5210340000000  0.4188910000000 1.0
C      1  0.4886220000000  0.4252500000000  0.4831460000000 1.0
C      1  0.4742330000000  0.5872900000000  0.5067330000000 1.0
C      1  0.5167500000000  0.5839150000000  0.4793910000000 1.0
C      1  0.5839600000000  0.5200200000000  0.4809150000000 1.0
C      1  0.5831180000000  0.4755350000000  0.5093740000000 1.0
C      1  0.4163820000000  0.4854230000000  0.4849230000000 1.0
C      1  0.4770370000000  0.5255730000000  0.5838640000000 1.0
C      1  0.4893260000000  0.4828520000000  0.4171440000000 1.0
C      1  0.5070930000000  0.4836880000000  0.5888210000000 1.0
C      1  0.4654570000000  0.5356840000000  0.4310800000000 1.0
C      1  0.5554100000000  0.4201170000000  0.4460270000000 1.0
C      1  0.4294820000000  0.4788770000000  0.5375310000000 1.0
C      1  0.5283530000000  0.5400700000000  0.5714300000000 1.0
C      1  0.5328270000000  0.4553820000000  0.4193670000000 1.0
C      1  0.4609340000000  0.4611180000000  0.5770970000000 1.0
C      1  0.4687440000000  0.4332730000000  0.5387430000000 1.0
C      1  0.4513090000000  0.5670700000000  0.4682170000000 1.0
C      1  0.5336340000000  0.5719640000000  0.5310690000000 1.0
C      1  0.5660610000000  0.4661200000000  0.4603190000000 1.0
C      1  0.5710240000000  0.5175260000000  0.5357030000000 1.0
C      1  0.4215640000000  0.5331650000000  0.4560040000000 1.0
C      1  0.4271710000000  0.5741600000000  0.5059910000000 1.0
C      1  0.5494690000000  0.5092940000000  0.4451860000000 1.0
C      1  0.5019790000000  0.4374680000000  0.5759460000000 1.0
C      1  0.5544520000000  0.5618870000000  0.4985600000000 1.0
C      1  0.5673080000000  0.4270450000000  0.4942710000000 1.0
C      1  0.4464990000000  0.4424710000000  0.4930210000000 1.0
C      1  0.4512650000000  0.5165850000000  0.5548360000000 1.0
C      1  0.4503230000000  0.4967180000000  0.4515040000000 1.0
C      1  0.5582740000000  0.4896100000000  0.5509810000000 1.0
C      1  0.5033120000000  0.4388850000000  0.4217440000000 1.0
C      1  0.4910760000000  0.5588850000000  0.5499640000000 1.0
C      1  0.5068110000000  0.5593900000000  0.4468050000000 1.0
C      1  0.4761670000000  0.5602930000000  0.4471420000000 1.0
C      1  0.5672310000000  0.4378050000000  0.4654050000000 1.0
C      1  0.4447050000000  0.4875090000000  0.5630740000000 1.0
C      1  0.5174300000000  0.5607410000000  0.5559220000000 1.0
C      1  0.5314480000000  0.4282660000000  0.4346040000000 1.0
C      1  0.4755360000000  0.4400850000000  0.5653980000000 1.0
C      1  0.4487700000000  0.4565040000000  0.5241720000000 1.0
C      1  0.4311450000000  0.5485700000000  0.4862820000000 1.0
C      1  0.5533950000000  0.5445370000000  0.5273380000000 1.0
C      1  0.5491420000000  0.4773810000000  0.4365660000000 1.0
C      1  0.5425450000000  0.5171370000000  0.5542760000000 1.0
C      1  0.4430920000000  0.5221570000000  0.4419800000000 1.0
C      1  0.5162950000000  0.5421820000000  0.4719130000000 1.0
C      1  0.5586110000000  0.4559820000000  0.4999530000000 1.0
C      1  0.4766640000000  0.5219460000000  0.5439970000000 1.0
C      1  0.4745010000000  0.5472970000000  0.5226210000000 1.0
C      1  0.4866460000000  0.4679160000000  0.4740540000000 1.0
C      1  0.5143630000000  0.4697450000000  0.5242340000000 1.0
C      1  0.4452160000000  0.4762530000000  0.4967130000000 1.0
C      1  0.4509410000000  0.5292390000000  0.5060420000000 1.0
C      1  0.5570190000000  0.5279890000000  0.4985620000000 1.0
C      1  0.5259110000000  0.5126080000000  0.4651870000000 1.0
C      1  0.5344330000000  0.4651780000000  0.5496480000000 1.0
C      1  0.4740660000000  0.4964000000000  0.4697850000000 1.0
C      1  0.4139250000000  0.5191880000000  0.4860480000000 1.0
C      1  0.5177570000000  0.4896720000000  0.4320910000000 1.0
C      1  0.4914430000000  0.4293010000000  0.5168480000000 1.0
C      1  0.5877560000000  0.5067820000000  0.5120710000000 1.0
C      1  0.5694520000000  0.4892710000000  0.4814450000000 1.0
C      1  0.4170280000000  0.4951590000000  0.5177050000000 1.0
C      1  0.4761030000000  0.4927260000000  0.5750810000000 1.0
C      1  0.4877540000000  0.5151510000000  0.4264510000000 1.0
C      1  0.5080620000000  0.5157230000000  0.5814670000000 1.0
C      1  0.5176020000000  0.4357680000000  0.4877030000000 1.0
C      1  0.5069450000000  0.5788370000000  0.5105730000000 1.0
C      1  0.4849810000000  0.5718770000000  0.4778980000000 1.0
C      1  0.5277930000000  0.4677990000000  0.4930330000000 1.0
C      1  0.4750700000000  0.4764970000000  0.5249530000000 1.0
C      1  0.4957240000000  0.5116560000000  0.4568570000000 1.0
C      1  0.4897950000000  0.4599710000000  0.5026390000000 1.0
C      1  0.4932660000000  0.5451370000000  0.4943100000000 1.0
C      1  0.5145810000000  0.5466940000000  0.5186380000000 1.0
C      1  0.5385650000000  0.5000680000000  0.4925530000000 1.0
C      1  0.5175770000000  0.5145870000000  0.5144930000000 1.0
C      1  0.4630280000000  0.5032570000000  0.4977780000000 1.0
C      1  0.5093470000000  0.5143320000000  0.5474850000000 1.0
C      1  0.5155530000000  0.4742720000000  0.4619700000000 1.0
C      1  0.4951790000000  0.4843670000000  0.5481980000000 1.0
C      1  0.5558560000000  0.4403990000000  0.5405060000000 1.0
C      1  0.4517790000000  0.5599590000000  0.5447740000000 1.0
C      1  0.4634790000000  0.4573480000000  0.4515180000000 1.0
C      1  0.5444820000000  0.5492930000000  0.4540300000000 1.0
C      1  0.4905090000000  0.5017050000000  0.5125500000000 1.0
END
