TITL C-3289332-8317-515 -5.57744768101018e-05 125000 -402.560740136465 0 0 72 (C1) n - 1
REM
REM in /nfs/bkarasulu/CARBON/AIRSS/Generating-Clusters/AIREBO/with-SteepDescent/Higher-Symm/SD-CG/HFTN-CG
REM
REM
REM
REM
REM
REM ./C.cell (b20cbc046b6831c77cfcea5457e17084)
REM
REM compiler GCC version 9.2.1 20190827 (Red Hat 9.2.1-1)
REM options -cpp -mtune=generic -march=x86-64 -g -O0 -fpre-include=/usr/include/finclude/math-vector-fortran.h
REM seed 304808165 1589898974 946894554 -1216155364 38737058 1763857944 1607323570 -186835603 -989734746 1661809382 -1292538248 1000125206 714489215 -1665699513 -165163799 -1930920651 189415478 -1776787735 404290619 -1037752873 -474487474 -589742501 1795128717 567105607 1513708114 -592202388 -1461556617 -1973800833 -1578226102 598501982 -1795568481 -1774960840 1913208921
REM
CELL 1.54180   50.00000   50.00000   50.00000   90.00000   90.00000   90.00000
LATT -1
SFAC C  
C      1  0.4483050000000  0.5352940000000  0.5302280000000 1.0
C      1  0.4964640000000  0.4584480000000  0.5676100000000 1.0
C      1  0.5532660000000  0.5471870000000  0.5294040000000 1.0
C      1  0.5515390000000  0.4630800000000  0.4702380000000 1.0
C      1  0.5022260000000  0.5394700000000  0.4322600000000 1.0
C      1  0.4467130000000  0.4527170000000  0.4698380000000 1.0
C      1  0.5238890000000  0.4670030000000  0.5845820000000 1.0
C      1  0.5792670000000  0.5304400000000  0.5163740000000 1.0
C      1  0.5443950000000  0.4815760000000  0.4416600000000 1.0
C      1  0.4775250000000  0.5394680000000  0.4130370000000 1.0
C      1  0.4210570000000  0.4699030000000  0.4829790000000 1.0
C      1  0.4559020000000  0.5166000000000  0.5587560000000 1.0
C      1  0.4132560000000  0.4570330000000  0.5093730000000 1.0
C      1  0.4725240000000  0.5367540000000  0.5749130000000 1.0
C      1  0.5481260000000  0.4520300000000  0.5748920000000 1.0
C      1  0.5869050000000  0.5433170000000  0.4899630000000 1.0
C      1  0.5272820000000  0.4623590000000  0.4251150000000 1.0
C      1  0.4568900000000  0.5567000000000  0.4211280000000 1.0
C      1  0.5283220000000  0.4996450000000  0.5206480000000 1.0
C      1  0.5298140000000  0.4965700000000  0.4688860000000 1.0
C      1  0.4989330000000  0.4963870000000  0.4578870000000 1.0
C      1  0.4726010000000  0.5000970000000  0.4791830000000 1.0
C      1  0.4709660000000  0.5024500000000  0.5313010000000 1.0
C      1  0.5021100000000  0.5030860000000  0.5421600000000 1.0
C      1  0.4848380000000  0.4866830000000  0.5071630000000 1.0
C      1  0.5005380000000  0.5274490000000  0.5192060000000 1.0
C      1  0.5110180000000  0.4710450000000  0.5200500000000 1.0
C      1  0.5164490000000  0.5132550000000  0.4927030000000 1.0
C      1  0.4990580000000  0.4712180000000  0.4804100000000 1.0
C      1  0.4897350000000  0.5284530000000  0.4798790000000 1.0
C      1  0.4547460000000  0.4300940000000  0.5112100000000 1.0
C      1  0.4920570000000  0.5541180000000  0.5316930000000 1.0
C      1  0.5296660000000  0.4441080000000  0.5283430000000 1.0
C      1  0.5449630000000  0.5695680000000  0.4879260000000 1.0
C      1  0.5076190000000  0.4446040000000  0.4679980000000 1.0
C      1  0.4705710000000  0.5552600000000  0.4713980000000 1.0
C      1  0.6001210000000  0.4877680000000  0.5469590000000 1.0
C      1  0.5900620000000  0.5153790000000  0.4327430000000 1.0
C      1  0.4676290000000  0.4906580000000  0.3904230000000 1.0
C      1  0.4014930000000  0.5134640000000  0.4527870000000 1.0
C      1  0.4111880000000  0.4813870000000  0.5669330000000 1.0
C      1  0.5194530000000  0.5112420000000  0.6193300000000 1.0
C      1  0.4277860000000  0.4980230000000  0.5542010000000 1.0
C      1  0.5191300000000  0.4970750000000  0.5983360000000 1.0
C      1  0.5842120000000  0.5024210000000  0.5337660000000 1.0
C      1  0.5730620000000  0.4993970000000  0.4457780000000 1.0
C      1  0.4770740000000  0.5080350000000  0.4078080000000 1.0
C      1  0.4169260000000  0.4982690000000  0.4659300000000 1.0
C      1  0.5062530000000  0.4906360000000  0.5678360000000 1.0
C      1  0.5526630000000  0.5132480000000  0.5290250000000 1.0
C      1  0.5630730000000  0.4922330000000  0.4744960000000 1.0
C      1  0.4959770000000  0.5098210000000  0.4320020000000 1.0
C      1  0.4481790000000  0.4866480000000  0.4708370000000 1.0
C      1  0.4376130000000  0.5059560000000  0.5256730000000 1.0
C      1  0.5717590000000  0.5643290000000  0.4807730000000 1.0
C      1  0.5111960000000  0.4469460000000  0.4368510000000 1.0
C      1  0.4510920000000  0.5591770000000  0.4477500000000 1.0
C      1  0.4280840000000  0.4357720000000  0.5185200000000 1.0
C      1  0.4886920000000  0.5518580000000  0.5628690000000 1.0
C      1  0.5497850000000  0.4434310000000  0.5514570000000 1.0
C      1  0.4767380000000  0.4298590000000  0.5283630000000 1.0
C      1  0.5140340000000  0.5749380000000  0.5253970000000 1.0
C      1  0.5388460000000  0.4304900000000  0.5027570000000 1.0
C      1  0.5231900000000  0.5695120000000  0.4704700000000 1.0
C      1  0.4853330000000  0.4239660000000  0.4737860000000 1.0
C      1  0.4606470000000  0.5678680000000  0.4972990000000 1.0
C      1  0.4988270000000  0.4471560000000  0.5400340000000 1.0
C      1  0.5391290000000  0.5666250000000  0.5156440000000 1.0
C      1  0.5359370000000  0.4426430000000  0.4789800000000 1.0
C      1  0.5012430000000  0.5517030000000  0.4593090000000 1.0
C      1  0.4604060000000  0.4328690000000  0.4834620000000 1.0
C      1  0.4636370000000  0.5557300000000  0.5210230000000 1.0
END
