TITL C-3289324-3781-492 -0.00117962997272389 125000 -510.03769652828 0 0 97 (C1) n - 1
REM
REM in /nfs/bkarasulu/CARBON/AIRSS/Generating-Clusters/AIREBO/with-SteepDescent/Higher-Symm/SD-CG/HFTN-CG
REM
REM
REM
REM
REM
REM ./C.cell (b20cbc046b6831c77cfcea5457e17084)
REM
REM compiler GCC version 9.2.1 20190827 (Red Hat 9.2.1-1)
REM options -cpp -mtune=generic -march=x86-64 -g -O0 -fpre-include=/usr/include/finclude/math-vector-fortran.h
REM seed 667420246 938672358 981061109 -96495448 1316629188 -261643375 -1699876414 120479498 68651460 -379915949 -1426601322 -1322125977 -1204436489 -2013240152 -1176831801 -612669838 -1152528264 -1118058241 -245188062 253261735 1810605896 -1982832237 -1725504741 -512474120 1422683760 -601269465 -1878695968 84206690 143926421 2064134956 -1954602243 -154523919 1633981807
REM
CELL 1.54180   50.00000   50.00000   50.00000   90.00000   90.00000   90.00000
LATT -1
SFAC C  
C      1  0.5145630000000  0.5433940000000  0.4667990000000 1.0
C      1  0.5349320000000  0.4544200000000  0.4892120000000 1.0
C      1  0.5280350000000  0.5349520000000  0.5102120000000 1.0
C      1  0.5109180000000  0.4552420000000  0.5357640000000 1.0
C      1  0.4851370000000  0.5396070000000  0.5302330000000 1.0
C      1  0.4681770000000  0.4557740000000  0.5148010000000 1.0
C      1  0.4668400000000  0.5414240000000  0.4860690000000 1.0
C      1  0.4915140000000  0.4576630000000  0.4723820000000 1.0
C      1  0.5311530000000  0.5184310000000  0.4254650000000 1.0
C      1  0.5805320000000  0.4900720000000  0.4662720000000 1.0
C      1  0.5680650000000  0.5050180000000  0.5150010000000 1.0
C      1  0.5340870000000  0.4878760000000  0.5677610000000 1.0
C      1  0.4739140000000  0.5102440000000  0.5734810000000 1.0
C      1  0.4303630000000  0.4930730000000  0.5343030000000 1.0
C      1  0.4280210000000  0.5066770000000  0.4741140000000 1.0
C      1  0.4655240000000  0.4935820000000  0.4331270000000 1.0
C      1  0.4853780000000  0.5267220000000  0.4616100000000 1.0
C      1  0.5156320000000  0.4765040000000  0.4603190000000 1.0
C      1  0.5371980000000  0.5218270000000  0.4801990000000 1.0
C      1  0.5280800000000  0.4776010000000  0.5167370000000 1.0
C      1  0.5098240000000  0.5162720000000  0.5320440000000 1.0
C      1  0.4836510000000  0.4754820000000  0.5377950000000 1.0
C      1  0.4595490000000  0.5238620000000  0.5142950000000 1.0
C      1  0.4719970000000  0.4790220000000  0.4902680000000 1.0
C      1  0.4602870000000  0.4591560000000  0.5563630000000 1.0
C      1  0.4289330000000  0.5386700000000  0.5132460000000 1.0
C      1  0.4518690000000  0.4602900000000  0.4702080000000 1.0
C      1  0.4858240000000  0.5441390000000  0.4323880000000 1.0
C      1  0.5432180000000  0.4607250000000  0.4481570000000 1.0
C      1  0.5689750000000  0.5325850000000  0.4860840000000 1.0
C      1  0.5561590000000  0.4668840000000  0.5326910000000 1.0
C      1  0.5136460000000  0.5378770000000  0.5580640000000 1.0
C      1  0.5254260000000  0.5777660000000  0.5355070000000 1.0
C      1  0.4848210000000  0.4186070000000  0.5550930000000 1.0
C      1  0.4511230000000  0.5748880000000  0.5308970000000 1.0
C      1  0.4553500000000  0.4167460000000  0.4870880000000 1.0
C      1  0.4747070000000  0.5837860000000  0.4613940000000 1.0
C      1  0.5159270000000  0.4234610000000  0.4459970000000 1.0
C      1  0.5395170000000  0.5745570000000  0.4690560000000 1.0
C      1  0.5460950000000  0.4139710000000  0.5176280000000 1.0
C      1  0.4485910000000  0.5159990000000  0.4414530000000 1.0
C      1  0.5168030000000  0.4946400000000  0.4247610000000 1.0
C      1  0.5762560000000  0.5142460000000  0.4512990000000 1.0
C      1  0.5669890000000  0.4913190000000  0.4910870000000 1.0
C      1  0.5509160000000  0.5111700000000  0.5627950000000 1.0
C      1  0.4856160000000  0.4858580000000  0.5843440000000 1.0
C      1  0.4367660000000  0.5165360000000  0.5503900000000 1.0
C      1  0.4191240000000  0.4837080000000  0.4902790000000 1.0
C      1  0.4637920000000  0.5590910000000  0.5481560000000 1.0
C      1  0.4449230000000  0.4330640000000  0.5055540000000 1.0
C      1  0.4549590000000  0.5666740000000  0.4666410000000 1.0
C      1  0.4971800000000  0.4419690000000  0.4427520000000 1.0
C      1  0.5336890000000  0.5607460000000  0.4446670000000 1.0
C      1  0.5555220000000  0.4289770000000  0.4974660000000 1.0
C      1  0.5427520000000  0.5581280000000  0.5302780000000 1.0
C      1  0.5032210000000  0.4375160000000  0.5637430000000 1.0
C      1  0.4703060000000  0.4272590000000  0.5346500000000 1.0
C      1  0.4550510000000  0.5678070000000  0.5056650000000 1.0
C      1  0.4747880000000  0.4276070000000  0.4721930000000 1.0
C      1  0.4985590000000  0.5726320000000  0.4572470000000 1.0
C      1  0.5309870000000  0.4280230000000  0.4672580000000 1.0
C      1  0.5412410000000  0.5605830000000  0.4911180000000 1.0
C      1  0.5292880000000  0.4259660000000  0.5360650000000 1.0
C      1  0.5002970000000  0.5696150000000  0.5377090000000 1.0
C      1  0.5355520000000  0.4882070000000  0.4852720000000 1.0
C      1  0.5417800000000  0.5045840000000  0.5322680000000 1.0
C      1  0.5057180000000  0.4922390000000  0.5575240000000 1.0
C      1  0.4676250000000  0.5052540000000  0.5416220000000 1.0
C      1  0.4461560000000  0.4934480000000  0.5070530000000 1.0
C      1  0.4610520000000  0.5049090000000  0.4710940000000 1.0
C      1  0.4937530000000  0.4979850000000  0.4454430000000 1.0
C      1  0.5481010000000  0.5200990000000  0.4480270000000 1.0
C      1  0.5909650000000  0.5382040000000  0.4615380000000 1.0
C      1  0.5825840000000  0.4579550000000  0.5310840000000 1.0
C      1  0.5420980000000  0.5361820000000  0.5690830000000 1.0
C      1  0.4730400000000  0.4620430000000  0.5837790000000 1.0
C      1  0.4100880000000  0.5457430000000  0.5356270000000 1.0
C      1  0.4230820000000  0.4584320000000  0.4804090000000 1.0
C      1  0.4551300000000  0.5406140000000  0.4327490000000 1.0
C      1  0.5272790000000  0.4700240000000  0.4226490000000 1.0
C      1  0.5627620000000  0.4387090000000  0.4656920000000 1.0
C      1  0.5680870000000  0.5558500000000  0.5109130000000 1.0
C      1  0.5340970000000  0.4391250000000  0.5640180000000 1.0
C      1  0.4896060000000  0.5606320000000  0.5670010000000 1.0
C      1  0.4395480000000  0.4395950000000  0.5374680000000 1.0
C      1  0.4299130000000  0.5594440000000  0.4861180000000 1.0
C      1  0.4655490000000  0.4418340000000  0.4447440000000 1.0
C      1  0.5077470000000  0.5695640000000  0.4258010000000 1.0
C      1  0.5457570000000  0.4642620000000  0.5597010000000 1.0
C      1  0.4893310000000  0.5319420000000  0.5798140000000 1.0
C      1  0.4301080000000  0.4688220000000  0.5471050000000 1.0
C      1  0.4176640000000  0.5303470000000  0.4831010000000 1.0
C      1  0.4536270000000  0.4696170000000  0.4377630000000 1.0
C      1  0.5154650000000  0.5391100000000  0.4165580000000 1.0
C      1  0.5754190000000  0.4662500000000  0.4533650000000 1.0
C      1  0.5851430000000  0.5289280000000  0.5157720000000 1.0
C      1  0.4967790000000  0.4925230000000  0.5114590000000 1.0
END
