TITL C-3289322-3858-190 0.00338221161039366 125000 -706.065673452695 0 0 126 (C1) n - 1
REM
REM in /nfs/bkarasulu/CARBON/AIRSS/Generating-Clusters/AIREBO/with-SteepDescent/Higher-Symm/SD-CG/HFTN-CG
REM
REM
REM
REM
REM
REM ./C.cell (b20cbc046b6831c77cfcea5457e17084)
REM
REM compiler GCC version 9.2.1 20190827 (Red Hat 9.2.1-1)
REM options -cpp -mtune=generic -march=x86-64 -g -O0 -fpre-include=/usr/include/finclude/math-vector-fortran.h
REM seed -1627637336 794115165 -589447774 -1879580030 263662280 -21827940 -330053484 1630954784 1569638132 1279594096 185185799 -508910151 1007777754 548754257 738265174 616607147 -2014315116 884835138 -2070929152 1613824560 -80276537 -31292005 -242397331 1297703534 -1017082339 2100087730 1789541052 1967565866 1163459088 -2101561708 -714172950 1587473937 -1162570957
REM
CELL 1.54180   50.00000   50.00000   50.00000   90.00000   90.00000   90.00000
LATT -1
SFAC C  
C      1  0.4687440000000  0.6033800000000  0.4870070000000 1.0
C      1  0.5471470000000  0.6081960000000  0.5157690000000 1.0
C      1  0.4544720000000  0.3918250000000  0.4886360000000 1.0
C      1  0.5431020000000  0.4003660000000  0.5185860000000 1.0
C      1  0.4656870000000  0.6096490000000  0.5148100000000 1.0
C      1  0.5598550000000  0.6105470000000  0.4893700000000 1.0
C      1  0.4575900000000  0.3994720000000  0.5176130000000 1.0
C      1  0.5416400000000  0.3979980000000  0.4897940000000 1.0
C      1  0.5123110000000  0.4802150000000  0.5858190000000 1.0
C      1  0.4838680000000  0.4726350000000  0.4192900000000 1.0
C      1  0.5234600000000  0.5177280000000  0.5776650000000 1.0
C      1  0.4796770000000  0.5211160000000  0.4261560000000 1.0
C      1  0.5168670000000  0.4770170000000  0.4213570000000 1.0
C      1  0.4792690000000  0.4820960000000  0.5764500000000 1.0
C      1  0.5136880000000  0.5239590000000  0.4251890000000 1.0
C      1  0.4753360000000  0.5205970000000  0.5664960000000 1.0
C      1  0.4826920000000  0.4865080000000  0.5456930000000 1.0
C      1  0.5188990000000  0.4847830000000  0.4513720000000 1.0
C      1  0.4916020000000  0.5185400000000  0.5390810000000 1.0
C      1  0.5146570000000  0.5150030000000  0.4574260000000 1.0
C      1  0.4736370000000  0.4761840000000  0.4504150000000 1.0
C      1  0.5138150000000  0.4853670000000  0.5401800000000 1.0
C      1  0.4753840000000  0.5091590000000  0.4553080000000 1.0
C      1  0.5224860000000  0.5152470000000  0.5455020000000 1.0
C      1  0.4611890000000  0.4462090000000  0.4401120000000 1.0
C      1  0.5235950000000  0.4544640000000  0.5455740000000 1.0
C      1  0.4541980000000  0.5516080000000  0.4601100000000 1.0
C      1  0.5442980000000  0.5581880000000  0.5682930000000 1.0
C      1  0.4461930000000  0.4556000000000  0.5520340000000 1.0
C      1  0.5471640000000  0.4439230000000  0.4432470000000 1.0
C      1  0.4596430000000  0.5509670000000  0.5457270000000 1.0
C      1  0.5368210000000  0.5405040000000  0.4532120000000 1.0
C      1  0.5448110000000  0.4654610000000  0.4169210000000 1.0
C      1  0.4506680000000  0.4714380000000  0.5772580000000 1.0
C      1  0.5454620000000  0.5291890000000  0.4223320000000 1.0
C      1  0.4465400000000  0.5274980000000  0.5637170000000 1.0
C      1  0.5345540000000  0.4706730000000  0.5708240000000 1.0
C      1  0.4512150000000  0.4684320000000  0.4183800000000 1.0
C      1  0.5494260000000  0.5306610000000  0.5739560000000 1.0
C      1  0.4509810000000  0.5320760000000  0.4336020000000 1.0
C      1  0.4911600000000  0.5609180000000  0.5489950000000 1.0
C      1  0.5086860000000  0.5596080000000  0.4526870000000 1.0
C      1  0.4732600000000  0.4425700000000  0.5438650000000 1.0
C      1  0.5153180000000  0.4383530000000  0.4538200000000 1.0
C      1  0.4843290000000  0.5617420000000  0.4480240000000 1.0
C      1  0.5189920000000  0.5619030000000  0.5523110000000 1.0
C      1  0.4885160000000  0.4373590000000  0.4554110000000 1.0
C      1  0.4982130000000  0.4375960000000  0.5548840000000 1.0
C      1  0.4694880000000  0.5636730000000  0.4879990000000 1.0
C      1  0.5337090000000  0.5607920000000  0.5233920000000 1.0
C      1  0.4767560000000  0.4243820000000  0.4821680000000 1.0
C      1  0.5357630000000  0.4395490000000  0.5181150000000 1.0
C      1  0.4800690000000  0.5726250000000  0.5190620000000 1.0
C      1  0.5470570000000  0.5734320000000  0.4958540000000 1.0
C      1  0.4756400000000  0.4423300000000  0.5110290000000 1.0
C      1  0.5265150000000  0.4347780000000  0.4857250000000 1.0
C      1  0.5136390000000  0.4035970000000  0.4813880000000 1.0
C      1  0.4883950000000  0.4118850000000  0.5196580000000 1.0
C      1  0.5192350000000  0.5901080000000  0.4935630000000 1.0
C      1  0.4919500000000  0.6034520000000  0.5273000000000 1.0
C      1  0.5165790000000  0.4131350000000  0.5276530000000 1.0
C      1  0.4869290000000  0.3932750000000  0.4913910000000 1.0
C      1  0.5169500000000  0.6094300000000  0.5157250000000 1.0
C      1  0.4947850000000  0.5856310000000  0.4821500000000 1.0
C      1  0.5849490000000  0.4617940000000  0.5170250000000 1.0
C      1  0.4255180000000  0.4571580000000  0.4758020000000 1.0
C      1  0.5901360000000  0.5279900000000  0.5147360000000 1.0
C      1  0.3940290000000  0.5148150000000  0.4903800000000 1.0
C      1  0.5822490000000  0.4555720000000  0.4835000000000 1.0
C      1  0.4148870000000  0.4548250000000  0.5082820000000 1.0
C      1  0.5862530000000  0.5333900000000  0.4832010000000 1.0
C      1  0.4090410000000  0.5166950000000  0.5149980000000 1.0
C      1  0.5699580000000  0.4844210000000  0.5337070000000 1.0
C      1  0.4296060000000  0.4846200000000  0.4638920000000 1.0
C      1  0.5848990000000  0.5139280000000  0.5370620000000 1.0
C      1  0.4138140000000  0.5142690000000  0.4660770000000 1.0
C      1  0.5607100000000  0.4728080000000  0.4516790000000 1.0
C      1  0.4331680000000  0.4754770000000  0.5281840000000 1.0
C      1  0.5781600000000  0.5238650000000  0.4562900000000 1.0
C      1  0.4158960000000  0.4999190000000  0.5376460000000 1.0
C      1  0.5741890000000  0.4373450000000  0.4628690000000 1.0
C      1  0.4278610000000  0.4364750000000  0.5337980000000 1.0
C      1  0.5552220000000  0.5688130000000  0.4491330000000 1.0
C      1  0.4419370000000  0.5763300000000  0.5426110000000 1.0
C      1  0.5861630000000  0.4343380000000  0.5316360000000 1.0
C      1  0.4372070000000  0.4355560000000  0.4567370000000 1.0
C      1  0.5621820000000  0.5787420000000  0.5593960000000 1.0
C      1  0.4295000000000  0.5746400000000  0.4561290000000 1.0
C      1  0.5491250000000  0.4835890000000  0.4770350000000 1.0
C      1  0.4562840000000  0.4920760000000  0.5145710000000 1.0
C      1  0.5511610000000  0.5171150000000  0.4733440000000 1.0
C      1  0.4551130000000  0.5244730000000  0.5248400000000 1.0
C      1  0.5457170000000  0.4974310000000  0.5183960000000 1.0
C      1  0.4554860000000  0.4912970000000  0.4826130000000 1.0
C      1  0.5524200000000  0.5238600000000  0.5022920000000 1.0
C      1  0.4449040000000  0.5232800000000  0.4765070000000 1.0
C      1  0.5192940000000  0.4676590000000  0.4807460000000 1.0
C      1  0.4857130000000  0.4746980000000  0.5138080000000 1.0
C      1  0.5098870000000  0.5266940000000  0.4888130000000 1.0
C      1  0.4832010000000  0.5389180000000  0.5158720000000 1.0
C      1  0.5191810000000  0.4796300000000  0.5103400000000 1.0
C      1  0.4860180000000  0.4765650000000  0.4798560000000 1.0
C      1  0.5246940000000  0.5312560000000  0.5171780000000 1.0
C      1  0.4776400000000  0.5242950000000  0.4856830000000 1.0
C      1  0.4299640000000  0.4885420000000  0.5826200000000 1.0
C      1  0.5675170000000  0.4871860000000  0.4261730000000 1.0
C      1  0.4257390000000  0.5091430000000  0.5632780000000 1.0
C      1  0.5698620000000  0.5152360000000  0.4294690000000 1.0
C      1  0.4328280000000  0.4855430000000  0.4300270000000 1.0
C      1  0.5596170000000  0.4822120000000  0.5660820000000 1.0
C      1  0.4295840000000  0.5140480000000  0.4370080000000 1.0
C      1  0.5679720000000  0.5119560000000  0.5624500000000 1.0
C      1  0.4361830000000  0.4108960000000  0.5315530000000 1.0
C      1  0.5560670000000  0.4187920000000  0.4743920000000 1.0
C      1  0.4436290000000  0.6003800000000  0.5298870000000 1.0
C      1  0.5569230000000  0.5866150000000  0.4691900000000 1.0
C      1  0.4460320000000  0.4139910000000  0.4720720000000 1.0
C      1  0.5637530000000  0.4201680000000  0.5276880000000 1.0
C      1  0.4466060000000  0.5877500000000  0.4752150000000 1.0
C      1  0.5544850000000  0.5860430000000  0.5328030000000 1.0
C      1  0.5550310000000  0.4626240000000  0.5022220000000 1.0
C      1  0.5685750000000  0.5526390000000  0.5055940000000 1.0
C      1  0.4325470000000  0.5301000000000  0.5063110000000 1.0
C      1  0.4466720000000  0.4493800000000  0.5010670000000 1.0
C      1  0.4951660000000  0.5094040000000  0.5890030000000 1.0
C      1  0.4973040000000  0.5006120000000  0.4067810000000 1.0
END
