TITL C-3289325-7307-543 -0.030688650255238 125000 -261.479093890709 0 0 45 (C1) n - 1
REM
REM in /nfs/bkarasulu/CARBON/AIRSS/Generating-Clusters/AIREBO/with-SteepDescent/Higher-Symm/SD-CG/HFTN-CG
REM
REM
REM
REM
REM
REM ./C.cell (b20cbc046b6831c77cfcea5457e17084)
REM
REM compiler GCC version 9.2.1 20190827 (Red Hat 9.2.1-1)
REM options -cpp -mtune=generic -march=x86-64 -g -O0 -fpre-include=/usr/include/finclude/math-vector-fortran.h
REM seed 1452342131 2045339853 14882584 -942791301 275372850 1526686518 1531227908 -1146257737 -835431184 1362328976 1471331017 1464394701 621952451 955324244 -356389218 1143602001 1897262624 -597696529 -483159041 913976750 -1209609458 -174027479 -36894393 1347692320 573611141 1508546110 1101375447 915882513 1509974575 1630995759 -83774771 579532934 -860381588
REM
CELL 1.54180   50.00000   50.00000   50.00000   90.00000   90.00000   90.00000
LATT -1
SFAC C  
C      1  0.5434600000000  0.5043970000000  0.5552840000000 1.0
C      1  0.5053470000000  0.5106800000000  0.5653290000000 1.0
C      1  0.4693200000000  0.5038950000000  0.5494830000000 1.0
C      1  0.4449760000000  0.5126520000000  0.5320300000000 1.0
C      1  0.4284560000000  0.5144570000000  0.4899490000000 1.0
C      1  0.4400400000000  0.5228190000000  0.4527980000000 1.0
C      1  0.4704730000000  0.5153840000000  0.4279700000000 1.0
C      1  0.5139110000000  0.5009920000000  0.4446100000000 1.0
C      1  0.5314930000000  0.5034610000000  0.4673600000000 1.0
C      1  0.5745980000000  0.5136220000000  0.4874560000000 1.0
C      1  0.5682600000000  0.5139590000000  0.5369020000000 1.0
C      1  0.5055060000000  0.4361680000000  0.5500040000000 1.0
C      1  0.4804560000000  0.4451540000000  0.5407770000000 1.0
C      1  0.4639730000000  0.4286760000000  0.5258170000000 1.0
C      1  0.4599780000000  0.4211320000000  0.5001400000000 1.0
C      1  0.4736110000000  0.4190110000000  0.4768980000000 1.0
C      1  0.4889630000000  0.4332680000000  0.4598650000000 1.0
C      1  0.5054630000000  0.4557420000000  0.4581090000000 1.0
C      1  0.5292240000000  0.4565890000000  0.4738010000000 1.0
C      1  0.5368980000000  0.4351340000000  0.4901790000000 1.0
C      1  0.5406600000000  0.4329220000000  0.5170540000000 1.0
C      1  0.5299920000000  0.4453070000000  0.5395730000000 1.0
C      1  0.4554430000000  0.4867350000000  0.5164930000000 1.0
C      1  0.4446240000000  0.4885740000000  0.4899810000000 1.0
C      1  0.4486740000000  0.4957860000000  0.4602670000000 1.0
C      1  0.4693790000000  0.4882060000000  0.4407090000000 1.0
C      1  0.4957990000000  0.4791470000000  0.4457530000000 1.0
C      1  0.5423630000000  0.4809250000000  0.4785210000000 1.0
C      1  0.5636800000000  0.4880320000000  0.4957680000000 1.0
C      1  0.5595060000000  0.4870680000000  0.5235310000000 1.0
C      1  0.5341680000000  0.4746710000000  0.5422980000000 1.0
C      1  0.5059980000000  0.4880080000000  0.5501750000000 1.0
C      1  0.4787890000000  0.4746300000000  0.5382020000000 1.0
C      1  0.5568180000000  0.5356130000000  0.4933950000000 1.0
C      1  0.5546190000000  0.5388810000000  0.5214880000000 1.0
C      1  0.5331370000000  0.5314800000000  0.5430130000000 1.0
C      1  0.5051510000000  0.5373850000000  0.5504040000000 1.0
C      1  0.4785240000000  0.5325630000000  0.5393440000000 1.0
C      1  0.4552310000000  0.5397890000000  0.5185670000000 1.0
C      1  0.4453020000000  0.5383590000000  0.4916160000000 1.0
C      1  0.4575860000000  0.5454670000000  0.4648540000000 1.0
C      1  0.4798660000000  0.5359740000000  0.4464860000000 1.0
C      1  0.5067230000000  0.5311010000000  0.4532220000000 1.0
C      1  0.5308830000000  0.5336880000000  0.4771310000000 1.0
C      1  0.5130710000000  0.5566220000000  0.4832620000000 1.0
END
