TITL C-3289329-2751-101 -0.00031774911720918 125000 -489.813019897612 0 0 91 (C1) n - 1
REM
REM in /nfs/bkarasulu/CARBON/AIRSS/Generating-Clusters/AIREBO/with-SteepDescent/Higher-Symm/SD-CG/HFTN-CG
REM
REM
REM
REM
REM
REM ./C.cell (b20cbc046b6831c77cfcea5457e17084)
REM
REM compiler GCC version 9.2.1 20190827 (Red Hat 9.2.1-1)
REM options -cpp -mtune=generic -march=x86-64 -g -O0 -fpre-include=/usr/include/finclude/math-vector-fortran.h
REM seed 574133284 -950459462 1637869481 -208208339 119620193 -661996562 -407845549 588828245 2127148426 1107949585 -1841907908 -901529259 363333702 1804266892 -1313708771 1891020785 1800208932 -315910663 -99869615 258040787 -1220822370 1137409866 -1596059103 1282794674 468578044 1372971853 -519412799 59196246 1397585343 1075785645 -616743727 1550204396 1508986062
REM
CELL 1.54180   50.00000   50.00000   50.00000   90.00000   90.00000   90.00000
LATT -1
SFAC C  
C      1  0.4988210000000  0.4076970000000  0.5451380000000 1.0
C      1  0.4435850000000  0.4503200000000  0.4622200000000 1.0
C      1  0.4933540000000  0.4848750000000  0.5887180000000 1.0
C      1  0.4910190000000  0.4384290000000  0.4605740000000 1.0
C      1  0.5532330000000  0.5255680000000  0.4789450000000 1.0
C      1  0.5233240000000  0.5094000000000  0.4794580000000 1.0
C      1  0.5499770000000  0.4914090000000  0.5074100000000 1.0
C      1  0.4594290000000  0.4211280000000  0.4955620000000 1.0
C      1  0.4834100000000  0.5906410000000  0.4680640000000 1.0
C      1  0.4269780000000  0.5082580000000  0.5221940000000 1.0
C      1  0.5748980000000  0.4704530000000  0.5172100000000 1.0
C      1  0.5209370000000  0.4773930000000  0.5182280000000 1.0
C      1  0.4744660000000  0.4950730000000  0.4943530000000 1.0
C      1  0.4988640000000  0.4750300000000  0.4982110000000 1.0
C      1  0.5290860000000  0.5324840000000  0.5655930000000 1.0
C      1  0.5887340000000  0.5269310000000  0.5406270000000 1.0
C      1  0.5315810000000  0.4796950000000  0.4466350000000 1.0
C      1  0.4425050000000  0.5445630000000  0.5176370000000 1.0
C      1  0.4803220000000  0.5738910000000  0.5333950000000 1.0
C      1  0.5526800000000  0.5698110000000  0.5057920000000 1.0
C      1  0.4842600000000  0.5604560000000  0.5596650000000 1.0
C      1  0.5050720000000  0.4279630000000  0.4866370000000 1.0
C      1  0.4661480000000  0.5648310000000  0.4673780000000 1.0
C      1  0.4705960000000  0.5077670000000  0.5780350000000 1.0
C      1  0.5471950000000  0.4974250000000  0.5620270000000 1.0
C      1  0.5424870000000  0.4504720000000  0.4520600000000 1.0
C      1  0.4747340000000  0.5279180000000  0.4551890000000 1.0
C      1  0.4656200000000  0.5588310000000  0.5152420000000 1.0
C      1  0.4348210000000  0.4625440000000  0.5037050000000 1.0
C      1  0.5506980000000  0.4991820000000  0.4334750000000 1.0
C      1  0.5043680000000  0.4612650000000  0.5668670000000 1.0
C      1  0.4565150000000  0.4550930000000  0.5613830000000 1.0
C      1  0.5015500000000  0.4857260000000  0.4428210000000 1.0
C      1  0.5276590000000  0.4463660000000  0.4940700000000 1.0
C      1  0.5102170000000  0.5867000000000  0.4710560000000 1.0
C      1  0.5344740000000  0.4772600000000  0.4806290000000 1.0
C      1  0.4423620000000  0.4370380000000  0.5127560000000 1.0
C      1  0.4555520000000  0.4795870000000  0.4704120000000 1.0
C      1  0.4417600000000  0.5267250000000  0.5410510000000 1.0
C      1  0.4912680000000  0.5179320000000  0.4826610000000 1.0
C      1  0.5823560000000  0.4787470000000  0.4877490000000 1.0
C      1  0.5024010000000  0.5877170000000  0.5219990000000 1.0
C      1  0.5540700000000  0.4690720000000  0.5701810000000 1.0
C      1  0.5748830000000  0.5111720000000  0.4953580000000 1.0
C      1  0.5156540000000  0.5044680000000  0.5719640000000 1.0
C      1  0.5039330000000  0.5408140000000  0.5152430000000 1.0
C      1  0.5203720000000  0.5789230000000  0.4981310000000 1.0
C      1  0.5028590000000  0.5168510000000  0.4445230000000 1.0
C      1  0.4423780000000  0.4354170000000  0.5417910000000 1.0
C      1  0.4594970000000  0.4852780000000  0.4199520000000 1.0
C      1  0.4727600000000  0.5416360000000  0.5758620000000 1.0
C      1  0.5301660000000  0.5234290000000  0.4288540000000 1.0
C      1  0.5224750000000  0.4320420000000  0.4509220000000 1.0
C      1  0.5649490000000  0.4457990000000  0.5243590000000 1.0
C      1  0.4395030000000  0.4832670000000  0.5237080000000 1.0
C      1  0.4991250000000  0.4686250000000  0.3954290000000 1.0
C      1  0.4066780000000  0.5047690000000  0.4656880000000 1.0
C      1  0.5104860000000  0.5514130000000  0.5469060000000 1.0
C      1  0.5549420000000  0.4288090000000  0.5022050000000 1.0
C      1  0.4444450000000  0.5384820000000  0.4664710000000 1.0
C      1  0.4619610000000  0.4748060000000  0.5803880000000 1.0
C      1  0.5025000000000  0.4374260000000  0.5429230000000 1.0
C      1  0.3800510000000  0.5086830000000  0.4663810000000 1.0
C      1  0.5454400000000  0.5743390000000  0.4378260000000 1.0
C      1  0.5312010000000  0.4478650000000  0.5279700000000 1.0
C      1  0.4998320000000  0.5155570000000  0.5338100000000 1.0
C      1  0.4687130000000  0.5138650000000  0.5474160000000 1.0
C      1  0.5643000000000  0.4656250000000  0.4708360000000 1.0
C      1  0.4609230000000  0.4304520000000  0.4683190000000 1.0
C      1  0.4878610000000  0.4697310000000  0.4664710000000 1.0
C      1  0.5304230000000  0.5466040000000  0.4947290000000 1.0
C      1  0.4867080000000  0.4788970000000  0.4174380000000 1.0
C      1  0.5576430000000  0.5285920000000  0.4482120000000 1.0
C      1  0.4983060000000  0.4870500000000  0.5493170000000 1.0
C      1  0.4768160000000  0.4552490000000  0.5385220000000 1.0
C      1  0.5324860000000  0.5061050000000  0.5326220000000 1.0
C      1  0.4296480000000  0.5154480000000  0.4507200000000 1.0
C      1  0.4477920000000  0.4952240000000  0.4432470000000 1.0
C      1  0.5226020000000  0.5689070000000  0.4532620000000 1.0
C      1  0.4655810000000  0.5521810000000  0.4358210000000 1.0
C      1  0.4372220000000  0.5229980000000  0.4930230000000 1.0
C      1  0.4716290000000  0.4868210000000  0.5270060000000 1.0
C      1  0.5190910000000  0.5391640000000  0.4635430000000 1.0
C      1  0.5936550000000  0.5233450000000  0.5161580000000 1.0
C      1  0.4866770000000  0.4121960000000  0.5001010000000 1.0
C      1  0.4277020000000  0.4908970000000  0.4863100000000 1.0
C      1  0.5622180000000  0.5247340000000  0.5518110000000 1.0
C      1  0.5665500000000  0.5566530000000  0.4392480000000 1.0
C      1  0.5348820000000  0.4509440000000  0.5619100000000 1.0
C      1  0.5394930000000  0.5401650000000  0.5334810000000 1.0
C      1  0.4816040000000  0.5486190000000  0.4908020000000 1.0
END
