TITL C-3289327-5623-483 0.0030058144299138 125000 -518.557386013327 0 0 100 (C1) n - 1
REM
REM in /nfs/bkarasulu/CARBON/AIRSS/Generating-Clusters/AIREBO/with-SteepDescent/Higher-Symm/SD-CG/HFTN-CG
REM
REM
REM
REM
REM
REM ./C.cell (b20cbc046b6831c77cfcea5457e17084)
REM
REM compiler GCC version 9.2.1 20190827 (Red Hat 9.2.1-1)
REM options -cpp -mtune=generic -march=x86-64 -g -O0 -fpre-include=/usr/include/finclude/math-vector-fortran.h
REM seed -854402848 -506891606 694555027 630669664 113124865 -1081964310 -552566398 -1753001925 1803565012 -289449429 2065242941 -1491531376 2135738710 1002629850 -104375645 278500939 -1586052220 1116653041 -436859537 129777520 -1641415776 -5508179 -1631557224 -232895995 2141618600 -1804826978 -1264486225 -1747941651 1364434010 1368248918 -2022754392 1821911851 -1651238202
REM
CELL 1.54180   50.00000   50.00000   50.00000   90.00000   90.00000   90.00000
LATT -1
SFAC C  
C      1  0.4476990000000  0.5491430000000  0.5259720000000 1.0
C      1  0.4493350000000  0.4477270000000  0.5322140000000 1.0
C      1  0.4496160000000  0.5004230000000  0.4438170000000 1.0
C      1  0.5579650000000  0.5554910000000  0.5290610000000 1.0
C      1  0.5474480000000  0.4450200000000  0.5319980000000 1.0
C      1  0.5467950000000  0.5034300000000  0.4400800000000 1.0
C      1  0.5273950000000  0.5618420000000  0.5537620000000 1.0
C      1  0.5167510000000  0.4118720000000  0.5191420000000 1.0
C      1  0.5202720000000  0.5268670000000  0.4161430000000 1.0
C      1  0.4748550000000  0.5588940000000  0.5536070000000 1.0
C      1  0.4846360000000  0.4235330000000  0.5166820000000 1.0
C      1  0.4880260000000  0.5238050000000  0.4269870000000 1.0
C      1  0.4708580000000  0.5616720000000  0.4795890000000 1.0
C      1  0.4718110000000  0.4837010000000  0.5624000000000 1.0
C      1  0.4729250000000  0.4551370000000  0.4570910000000 1.0
C      1  0.5278420000000  0.5588840000000  0.4832900000000 1.0
C      1  0.5296980000000  0.4878490000000  0.5600290000000 1.0
C      1  0.5293540000000  0.4568840000000  0.4630140000000 1.0
C      1  0.5133440000000  0.4734510000000  0.4864770000000 1.0
C      1  0.5111320000000  0.5308340000000  0.4900100000000 1.0
C      1  0.5130850000000  0.4985710000000  0.5342350000000 1.0
C      1  0.4846340000000  0.4635030000000  0.4865800000000 1.0
C      1  0.4843590000000  0.5322590000000  0.4763190000000 1.0
C      1  0.4851290000000  0.5072330000000  0.5420480000000 1.0
C      1  0.5371070000000  0.4329810000000  0.5019280000000 1.0
C      1  0.5414340000000  0.5370030000000  0.4407520000000 1.0
C      1  0.5474280000000  0.5343700000000  0.5536610000000 1.0
C      1  0.4554930000000  0.4336940000000  0.5023960000000 1.0
C      1  0.4558180000000  0.5316800000000  0.4345430000000 1.0
C      1  0.4556990000000  0.5314520000000  0.5538930000000 1.0
C      1  0.5601040000000  0.5166450000000  0.4809340000000 1.0
C      1  0.5598780000000  0.5092830000000  0.5202380000000 1.0
C      1  0.5599070000000  0.4693020000000  0.4992020000000 1.0
C      1  0.4458280000000  0.5144200000000  0.4810180000000 1.0
C      1  0.4453950000000  0.5095740000000  0.5206920000000 1.0
C      1  0.4488010000000  0.4735100000000  0.5017560000000 1.0
C      1  0.4737380000000  0.5756920000000  0.4538000000000 1.0
C      1  0.4750360000000  0.5089150000000  0.5806840000000 1.0
C      1  0.4726090000000  0.4250440000000  0.4575910000000 1.0
C      1  0.5244920000000  0.5701190000000  0.4554120000000 1.0
C      1  0.5298220000000  0.5100200000000  0.5807230000000 1.0
C      1  0.5246840000000  0.4269610000000  0.4638230000000 1.0
C      1  0.4472360000000  0.4532360000000  0.4771590000000 1.0
C      1  0.4471960000000  0.5420220000000  0.4655800000000 1.0
C      1  0.4467840000000  0.5017690000000  0.5518580000000 1.0
C      1  0.5574250000000  0.4448120000000  0.4779240000000 1.0
C      1  0.5527730000000  0.5450380000000  0.4682380000000 1.0
C      1  0.5568390000000  0.5038890000000  0.5519430000000 1.0
C      1  0.5313830000000  0.5687230000000  0.5124490000000 1.0
C      1  0.5268760000000  0.4563070000000  0.5570860000000 1.0
C      1  0.5264850000000  0.4759690000000  0.4375480000000 1.0
C      1  0.4740530000000  0.5638840000000  0.5099090000000 1.0
C      1  0.4761410000000  0.4561130000000  0.5516820000000 1.0
C      1  0.4763490000000  0.4794140000000  0.4393350000000 1.0
C      1  0.4225110000000  0.5294920000000  0.5143190000000 1.0
C      1  0.4243560000000  0.4677700000000  0.5207730000000 1.0
C      1  0.4237100000000  0.4975100000000  0.4656520000000 1.0
C      1  0.5858890000000  0.5419170000000  0.5152000000000 1.0
C      1  0.5744010000000  0.4630650000000  0.5293470000000 1.0
C      1  0.5736620000000  0.4967650000000  0.4568810000000 1.0
C      1  0.5405850000000  0.4830730000000  0.5219060000000 1.0
C      1  0.5419650000000  0.4906660000000  0.4800800000000 1.0
C      1  0.5402980000000  0.5284960000000  0.5059220000000 1.0
C      1  0.4708380000000  0.4870360000000  0.5216980000000 1.0
C      1  0.4682410000000  0.4904780000000  0.4796000000000 1.0
C      1  0.4700540000000  0.5225210000000  0.5034630000000 1.0
C      1  0.5290060000000  0.5177160000000  0.3892880000000 1.0
C      1  0.5273950000000  0.5904530000000  0.5604780000000 1.0
C      1  0.5253080000000  0.3912020000000  0.5385550000000 1.0
C      1  0.4786100000000  0.5042090000000  0.4025860000000 1.0
C      1  0.4718520000000  0.5875920000000  0.5590790000000 1.0
C      1  0.4717590000000  0.4089930000000  0.5421230000000 1.0
C      1  0.5107360000000  0.4153510000000  0.4875500000000 1.0
C      1  0.5127740000000  0.5547130000000  0.4321390000000 1.0
C      1  0.5173910000000  0.5360950000000  0.5721870000000 1.0
C      1  0.4796160000000  0.4148420000000  0.4841820000000 1.0
C      1  0.4810910000000  0.5564120000000  0.4337490000000 1.0
C      1  0.4871920000000  0.5344320000000  0.5712740000000 1.0
C      1  0.5180850000000  0.5008290000000  0.4581130000000 1.0
C      1  0.5179710000000  0.5420640000000  0.5277550000000 1.0
C      1  0.5175670000000  0.4599010000000  0.5255290000000 1.0
C      1  0.4870290000000  0.5068140000000  0.4564270000000 1.0
C      1  0.4860860000000  0.5383720000000  0.5289190000000 1.0
C      1  0.4872310000000  0.4573180000000  0.5195560000000 1.0
C      1  0.3983000000000  0.5142980000000  0.5075510000000 1.0
C      1  0.4005020000000  0.4822880000000  0.5115090000000 1.0
C      1  0.3996330000000  0.4951020000000  0.4821330000000 1.0
C      1  0.5892210000000  0.5119250000000  0.5098210000000 1.0
C      1  0.5922660000000  0.4784970000000  0.5041720000000 1.0
C      1  0.5966590000000  0.5007260000000  0.4794570000000 1.0
C      1  0.5658220000000  0.5573480000000  0.4955650000000 1.0
C      1  0.5770280000000  0.4816540000000  0.5519550000000 1.0
C      1  0.5769720000000  0.4645880000000  0.4633520000000 1.0
C      1  0.4349570000000  0.5526700000000  0.4943630000000 1.0
C      1  0.4351190000000  0.4721790000000  0.5515020000000 1.0
C      1  0.4362480000000  0.4701450000000  0.4523090000000 1.0
C      1  0.5006450000000  0.4737520000000  0.4227410000000 1.0
C      1  0.5001730000000  0.4447130000000  0.5654070000000 1.0
C      1  0.5011000000000  0.5769940000000  0.5181480000000 1.0
C      1  0.5111540000000  0.5015370000000  0.5027090000000 1.0
END
