TITL C-3289325-7307-478 0.00160978460568936 125000 -347.815218578786 0 0 63 (C1) n - 1
REM
REM in /nfs/bkarasulu/CARBON/AIRSS/Generating-Clusters/AIREBO/with-SteepDescent/Higher-Symm/SD-CG/HFTN-CG
REM
REM
REM
REM
REM
REM ./C.cell (b20cbc046b6831c77cfcea5457e17084)
REM
REM compiler GCC version 9.2.1 20190827 (Red Hat 9.2.1-1)
REM options -cpp -mtune=generic -march=x86-64 -g -O0 -fpre-include=/usr/include/finclude/math-vector-fortran.h
REM seed -1067209772 620786563 843692655 1357439767 -1353617804 1476432338 1070215490 -801466406 1949174201 635416841 1839201697 -1912992147 -2113650275 -2055717319 908999739 -246224775 -1708941420 1782863945 897947974 -1328548643 -1216536360 24230574 -972916516 2113674161 -1429506626 1665786521 2084674932 -1690638227 -338440087 -114781529 1295059402 1933672058 -74182331
REM
CELL 1.54180   50.00000   50.00000   50.00000   90.00000   90.00000   90.00000
LATT -1
SFAC C  
C      1  0.4449600000000  0.4594370000000  0.4528170000000 1.0
C      1  0.4867970000000  0.4751180000000  0.4940720000000 1.0
C      1  0.5643770000000  0.4744930000000  0.5171140000000 1.0
C      1  0.4905740000000  0.4678330000000  0.5604200000000 1.0
C      1  0.4849080000000  0.4597640000000  0.4512170000000 1.0
C      1  0.5109080000000  0.5750740000000  0.4778620000000 1.0
C      1  0.5117780000000  0.5679140000000  0.5580100000000 1.0
C      1  0.4995430000000  0.5412100000000  0.4119260000000 1.0
C      1  0.5191340000000  0.4890440000000  0.5785750000000 1.0
C      1  0.5525020000000  0.4738380000000  0.4880750000000 1.0
C      1  0.4844070000000  0.5794260000000  0.4841350000000 1.0
C      1  0.5128490000000  0.5133460000000  0.4522700000000 1.0
C      1  0.4603380000000  0.4816270000000  0.4734880000000 1.0
C      1  0.4297420000000  0.4882930000000  0.4759580000000 1.0
C      1  0.4460070000000  0.4166630000000  0.5077860000000 1.0
C      1  0.5796310000000  0.5407820000000  0.4755150000000 1.0
C      1  0.5187300000000  0.5271850000000  0.4813230000000 1.0
C      1  0.5700000000000  0.5224300000000  0.4967170000000 1.0
C      1  0.4547990000000  0.4403410000000  0.4980660000000 1.0
C      1  0.5186080000000  0.4739820000000  0.4907530000000 1.0
C      1  0.4484300000000  0.4965550000000  0.5576140000000 1.0
C      1  0.4863150000000  0.5059190000000  0.4911350000000 1.0
C      1  0.4899300000000  0.4930580000000  0.4127080000000 1.0
C      1  0.5375520000000  0.5277140000000  0.5527800000000 1.0
C      1  0.5643210000000  0.4545940000000  0.4714650000000 1.0
C      1  0.5250170000000  0.5535800000000  0.4895620000000 1.0
C      1  0.4697310000000  0.5588940000000  0.4962890000000 1.0
C      1  0.5277460000000  0.4894520000000  0.5483040000000 1.0
C      1  0.4809630000000  0.5457190000000  0.5191350000000 1.0
C      1  0.4936200000000  0.5467000000000  0.5631250000000 1.0
C      1  0.5565400000000  0.5025790000000  0.4793990000000 1.0
C      1  0.5646620000000  0.5363870000000  0.4513650000000 1.0
C      1  0.4804790000000  0.4987460000000  0.5607580000000 1.0
C      1  0.5470070000000  0.5018770000000  0.5238660000000 1.0
C      1  0.5008470000000  0.4961580000000  0.5344370000000 1.0
C      1  0.5390540000000  0.4276280000000  0.4867340000000 1.0
C      1  0.5503750000000  0.4665580000000  0.5418280000000 1.0
C      1  0.5250370000000  0.4479390000000  0.4748860000000 1.0
C      1  0.4710210000000  0.5195820000000  0.4707600000000 1.0
C      1  0.4973230000000  0.5210360000000  0.5143980000000 1.0
C      1  0.5085880000000  0.4440970000000  0.6033450000000 1.0
C      1  0.4557050000000  0.5192620000000  0.5352140000000 1.0
C      1  0.4406230000000  0.4905440000000  0.5249750000000 1.0
C      1  0.4539730000000  0.5382190000000  0.4838780000000 1.0
C      1  0.5458340000000  0.5142460000000  0.4552790000000 1.0
C      1  0.4710230000000  0.5456850000000  0.5461770000000 1.0
C      1  0.5185990000000  0.4300580000000  0.4302520000000 1.0
C      1  0.5541230000000  0.5333140000000  0.5235990000000 1.0
C      1  0.5242720000000  0.5037540000000  0.5029310000000 1.0
C      1  0.5076910000000  0.5187730000000  0.5666310000000 1.0
C      1  0.5113120000000  0.4458040000000  0.4514120000000 1.0
C      1  0.5376100000000  0.5573910000000  0.5147330000000 1.0
C      1  0.4840750000000  0.4680350000000  0.5271200000000 1.0
C      1  0.5062570000000  0.4629760000000  0.5850260000000 1.0
C      1  0.4849940000000  0.4938140000000  0.4534850000000 1.0
C      1  0.5279520000000  0.5729280000000  0.5361760000000 1.0
C      1  0.4769520000000  0.4709110000000  0.4218160000000 1.0
C      1  0.4126440000000  0.4828730000000  0.4553490000000 1.0
C      1  0.4993520000000  0.5166530000000  0.4240240000000 1.0
C      1  0.4633280000000  0.4422490000000  0.4708390000000 1.0
C      1  0.4392810000000  0.5254940000000  0.5059520000000 1.0
C      1  0.4553470000000  0.4634710000000  0.5155010000000 1.0
C      1  0.4238990000000  0.5009740000000  0.4996410000000 1.0
END
