TITL C-3289321-8710-542 -4725.21524918907 125000 -505.865933723735 0 0 93 (C1) n - 1
REM
REM in /nfs/bkarasulu/CARBON/AIRSS/Generating-Clusters/AIREBO/with-SteepDescent/Higher-Symm/SD-CG/HFTN-CG
REM
REM
REM
REM
REM
REM ./C.cell (b20cbc046b6831c77cfcea5457e17084)
REM
REM compiler GCC version 9.2.1 20190827 (Red Hat 9.2.1-1)
REM options -cpp -mtune=generic -march=x86-64 -g -O0 -fpre-include=/usr/include/finclude/math-vector-fortran.h
REM seed 1352634852 -2030288034 307569162 -2100596829 -749228843 -1402535488 -1479070051 -1960365265 364718374 1934869257 -108418719 927465772 -234755424 629547822 -1853439380 -29134903 1065752971 -1296282774 -140893629 -1465692741 -320880394 -1185159332 -1880548464 1050861735 -563079489 2073350736 -609472577 -1252811470 -1561975410 1736864705 -377230004 -60544965 -1067574207
REM
CELL 1.54180   50.00000   50.00000   50.00000   90.00000   90.00000   90.00000
LATT -1
SFAC C  
C      1  0.5213650000000  0.4965410000000  0.4266970000000 1.0
C      1  0.4788060000000  0.5022130000000  0.5724790000000 1.0
C      1  0.5560330000000  0.4691050000000  0.4605000000000 1.0
C      1  0.4360270000000  0.5210540000000  0.5421690000000 1.0
C      1  0.5542290000000  0.5502180000000  0.4762670000000 1.0
C      1  0.4464860000000  0.4489160000000  0.5225850000000 1.0
C      1  0.4900720000000  0.4986900000000  0.4349780000000 1.0
C      1  0.5122640000000  0.5015800000000  0.5664550000000 1.0
C      1  0.4824070000000  0.4741500000000  0.4536570000000 1.0
C      1  0.5214450000000  0.5224280000000  0.5425430000000 1.0
C      1  0.4910210000000  0.5570250000000  0.4406500000000 1.0
C      1  0.5053010000000  0.4426910000000  0.5646670000000 1.0
C      1  0.4379900000000  0.5436560000000  0.5271970000000 1.0
C      1  0.5564260000000  0.4492930000000  0.4787560000000 1.0
C      1  0.4860600000000  0.5937020000000  0.4770930000000 1.0
C      1  0.5153870000000  0.4198860000000  0.5195870000000 1.0
C      1  0.5625610000000  0.5175070000000  0.4526260000000 1.0
C      1  0.4306460000000  0.4818980000000  0.5461480000000 1.0
C      1  0.5217410000000  0.5307100000000  0.5813190000000 1.0
C      1  0.4673460000000  0.4697730000000  0.4171150000000 1.0
C      1  0.4105200000000  0.5005890000000  0.4778970000000 1.0
C      1  0.5894440000000  0.5004800000000  0.5251130000000 1.0
C      1  0.5219310000000  0.4622380000000  0.5121280000000 1.0
C      1  0.4787110000000  0.5361920000000  0.4914660000000 1.0
C      1  0.4759090000000  0.4368230000000  0.5326320000000 1.0
C      1  0.5232780000000  0.5571790000000  0.4640260000000 1.0
C      1  0.5470630000000  0.4639090000000  0.5560330000000 1.0
C      1  0.4527080000000  0.5406230000000  0.4459360000000 1.0
C      1  0.4128800000000  0.4765620000000  0.4973350000000 1.0
C      1  0.5775400000000  0.5264220000000  0.5075710000000 1.0
C      1  0.4979370000000  0.4414630000000  0.4999180000000 1.0
C      1  0.5057560000000  0.5539210000000  0.5019890000000 1.0
C      1  0.4607050000000  0.4507810000000  0.4404430000000 1.0
C      1  0.5363770000000  0.5498000000000  0.5572200000000 1.0
C      1  0.5162340000000  0.4725190000000  0.5585360000000 1.0
C      1  0.4828520000000  0.5249470000000  0.4444700000000 1.0
C      1  0.4578570000000  0.5601400000000  0.5365910000000 1.0
C      1  0.5355600000000  0.4316300000000  0.4780700000000 1.0
C      1  0.4155330000000  0.4897290000000  0.5244540000000 1.0
C      1  0.5785630000000  0.5124630000000  0.4776160000000 1.0
C      1  0.5682720000000  0.4549280000000  0.5069210000000 1.0
C      1  0.4308270000000  0.5452430000000  0.4954950000000 1.0
C      1  0.4870470000000  0.5499340000000  0.5280070000000 1.0
C      1  0.5091270000000  0.4449000000000  0.4679870000000 1.0
C      1  0.5698000000000  0.5593630000000  0.5044500000000 1.0
C      1  0.4281690000000  0.4530480000000  0.4959910000000 1.0
C      1  0.4420650000000  0.4411870000000  0.4672300000000 1.0
C      1  0.5474560000000  0.5657160000000  0.5292860000000 1.0
C      1  0.4597790000000  0.4977920000000  0.5474670000000 1.0
C      1  0.5392930000000  0.4950600000000  0.4543380000000 1.0
C      1  0.5235010000000  0.4272940000000  0.5475790000000 1.0
C      1  0.4764550000000  0.5728390000000  0.4599150000000 1.0
C      1  0.4594480000000  0.4673560000000  0.4758880000000 1.0
C      1  0.5479810000000  0.5321880000000  0.5236450000000 1.0
C      1  0.4724500000000  0.4193430000000  0.5040970000000 1.0
C      1  0.5347190000000  0.5842120000000  0.4807450000000 1.0
C      1  0.5086520000000  0.4463640000000  0.4365840000000 1.0
C      1  0.4787350000000  0.5519440000000  0.5598000000000 1.0
C      1  0.5302880000000  0.5843780000000  0.5102300000000 1.0
C      1  0.4541170000000  0.4162140000000  0.4844890000000 1.0
C      1  0.4508810000000  0.4575810000000  0.5551820000000 1.0
C      1  0.5558080000000  0.5487420000000  0.4428570000000 1.0
C      1  0.5443510000000  0.4461820000000  0.5284750000000 1.0
C      1  0.4567250000000  0.5536800000000  0.4766740000000 1.0
C      1  0.4291070000000  0.5124130000000  0.5038540000000 1.0
C      1  0.5714420000000  0.4878770000000  0.4991330000000 1.0
C      1  0.4704770000000  0.4614360000000  0.5020000000000 1.0
C      1  0.5315950000000  0.5364840000000  0.4969420000000 1.0
C      1  0.4752970000000  0.4890070000000  0.5213060000000 1.0
C      1  0.5245080000000  0.5076530000000  0.4803600000000 1.0
C      1  0.4291500000000  0.5266450000000  0.4667480000000 1.0
C      1  0.5737830000000  0.4722470000000  0.5358000000000 1.0
C      1  0.4552970000000  0.4969300000000  0.4720950000000 1.0
C      1  0.5491930000000  0.5004560000000  0.5282150000000 1.0
C      1  0.4465530000000  0.5082160000000  0.4440860000000 1.0
C      1  0.5594700000000  0.4938460000000  0.5578250000000 1.0
C      1  0.4530190000000  0.4930010000000  0.4183320000000 1.0
C      1  0.5492870000000  0.5110020000000  0.5782290000000 1.0
C      1  0.5392270000000  0.5237180000000  0.4268870000000 1.0
C      1  0.4672590000000  0.4739290000000  0.5801840000000 1.0
C      1  0.4894430000000  0.5324520000000  0.5765850000000 1.0
C      1  0.5002400000000  0.4709880000000  0.4180890000000 1.0
C      1  0.4983460000000  0.5211970000000  0.5232020000000 1.0
C      1  0.5005210000000  0.4756300000000  0.4797530000000 1.0
C      1  0.5235420000000  0.5536050000000  0.4312810000000 1.0
C      1  0.4780930000000  0.4449390000000  0.5711910000000 1.0
C      1  0.5316670000000  0.4112490000000  0.4970270000000 1.0
C      1  0.5001800000000  0.5858200000000  0.5002920000000 1.0
C      1  0.4958470000000  0.4643760000000  0.5326130000000 1.0
C      1  0.5034910000000  0.5318230000000  0.4689270000000 1.0
C      1  0.5382200000000  0.4861170000000  0.5028190000000 1.0
C      1  0.4617330000000  0.5109240000000  0.4991160000000 1.0
C      1  0.5004050000000  0.4989520000000  0.5006480000000 1.0
END
