TITL C-3289320-4661-524 -575.685333261206 125000 -975.309570992416 0 0 182 (C1) n - 1
REM
REM in /nfs/bkarasulu/CARBON/AIRSS/Generating-Clusters/AIREBO/with-SteepDescent/Higher-Symm/SD-CG/HFTN-CG
REM
REM
REM
REM
REM
REM ./C.cell (b20cbc046b6831c77cfcea5457e17084)
REM
REM compiler GCC version 9.2.1 20190827 (Red Hat 9.2.1-1)
REM options -cpp -mtune=generic -march=x86-64 -g -O0 -fpre-include=/usr/include/finclude/math-vector-fortran.h
REM seed 245267172 -908467647 1906888457 -1406689398 -1760339001 -1253067928 -649659722 -1951719563 -2135720001 1541273097 1947834047 -1930462158 830581213 65471466 -424593201 87424658 1543978101 633507171 -526104533 -1256057895 -589449887 -1242908718 1287871816 1546039752 1742730121 -1237599614 -147800897 714126785 313607240 353131672 -601176710 1820116994 -1151764191
REM
CELL 1.54180   50.00000   50.00000   50.00000   90.00000   90.00000   90.00000
LATT -1
SFAC C  
C      1  0.4736660000000  0.4914830000000  0.3905410000000 1.0
C      1  0.4789020000000  0.5057260000000  0.6002160000000 1.0
C      1  0.4868260000000  0.5221520000000  0.3936880000000 1.0
C      1  0.5013730000000  0.5237940000000  0.5907810000000 1.0
C      1  0.5150650000000  0.5188430000000  0.4058760000000 1.0
C      1  0.5293960000000  0.5107110000000  0.5997560000000 1.0
C      1  0.5245110000000  0.4877130000000  0.4015390000000 1.0
C      1  0.5211720000000  0.4785510000000  0.6082550000000 1.0
C      1  0.5000110000000  0.4709400000000  0.3932280000000 1.0
C      1  0.4873080000000  0.4750740000000  0.6025930000000 1.0
C      1  0.4731900000000  0.3949060000000  0.5155930000000 1.0
C      1  0.4147490000000  0.4343500000000  0.4830300000000 1.0
C      1  0.3957840000000  0.4960540000000  0.5165000000000 1.0
C      1  0.4123740000000  0.5630020000000  0.4801640000000 1.0
C      1  0.4617300000000  0.5970730000000  0.5176620000000 1.0
C      1  0.5257670000000  0.6035720000000  0.4828520000000 1.0
C      1  0.5835660000000  0.5688360000000  0.5184730000000 1.0
C      1  0.6060820000000  0.5079780000000  0.4840820000000 1.0
C      1  0.5911760000000  0.4427550000000  0.5169340000000 1.0
C      1  0.5401090000000  0.3989890000000  0.4824260000000 1.0
C      1  0.5181750000000  0.4038380000000  0.5616480000000 1.0
C      1  0.4476420000000  0.4123920000000  0.4387570000000 1.0
C      1  0.4127910000000  0.4538920000000  0.5633540000000 1.0
C      1  0.4024870000000  0.5192260000000  0.4371650000000 1.0
C      1  0.4345820000000  0.5680170000000  0.5600930000000 1.0
C      1  0.4850680000000  0.5962040000000  0.4402250000000 1.0
C      1  0.5494270000000  0.5879540000000  0.5598860000000 1.0
C      1  0.5880180000000  0.5444450000000  0.4421450000000 1.0
C      1  0.5959250000000  0.4829920000000  0.5605510000000 1.0
C      1  0.5688140000000  0.4269240000000  0.4396450000000 1.0
C      1  0.5081030000000  0.3977750000000  0.4709670000000 1.0
C      1  0.4486520000000  0.4164530000000  0.5250670000000 1.0
C      1  0.4074550000000  0.4656690000000  0.4718570000000 1.0
C      1  0.4114990000000  0.5247590000000  0.5257950000000 1.0
C      1  0.4396390000000  0.5773830000000  0.4677120000000 1.0
C      1  0.4935850000000  0.5985520000000  0.5293530000000 1.0
C      1  0.5515050000000  0.5845300000000  0.4713970000000 1.0
C      1  0.5937410000000  0.5386050000000  0.5302880000000 1.0
C      1  0.5986860000000  0.4768600000000  0.4725190000000 1.0
C      1  0.5653650000000  0.4228310000000  0.5266030000000 1.0
C      1  0.4910730000000  0.4664430000000  0.5164930000000 1.0
C      1  0.4593600000000  0.4987990000000  0.4811080000000 1.0
C      1  0.4672370000000  0.5097020000000  0.5124020000000 1.0
C      1  0.4846740000000  0.5292280000000  0.4785430000000 1.0
C      1  0.5133950000000  0.5326220000000  0.5091690000000 1.0
C      1  0.5185320000000  0.5108560000000  0.4873150000000 1.0
C      1  0.5248110000000  0.5054400000000  0.5261170000000 1.0
C      1  0.5319410000000  0.4835070000000  0.4865590000000 1.0
C      1  0.5221020000000  0.4673210000000  0.5085900000000 1.0
C      1  0.4899630000000  0.4665150000000  0.4834530000000 1.0
C      1  0.4505990000000  0.5133230000000  0.4553310000000 1.0
C      1  0.4693070000000  0.5183940000000  0.5452210000000 1.0
C      1  0.4950960000000  0.5421290000000  0.4501860000000 1.0
C      1  0.5172330000000  0.5419150000000  0.5398880000000 1.0
C      1  0.5357030000000  0.5160190000000  0.4637650000000 1.0
C      1  0.5491990000000  0.4960430000000  0.5450000000000 1.0
C      1  0.5355030000000  0.4715980000000  0.4572540000000 1.0
C      1  0.4965510000000  0.4515930000000  0.5436130000000 1.0
C      1  0.4838340000000  0.4551910000000  0.4555710000000 1.0
C      1  0.4390190000000  0.4857050000000  0.5419620000000 1.0
C      1  0.6118270000000  0.5190460000000  0.5156040000000 1.0
C      1  0.6025380000000  0.4504760000000  0.4860210000000 1.0
C      1  0.5524470000000  0.3988120000000  0.5139860000000 1.0
C      1  0.4835120000000  0.3854910000000  0.4845940000000 1.0
C      1  0.4209500000000  0.4215370000000  0.5139080000000 1.0
C      1  0.3880670000000  0.4844050000000  0.4855010000000 1.0
C      1  0.4056280000000  0.5498490000000  0.5107870000000 1.0
C      1  0.4499280000000  0.5994320000000  0.4858580000000 1.0
C      1  0.5160540000000  0.6121680000000  0.5142360000000 1.0
C      1  0.5775910000000  0.5796330000000  0.4867880000000 1.0
C      1  0.4535450000000  0.5109480000000  0.5911850000000 1.0
C      1  0.4678540000000  0.5420020000000  0.4046860000000 1.0
C      1  0.5006020000000  0.5562530000000  0.5877120000000 1.0
C      1  0.5285230000000  0.5471450000000  0.4103640000000 1.0
C      1  0.5558940000000  0.5247130000000  0.5903730000000 1.0
C      1  0.5550330000000  0.4870620000000  0.4120740000000 1.0
C      1  0.5425380000000  0.4595450000000  0.5919390000000 1.0
C      1  0.4980920000000  0.4427470000000  0.4064680000000 1.0
C      1  0.4688420000000  0.4471810000000  0.5964780000000 1.0
C      1  0.4502800000000  0.4809260000000  0.4104350000000 1.0
C      1  0.4408520000000  0.5387110000000  0.5761810000000 1.0
C      1  0.4735980000000  0.5669760000000  0.4271360000000 1.0
C      1  0.5236860000000  0.5693730000000  0.5721070000000 1.0
C      1  0.5562980000000  0.5465810000000  0.4300500000000 1.0
C      1  0.5742510000000  0.5051330000000  0.5746070000000 1.0
C      1  0.5591410000000  0.4575530000000  0.4284910000000 1.0
C      1  0.5307370000000  0.4328810000000  0.5741390000000 1.0
C      1  0.4747530000000  0.4290950000000  0.4267660000000 1.0
C      1  0.4456000000000  0.4515600000000  0.5720110000000 1.0
C      1  0.4269990000000  0.5001870000000  0.4260290000000 1.0
C      1  0.4308340000000  0.4761490000000  0.5117900000000 1.0
C      1  0.4314520000000  0.5286460000000  0.4865660000000 1.0
C      1  0.4635690000000  0.5572860000000  0.5145300000000 1.0
C      1  0.5034470000000  0.5700880000000  0.4831140000000 1.0
C      1  0.5444150000000  0.5572880000000  0.5141010000000 1.0
C      1  0.5670410000000  0.5211960000000  0.4881730000000 1.0
C      1  0.5668290000000  0.4744520000000  0.5164350000000 1.0
C      1  0.5400160000000  0.4420770000000  0.4837220000000 1.0
C      1  0.4964650000000  0.4270790000000  0.5121370000000 1.0
C      1  0.4579860000000  0.4425050000000  0.4830600000000 1.0
C      1  0.5995190000000  0.5343720000000  0.4657410000000 1.0
C      1  0.6002840000000  0.4687470000000  0.5368700000000 1.0
C      1  0.5627020000000  0.4155390000000  0.4646880000000 1.0
C      1  0.5005160000000  0.3959950000000  0.5361610000000 1.0
C      1  0.4359820000000  0.4151780000000  0.4646140000000 1.0
C      1  0.4019870000000  0.4713410000000  0.5390200000000 1.0
C      1  0.4006420000000  0.5362040000000  0.4628100000000 1.0
C      1  0.4399380000000  0.5811460000000  0.5362450000000 1.0
C      1  0.4985660000000  0.6043450000000  0.4634290000000 1.0
C      1  0.5621280000000  0.5861470000000  0.5351560000000 1.0
C      1  0.5590860000000  0.5131610000000  0.4243400000000 1.0
C      1  0.5605000000000  0.4757080000000  0.5775010000000 1.0
C      1  0.5258210000000  0.4533640000000  0.4230540000000 1.0
C      1  0.4993760000000  0.4397730000000  0.5855070000000 1.0
C      1  0.4581320000000  0.4579220000000  0.4211880000000 1.0
C      1  0.4393630000000  0.4836270000000  0.5814960000000 1.0
C      1  0.4481130000000  0.5216530000000  0.4166200000000 1.0
C      1  0.4726220000000  0.5507710000000  0.5775560000000 1.0
C      1  0.5067850000000  0.5652470000000  0.4198760000000 1.0
C      1  0.5526310000000  0.5523490000000  0.5776280000000 1.0
C      1  0.5971760000000  0.4887350000000  0.5108230000000 1.0
C      1  0.5727130000000  0.4344590000000  0.4891690000000 1.0
C      1  0.5191690000000  0.4019430000000  0.5091790000000 1.0
C      1  0.4588960000000  0.4087820000000  0.4873520000000 1.0
C      1  0.4099880000000  0.4532990000000  0.5113320000000 1.0
C      1  0.4000430000000  0.5157910000000  0.4886540000000 1.0
C      1  0.4324890000000  0.5680610000000  0.5074720000000 1.0
C      1  0.4826230000000  0.5956430000000  0.4906050000000 1.0
C      1  0.5421330000000  0.5910250000000  0.5103430000000 1.0
C      1  0.5866630000000  0.5476470000000  0.4919860000000 1.0
C      1  0.4753150000000  0.5838850000000  0.5539990000000 1.0
C      1  0.5460670000000  0.5774820000000  0.4399430000000 1.0
C      1  0.5782230000000  0.5548420000000  0.5553400000000 1.0
C      1  0.5952040000000  0.4990540000000  0.4469970000000 1.0
C      1  0.5600050000000  0.4324960000000  0.5568100000000 1.0
C      1  0.5275050000000  0.4102470000000  0.4464870000000 1.0
C      1  0.4533430000000  0.4218960000000  0.5572860000000 1.0
C      1  0.4202960000000  0.4489760000000  0.4465590000000 1.0
C      1  0.4121480000000  0.5204690000000  0.5768080000000 1.0
C      1  0.4395410000000  0.5677060000000  0.4351060000000 1.0
C      1  0.5466600000000  0.5508330000000  0.5456120000000 1.0
C      1  0.5673490000000  0.5130840000000  0.4558390000000 1.0
C      1  0.5623300000000  0.4648910000000  0.5487040000000 1.0
C      1  0.5324920000000  0.4382080000000  0.4515430000000 1.0
C      1  0.4830610000000  0.4231170000000  0.5440190000000 1.0
C      1  0.4510630000000  0.4500390000000  0.4512580000000 1.0
C      1  0.4137180000000  0.4938000000000  0.5619730000000 1.0
C      1  0.4330760000000  0.5403230000000  0.4546350000000 1.0
C      1  0.4680670000000  0.5523800000000  0.5448680000000 1.0
C      1  0.5145830000000  0.5699920000000  0.4509850000000 1.0
C      1  0.4448890000000  0.4717420000000  0.4841570000000 1.0
C      1  0.4333900000000  0.5077420000000  0.5096990000000 1.0
C      1  0.4582630000000  0.5438270000000  0.4873480000000 1.0
C      1  0.4949200000000  0.5609150000000  0.5131560000000 1.0
C      1  0.5336630000000  0.5616440000000  0.4849340000000 1.0
C      1  0.5516350000000  0.5241170000000  0.5166400000000 1.0
C      1  0.5632710000000  0.4885010000000  0.4870190000000 1.0
C      1  0.5464560000000  0.4472180000000  0.5167190000000 1.0
C      1  0.5072480000000  0.4372500000000  0.4824930000000 1.0
C      1  0.4665020000000  0.4430890000000  0.5137550000000 1.0
C      1  0.4675940000000  0.5597100000000  0.4598160000000 1.0
C      1  0.5107620000000  0.5732010000000  0.5407660000000 1.0
C      1  0.5437200000000  0.5447330000000  0.4615870000000 1.0
C      1  0.5724520000000  0.5176630000000  0.5429030000000 1.0
C      1  0.5690060000000  0.4731690000000  0.4571750000000 1.0
C      1  0.5258540000000  0.4471040000000  0.5437980000000 1.0
C      1  0.4911790000000  0.4231820000000  0.4559940000000 1.0
C      1  0.4529630000000  0.4574730000000  0.5393390000000 1.0
C      1  0.4302520000000  0.4860740000000  0.4569590000000 1.0
C      1  0.4360390000000  0.5254310000000  0.5452520000000 1.0
C      1  0.4881280000000  0.4686590000000  0.5692010000000 1.0
C      1  0.4858420000000  0.4945000000000  0.4221450000000 1.0
C      1  0.4660560000000  0.4883450000000  0.5608190000000 1.0
C      1  0.4747600000000  0.5186800000000  0.4363020000000 1.0
C      1  0.5005380000000  0.5240910000000  0.5574480000000 1.0
C      1  0.5171130000000  0.5218900000000  0.4390600000000 1.0
C      1  0.5282900000000  0.5080900000000  0.5658100000000 1.0
C      1  0.5231290000000  0.4911130000000  0.4353590000000 1.0
C      1  0.5150870000000  0.4830800000000  0.5753890000000 1.0
C      1  0.4987510000000  0.4697910000000  0.4355050000000 1.0
C      1  0.4942510000000  0.4970120000000  0.5225990000000 1.0
C      1  0.4909380000000  0.4972950000000  0.4827720000000 1.0
END
