TITL C-3289333-7213-741 -0.00131361502742583 125000 -358.228546306644 0 0 68 (C3) n - 1
REM
REM in /nfs/bkarasulu/CARBON/AIRSS/Generating-Clusters/AIREBO/with-SteepDescent/Higher-Symm/SD-CG/HFTN-CG
REM
REM
REM
REM
REM
REM ./C.cell (b20cbc046b6831c77cfcea5457e17084)
REM
REM compiler GCC version 9.2.1 20190827 (Red Hat 9.2.1-1)
REM options -cpp -mtune=generic -march=x86-64 -g -O0 -fpre-include=/usr/include/finclude/math-vector-fortran.h
REM seed 2037416856 -337400970 -490318712 625694349 -1991081592 -2103281173 -436367658 596576139 1216159323 1896465156 1886951920 -842238950 -178455849 751662471 1483292230 1656276257 -1936107777 -488969656 -358195683 -205927360 1631924063 -837320575 12367721 1913052801 1851964092 -1468848438 892417385 311646300 -1190674705 950881486 -1978714332 -88185878 -1174067224
REM
CELL 1.54180   50.00000   50.00000   50.00000   90.00000   90.00000   90.00000
LATT -1
SFAC C  
C      1  0.4771380000000  0.5457190000000  0.5500750000000 1.0
C      1  0.4771250000000  0.5227050000000  0.4365940000000 1.0
C      1  0.4771090000000  0.4359340000000  0.5132650000000 1.0
C      1  0.5126600000000  0.5289540000000  0.5143620000000 1.0
C      1  0.5126500000000  0.5001480000000  0.4689580000000 1.0
C      1  0.5126470000000  0.4752300000000  0.5166070000000 1.0
C      1  0.4868690000000  0.4318000000000  0.4587240000000 1.0
C      1  0.4868940000000  0.5005490000000  0.5809230000000 1.0
C      1  0.4869030000000  0.5720020000000  0.4602850000000 1.0
C      1  0.5004380000000  0.4334210000000  0.5280200000000 1.0
C      1  0.5004700000000  0.5597460000000  0.5448670000000 1.0
C      1  0.5004500000000  0.5111730000000  0.4270430000000 1.0
C      1  0.4326480000000  0.4555890000000  0.4803790000000 1.0
C      1  0.4326650000000  0.5074240000000  0.5495100000000 1.0
C      1  0.4326680000000  0.5413760000000  0.4700540000000 1.0
C      1  0.5712230000000  0.4775260000000  0.4778980000000 1.0
C      1  0.5712310000000  0.4942650000000  0.5317100000000 1.0
C      1  0.5712370000000  0.5324990000000  0.4903080000000 1.0
C      1  0.4517110000000  0.4521630000000  0.5230170000000 1.0
C      1  0.4517340000000  0.5460580000000  0.5311520000000 1.0
C      1  0.4517190000000  0.5061550000000  0.4457700000000 1.0
C      1  0.4555130000000  0.4948190000000  0.5550090000000 1.0
C      1  0.4555220000000  0.5524330000000  0.4782140000000 1.0
C      1  0.4554980000000  0.4571210000000  0.4667160000000 1.0
C      1  0.5328850000000  0.5219460000000  0.5407850000000 1.0
C      1  0.5328810000000  0.5265290000000  0.4618090000000 1.0
C      1  0.5328670000000  0.4558420000000  0.4973290000000 1.0
C      1  0.4839410000000  0.5125640000000  0.5492470000000 1.0
C      1  0.4839420000000  0.5385630000000  0.4657190000000 1.0
C      1  0.4839230000000  0.4532260000000  0.4849680000000 1.0
C      1  0.4352660000000  0.5232190000000  0.5262900000000 1.0
C      1  0.4352600000000  0.5133690000000  0.4679850000000 1.0
C      1  0.4352510000000  0.4678000000000  0.5056680000000 1.0
C      1  0.4698120000000  0.4808740000000  0.4514740000000 1.0
C      1  0.4698160000000  0.4697380000000  0.5420540000000 1.0
C      1  0.4698330000000  0.5537510000000  0.5064080000000 1.0
C      1  0.5442920000000  0.4808420000000  0.5400550000000 1.0
C      1  0.5443050000000  0.5464450000000  0.4977680000000 1.0
C      1  0.5442860000000  0.4770220000000  0.4620980000000 1.0
C      1  0.5082630000000  0.4579680000000  0.5703670000000 1.0
C      1  0.5082880000000  0.5841440000000  0.5024320000000 1.0
C      1  0.5082540000000  0.4622230000000  0.4271280000000 1.0
C      1  0.4860160000000  0.4735730000000  0.5696720000000 1.0
C      1  0.4860350000000  0.5757460000000  0.4892730000000 1.0
C      1  0.4860030000000  0.4550320000000  0.4409880000000 1.0
C      1  0.5589170000000  0.5175870000000  0.5459270000000 1.0
C      1  0.5589150000000  0.5331540000000  0.4630060000000 1.0
C      1  0.5588980000000  0.4535590000000  0.4909850000000 1.0
C      1  0.5219650000000  0.4552990000000  0.5425410000000 1.0
C      1  0.5219880000000  0.5613760000000  0.5186530000000 1.0
C      1  0.5219650000000  0.4876500000000  0.4387320000000 1.0
C      1  0.5132700000000  0.4964300000000  0.5431840000000 1.0
C      1  0.5132770000000  0.5413700000000  0.4827140000000 1.0
C      1  0.5132590000000  0.4665320000000  0.4740300000000 1.0
C      1  0.4814950000000  0.5236080000000  0.5171710000000 1.0
C      1  0.4814870000000  0.5052630000000  0.4721930000000 1.0
C      1  0.4814830000000  0.4754830000000  0.5105700000000 1.0
C      1  0.4364190000000  0.5014620000000  0.4999810000000 1.0
C      1  0.4704290000000  0.5014540000000  0.4999790000000 1.0
C      1  0.3760340000000  0.5014770000000  0.4999850000000 1.0
C      1  0.6122480000000  0.5014200000000  0.4999690000000 1.0
C      1  0.5212200000000  0.5014420000000  0.4999750000000 1.0
C      1  0.5811560000000  0.5014280000000  0.4999710000000 1.0
C      1  0.6386330000000  0.5014140000000  0.4999670000000 1.0
C      1  0.6648380000000  0.5014080000000  0.4999650000000 1.0
C      1  0.4024190000000  0.5014710000000  0.4999830000000 1.0
C      1  0.3498310000000  0.5014830000000  0.4999870000000 1.0
C      1  0.5483350000000  0.5014350000000  0.4999730000000 1.0
END
