TITL C-3289329-2751-121 0.00369894003484683 125000 -865.80794219385 0 0 153 (C1) n - 1
REM
REM in /nfs/bkarasulu/CARBON/AIRSS/Generating-Clusters/AIREBO/with-SteepDescent/Higher-Symm/SD-CG/HFTN-CG
REM
REM
REM
REM
REM
REM ./C.cell (b20cbc046b6831c77cfcea5457e17084)
REM
REM compiler GCC version 9.2.1 20190827 (Red Hat 9.2.1-1)
REM options -cpp -mtune=generic -march=x86-64 -g -O0 -fpre-include=/usr/include/finclude/math-vector-fortran.h
REM seed 1908355652 -997026010 -969370459 1964052769 -270848537 -548918103 58806568 -1840960546 1092923214 -1375401520 302370219 2095343401 734119044 -387686806 -1782153913 1315650103 -1593543103 -2004770301 -1860616228 -570741529 -1682774223 1367067261 209930285 1679128958 1625869327 1769698936 -190073068 -1516439372 -1199424727 -216378563 -1527509431 806218244 1011822174
REM
CELL 1.54180   50.00000   50.00000   50.00000   90.00000   90.00000   90.00000
LATT -1
SFAC C  
C      1  0.4224910000000  0.4249700000000  0.5146040000000 1.0
C      1  0.5777650000000  0.5814520000000  0.5198810000000 1.0
C      1  0.4213610000000  0.4238170000000  0.4867700000000 1.0
C      1  0.5799360000000  0.5830890000000  0.4892470000000 1.0
C      1  0.4881900000000  0.5333450000000  0.3899480000000 1.0
C      1  0.5052320000000  0.4743200000000  0.3994800000000 1.0
C      1  0.4869300000000  0.5209820000000  0.6058060000000 1.0
C      1  0.5140790000000  0.4700960000000  0.6114820000000 1.0
C      1  0.5573570000000  0.4844850000000  0.4754130000000 1.0
C      1  0.4449660000000  0.5109350000000  0.4791670000000 1.0
C      1  0.5396540000000  0.4762960000000  0.5035940000000 1.0
C      1  0.4567720000000  0.5249220000000  0.5077510000000 1.0
C      1  0.5113360000000  0.4711130000000  0.4759470000000 1.0
C      1  0.4895460000000  0.5332660000000  0.4864730000000 1.0
C      1  0.5014260000000  0.4744690000000  0.5144390000000 1.0
C      1  0.4957550000000  0.5240140000000  0.5148430000000 1.0
C      1  0.5848630000000  0.4559250000000  0.4702680000000 1.0
C      1  0.4223370000000  0.5488340000000  0.4641000000000 1.0
C      1  0.5975470000000  0.4505650000000  0.5299300000000 1.0
C      1  0.4239230000000  0.5523210000000  0.5257580000000 1.0
C      1  0.5493570000000  0.5800370000000  0.5293980000000 1.0
C      1  0.4494740000000  0.4160400000000  0.5289470000000 1.0
C      1  0.5529410000000  0.5835280000000  0.4751580000000 1.0
C      1  0.4485860000000  0.4202360000000  0.4733660000000 1.0
C      1  0.4488570000000  0.5833590000000  0.5344710000000 1.0
C      1  0.5569590000000  0.4232740000000  0.5415870000000 1.0
C      1  0.4546550000000  0.5852860000000  0.4650830000000 1.0
C      1  0.5498340000000  0.4182000000000  0.4675540000000 1.0
C      1  0.5179550000000  0.5009910000000  0.4493360000000 1.0
C      1  0.4843200000000  0.5009020000000  0.4543640000000 1.0
C      1  0.5102620000000  0.5111580000000  0.5497650000000 1.0
C      1  0.4859910000000  0.4873960000000  0.5481800000000 1.0
C      1  0.4948060000000  0.4025940000000  0.4688940000000 1.0
C      1  0.5042210000000  0.5948710000000  0.4712290000000 1.0
C      1  0.4988470000000  0.4063010000000  0.5311330000000 1.0
C      1  0.5023140000000  0.5934640000000  0.5316350000000 1.0
C      1  0.5103500000000  0.5540430000000  0.4719020000000 1.0
C      1  0.4899400000000  0.4472350000000  0.4764380000000 1.0
C      1  0.5035160000000  0.5531870000000  0.5246960000000 1.0
C      1  0.4949530000000  0.4453480000000  0.5238640000000 1.0
C      1  0.5053610000000  0.5187620000000  0.4056850000000 1.0
C      1  0.4894110000000  0.4932270000000  0.4216220000000 1.0
C      1  0.5079930000000  0.5107280000000  0.5836960000000 1.0
C      1  0.4933610000000  0.4829310000000  0.5967100000000 1.0
C      1  0.5864490000000  0.4969450000000  0.5150540000000 1.0
C      1  0.4261830000000  0.5114090000000  0.5143780000000 1.0
C      1  0.5851770000000  0.5006190000000  0.4860360000000 1.0
C      1  0.4139480000000  0.5173510000000  0.4864970000000 1.0
C      1  0.4750610000000  0.4048070000000  0.5148470000000 1.0
C      1  0.5249390000000  0.5937980000000  0.5159250000000 1.0
C      1  0.4734640000000  0.4050710000000  0.4864250000000 1.0
C      1  0.5263720000000  0.5958000000000  0.4878540000000 1.0
C      1  0.5889480000000  0.5022860000000  0.5542090000000 1.0
C      1  0.4142250000000  0.4915990000000  0.5474660000000 1.0
C      1  0.5849550000000  0.5185310000000  0.4488500000000 1.0
C      1  0.4154500000000  0.4912430000000  0.4565690000000 1.0
C      1  0.4544860000000  0.4423580000000  0.4482190000000 1.0
C      1  0.5511810000000  0.5684090000000  0.4477490000000 1.0
C      1  0.4534510000000  0.4359250000000  0.5543430000000 1.0
C      1  0.5470560000000  0.5615720000000  0.5549400000000 1.0
C      1  0.4935800000000  0.4105260000000  0.4396910000000 1.0
C      1  0.4996790000000  0.5824600000000  0.4458970000000 1.0
C      1  0.5020950000000  0.4202630000000  0.5570550000000 1.0
C      1  0.4987170000000  0.5824290000000  0.5573700000000 1.0
C      1  0.5349290000000  0.5070020000000  0.4770670000000 1.0
C      1  0.4747900000000  0.4961640000000  0.4866950000000 1.0
C      1  0.5284660000000  0.5026080000000  0.5220280000000 1.0
C      1  0.4685130000000  0.4955710000000  0.5201190000000 1.0
C      1  0.5769520000000  0.4329860000000  0.5182150000000 1.0
C      1  0.4293360000000  0.5753060000000  0.5078040000000 1.0
C      1  0.5725600000000  0.4320130000000  0.4887610000000 1.0
C      1  0.4323000000000  0.5718930000000  0.4781790000000 1.0
C      1  0.4457580000000  0.5170310000000  0.3986280000000 1.0
C      1  0.5481000000000  0.4776150000000  0.4172930000000 1.0
C      1  0.4451750000000  0.5113420000000  0.5853540000000 1.0
C      1  0.5545400000000  0.4927940000000  0.5993020000000 1.0
C      1  0.4515590000000  0.4703160000000  0.5237780000000 1.0
C      1  0.5471250000000  0.5275450000000  0.5235630000000 1.0
C      1  0.4518910000000  0.4716210000000  0.4812360000000 1.0
C      1  0.5510920000000  0.5314060000000  0.4815070000000 1.0
C      1  0.5202640000000  0.5637160000000  0.5760170000000 1.0
C      1  0.4793820000000  0.4367590000000  0.5763910000000 1.0
C      1  0.5237090000000  0.5622230000000  0.4343590000000 1.0
C      1  0.4746970000000  0.4327760000000  0.4216840000000 1.0
C      1  0.5648420000000  0.4763870000000  0.4431500000000 1.0
C      1  0.4433380000000  0.5036120000000  0.4459980000000 1.0
C      1  0.5645540000000  0.4764500000000  0.5243000000000 1.0
C      1  0.4336990000000  0.5227630000000  0.5630780000000 1.0
C      1  0.5915580000000  0.5528690000000  0.5298350000000 1.0
C      1  0.4131380000000  0.4473380000000  0.5295150000000 1.0
C      1  0.5930110000000  0.5545870000000  0.4958740000000 1.0
C      1  0.4083220000000  0.4455830000000  0.4737580000000 1.0
C      1  0.4820270000000  0.5650020000000  0.4857250000000 1.0
C      1  0.5190110000000  0.4379830000000  0.4834050000000 1.0
C      1  0.4706110000000  0.5548410000000  0.5162340000000 1.0
C      1  0.5273780000000  0.4447230000000  0.5135970000000 1.0
C      1  0.4706890000000  0.5762270000000  0.5595430000000 1.0
C      1  0.5296050000000  0.4270610000000  0.5614220000000 1.0
C      1  0.4714960000000  0.5777590000000  0.4420700000000 1.0
C      1  0.5263560000000  0.4141590000000  0.4432870000000 1.0
C      1  0.4249820000000  0.4592810000000  0.4474730000000 1.0
C      1  0.5660290000000  0.5468430000000  0.4478840000000 1.0
C      1  0.4256660000000  0.4480220000000  0.5559470000000 1.0
C      1  0.5750260000000  0.5502270000000  0.5584960000000 1.0
C      1  0.4200880000000  0.4737560000000  0.4842060000000 1.0
C      1  0.5827020000000  0.5315030000000  0.4802110000000 1.0
C      1  0.4211050000000  0.4778790000000  0.5168610000000 1.0
C      1  0.5766300000000  0.5232590000000  0.5293580000000 1.0
C      1  0.5266790000000  0.4681010000000  0.4496950000000 1.0
C      1  0.4776350000000  0.5342390000000  0.4545290000000 1.0
C      1  0.5161410000000  0.4720250000000  0.5446050000000 1.0
C      1  0.4807980000000  0.5275560000000  0.5453290000000 1.0
C      1  0.5265640000000  0.4611200000000  0.4103290000000 1.0
C      1  0.4629490000000  0.5384940000000  0.4006450000000 1.0
C      1  0.5382020000000  0.4700330000000  0.5968830000000 1.0
C      1  0.4642560000000  0.5296470000000  0.5944180000000 1.0
C      1  0.5364120000000  0.5572730000000  0.4845900000000 1.0
C      1  0.4635590000000  0.4448600000000  0.4870400000000 1.0
C      1  0.5345960000000  0.5548880000000  0.5149040000000 1.0
C      1  0.4637670000000  0.4431080000000  0.5163800000000 1.0
C      1  0.4757340000000  0.5982470000000  0.4860920000000 1.0
C      1  0.5230970000000  0.4056220000000  0.4821670000000 1.0
C      1  0.4759500000000  0.5884140000000  0.5172530000000 1.0
C      1  0.5223250000000  0.4111130000000  0.5150270000000 1.0
C      1  0.4513320000000  0.5442510000000  0.5421970000000 1.0
C      1  0.5466260000000  0.4555950000000  0.5394330000000 1.0
C      1  0.4443100000000  0.5354240000000  0.4478470000000 1.0
C      1  0.5535780000000  0.4489050000000  0.4580140000000 1.0
C      1  0.4244420000000  0.4736470000000  0.5671470000000 1.0
C      1  0.5762970000000  0.5248080000000  0.5700720000000 1.0
C      1  0.4364970000000  0.4634120000000  0.4184560000000 1.0
C      1  0.5634060000000  0.5261330000000  0.4236630000000 1.0
C      1  0.4698200000000  0.4660110000000  0.4157290000000 1.0
C      1  0.5322570000000  0.5368550000000  0.4133260000000 1.0
C      1  0.4711320000000  0.4680160000000  0.5872060000000 1.0
C      1  0.5309180000000  0.5328980000000  0.5864830000000 1.0
C      1  0.4458170000000  0.4824580000000  0.5844320000000 1.0
C      1  0.5557720000000  0.5190680000000  0.5886280000000 1.0
C      1  0.4495980000000  0.4935880000000  0.4181350000000 1.0
C      1  0.5385360000000  0.5055880000000  0.4235320000000 1.0
C      1  0.6017130000000  0.4779690000000  0.5377050000000 1.0
C      1  0.4114630000000  0.5246740000000  0.5400860000000 1.0
C      1  0.5928960000000  0.4863830000000  0.4574220000000 1.0
C      1  0.4013760000000  0.5224920000000  0.4593250000000 1.0
C      1  0.5334370000000  0.4585790000000  0.5706360000000 1.0
C      1  0.4691180000000  0.5475620000000  0.5709940000000 1.0
C      1  0.5168040000000  0.4421130000000  0.4325450000000 1.0
C      1  0.4631460000000  0.5522960000000  0.4270270000000 1.0
C      1  0.4799560000000  0.4564820000000  0.5500960000000 1.0
C      1  0.5196800000000  0.5430680000000  0.5498500000000 1.0
C      1  0.4877650000000  0.4492130000000  0.4467370000000 1.0
C      1  0.5097440000000  0.5341930000000  0.4457040000000 1.0
C      1  0.5075690000000  0.4986940000000  0.4954700000000 1.0
END
