TITL C-3289324-3781-141 0.0112147027366414 125000 -939.578739326969 0 0 175 (C1) n - 1
REM
REM in /nfs/bkarasulu/CARBON/AIRSS/Generating-Clusters/AIREBO/with-SteepDescent/Higher-Symm/SD-CG/HFTN-CG
REM
REM
REM
REM
REM
REM ./C.cell (b20cbc046b6831c77cfcea5457e17084)
REM
REM compiler GCC version 9.2.1 20190827 (Red Hat 9.2.1-1)
REM options -cpp -mtune=generic -march=x86-64 -g -O0 -fpre-include=/usr/include/finclude/math-vector-fortran.h
REM seed 852672588 351693159 -576725723 39865227 -499004185 -1195108518 1482994983 2076597521 -64299152 2054109969 814035234 -735728004 1204429874 420679056 -818421892 1018101583 1497311532 759543035 -1377496103 1289579292 -1468171369 2047689908 1379131178 1383373731 -2112210194 1391993928 1201240385 -1363345529 -1931104155 1921958659 -216653961 -1349560918 -257364392
REM
CELL 1.54180   50.00000   50.00000   50.00000   90.00000   90.00000   90.00000
LATT -1
SFAC C  
C      1  0.5329620000000  0.5000490000000  0.5327500000000 1.0
C      1  0.5213100000000  0.4746390000000  0.5430550000000 1.0
C      1  0.4931790000000  0.4676560000000  0.5342650000000 1.0
C      1  0.4713190000000  0.4907000000000  0.5286770000000 1.0
C      1  0.4704990000000  0.5177460000000  0.5388870000000 1.0
C      1  0.4934350000000  0.5355970000000  0.5312440000000 1.0
C      1  0.5220690000000  0.5277940000000  0.5409290000000 1.0
C      1  0.4365160000000  0.4079680000000  0.4854460000000 1.0
C      1  0.3882010000000  0.4936990000000  0.5042730000000 1.0
C      1  0.4329480000000  0.5787140000000  0.4811300000000 1.0
C      1  0.5175340000000  0.6137680000000  0.4768830000000 1.0
C      1  0.6029130000000  0.5414160000000  0.4778850000000 1.0
C      1  0.5976080000000  0.4546830000000  0.4785410000000 1.0
C      1  0.5349970000000  0.3854050000000  0.4953090000000 1.0
C      1  0.5186720000000  0.3948950000000  0.5591030000000 1.0
C      1  0.4250360000000  0.4247450000000  0.5507840000000 1.0
C      1  0.3962390000000  0.5084070000000  0.5473290000000 1.0
C      1  0.4388710000000  0.5795540000000  0.5414270000000 1.0
C      1  0.5341970000000  0.5977460000000  0.5448540000000 1.0
C      1  0.5823360000000  0.5465390000000  0.5436520000000 1.0
C      1  0.5952010000000  0.4480620000000  0.5571290000000 1.0
C      1  0.5164730000000  0.4733380000000  0.4066230000000 1.0
C      1  0.4887130000000  0.4692930000000  0.4055940000000 1.0
C      1  0.4701990000000  0.4913250000000  0.4034950000000 1.0
C      1  0.4729820000000  0.5188230000000  0.4079070000000 1.0
C      1  0.4961080000000  0.5353450000000  0.4070310000000 1.0
C      1  0.5224520000000  0.5248760000000  0.4089710000000 1.0
C      1  0.5313160000000  0.4977630000000  0.4054400000000 1.0
C      1  0.3943920000000  0.5354200000000  0.5353990000000 1.0
C      1  0.4608560000000  0.6033160000000  0.5310240000000 1.0
C      1  0.5434540000000  0.5946470000000  0.5177940000000 1.0
C      1  0.6015620000000  0.5251040000000  0.5267150000000 1.0
C      1  0.5839560000000  0.4331170000000  0.5362990000000 1.0
C      1  0.5005490000000  0.3909800000000  0.5358450000000 1.0
C      1  0.4025320000000  0.4278810000000  0.5370930000000 1.0
C      1  0.4676260000000  0.4768840000000  0.4531980000000 1.0
C      1  0.4619360000000  0.5101340000000  0.4584750000000 1.0
C      1  0.4859890000000  0.5338270000000  0.4542800000000 1.0
C      1  0.5194470000000  0.5321110000000  0.4602460000000 1.0
C      1  0.5341510000000  0.5021340000000  0.4537520000000 1.0
C      1  0.5258650000000  0.4706790000000  0.4578620000000 1.0
C      1  0.4949750000000  0.4567260000000  0.4550810000000 1.0
C      1  0.4361810000000  0.4835300000000  0.4928280000000 1.0
C      1  0.4435880000000  0.5415950000000  0.4910840000000 1.0
C      1  0.5017090000000  0.5664160000000  0.4929630000000 1.0
C      1  0.5537440000000  0.5421470000000  0.4976660000000 1.0
C      1  0.5644280000000  0.4838730000000  0.4926140000000 1.0
C      1  0.5262810000000  0.4353240000000  0.4894450000000 1.0
C      1  0.4716500000000  0.4392550000000  0.4982910000000 1.0
C      1  0.4799980000000  0.4115250000000  0.4199740000000 1.0
C      1  0.4254190000000  0.4420940000000  0.4310190000000 1.0
C      1  0.4119160000000  0.5270200000000  0.4242810000000 1.0
C      1  0.4645870000000  0.5976550000000  0.4420920000000 1.0
C      1  0.5513260000000  0.5844590000000  0.4386780000000 1.0
C      1  0.5968280000000  0.5118270000000  0.4338010000000 1.0
C      1  0.5658820000000  0.4345280000000  0.4304190000000 1.0
C      1  0.5425120000000  0.4245410000000  0.4612200000000 1.0
C      1  0.4716970000000  0.4251730000000  0.4712600000000 1.0
C      1  0.4197970000000  0.4733640000000  0.4647670000000 1.0
C      1  0.4233850000000  0.5440610000000  0.4638210000000 1.0
C      1  0.4885670000000  0.5845670000000  0.4707680000000 1.0
C      1  0.5613520000000  0.5632810000000  0.4740390000000 1.0
C      1  0.5839340000000  0.4912040000000  0.4668770000000 1.0
C      1  0.4245890000000  0.5243520000000  0.5241780000000 1.0
C      1  0.4728200000000  0.5728100000000  0.5219570000000 1.0
C      1  0.5311030000000  0.5598050000000  0.5328140000000 1.0
C      1  0.5693980000000  0.5142510000000  0.5246930000000 1.0
C      1  0.5576600000000  0.4528430000000  0.5276070000000 1.0
C      1  0.5058140000000  0.4246400000000  0.5359710000000 1.0
C      1  0.4490700000000  0.4492370000000  0.5216770000000 1.0
C      1  0.5857040000000  0.4807000000000  0.5562220000000 1.0
C      1  0.5407980000000  0.4196170000000  0.5547000000000 1.0
C      1  0.4551910000000  0.4171280000000  0.5446660000000 1.0
C      1  0.4221940000000  0.4865090000000  0.5455590000000 1.0
C      1  0.4314550000000  0.5529400000000  0.5607410000000 1.0
C      1  0.5022910000000  0.5912480000000  0.5546550000000 1.0
C      1  0.5647890000000  0.5592510000000  0.5693410000000 1.0
C      1  0.4880960000000  0.6088070000000  0.5144860000000 1.0
C      1  0.5718570000000  0.5871050000000  0.5128330000000 1.0
C      1  0.6007940000000  0.4962420000000  0.5084650000000 1.0
C      1  0.5675560000000  0.4180610000000  0.5106000000000 1.0
C      1  0.4872690000000  0.3968170000000  0.5050940000000 1.0
C      1  0.4037400000000  0.4465810000000  0.5126890000000 1.0
C      1  0.4004740000000  0.5536170000000  0.5120520000000 1.0
C      1  0.5059590000000  0.5803840000000  0.5227310000000 1.0
C      1  0.5611550000000  0.5593060000000  0.5235650000000 1.0
C      1  0.5752230000000  0.4807800000000  0.5247090000000 1.0
C      1  0.5359550000000  0.4276460000000  0.5205160000000 1.0
C      1  0.4760520000000  0.4200710000000  0.5244140000000 1.0
C      1  0.4244640000000  0.4705880000000  0.5189930000000 1.0
C      1  0.4318450000000  0.5571600000000  0.5189840000000 1.0
C      1  0.4588930000000  0.3919790000000  0.4894620000000 1.0
C      1  0.3862040000000  0.4671840000000  0.4970720000000 1.0
C      1  0.4066040000000  0.5706100000000  0.4884680000000 1.0
C      1  0.4924450000000  0.6199970000000  0.4886720000000 1.0
C      1  0.6066830000000  0.5677150000000  0.4836370000000 1.0
C      1  0.6137920000000  0.4755710000000  0.4882510000000 1.0
C      1  0.5605410000000  0.3952340000000  0.4921150000000 1.0
C      1  0.4396140000000  0.4915720000000  0.5927990000000 1.0
C      1  0.4565870000000  0.5472290000000  0.5911510000000 1.0
C      1  0.5063880000000  0.5615250000000  0.5927440000000 1.0
C      1  0.5521490000000  0.5311700000000  0.5948630000000 1.0
C      1  0.5568820000000  0.4797250000000  0.5983430000000 1.0
C      1  0.5264640000000  0.4408410000000  0.6013070000000 1.0
C      1  0.4669760000000  0.4478980000000  0.5896420000000 1.0
C      1  0.4526180000000  0.4714340000000  0.5473630000000 1.0
C      1  0.4407870000000  0.5233040000000  0.5540690000000 1.0
C      1  0.4857390000000  0.5616920000000  0.5516490000000 1.0
C      1  0.5325570000000  0.5492810000000  0.5651180000000 1.0
C      1  0.5589720000000  0.5016640000000  0.5546060000000 1.0
C      1  0.5425990000000  0.4534060000000  0.5580940000000 1.0
C      1  0.4971150000000  0.4470680000000  0.5588440000000 1.0
C      1  0.5328460000000  0.4263860000000  0.4310400000000 1.0
C      1  0.4604420000000  0.4293250000000  0.4394290000000 1.0
C      1  0.4242710000000  0.4752010000000  0.4321270000000 1.0
C      1  0.4344210000000  0.5489830000000  0.4334940000000 1.0
C      1  0.4942780000000  0.5831100000000  0.4372820000000 1.0
C      1  0.5604050000000  0.5533300000000  0.4415570000000 1.0
C      1  0.5782810000000  0.4854640000000  0.4345000000000 1.0
C      1  0.5305250000000  0.5638770000000  0.4659220000000 1.0
C      1  0.5603030000000  0.5137940000000  0.4666160000000 1.0
C      1  0.5535730000000  0.4528570000000  0.4662770000000 1.0
C      1  0.5026240000000  0.4238040000000  0.4596160000000 1.0
C      1  0.4456030000000  0.4549190000000  0.4669670000000 1.0
C      1  0.4291740000000  0.5129520000000  0.4672980000000 1.0
C      1  0.4692700000000  0.5590560000000  0.4645030000000 1.0
C      1  0.4618900000000  0.5686590000000  0.4957140000000 1.0
C      1  0.5284230000000  0.5873200000000  0.4905280000000 1.0
C      1  0.5801730000000  0.5212250000000  0.4931980000000 1.0
C      1  0.5684910000000  0.4500890000000  0.4954890000000 1.0
C      1  0.5107550000000  0.4051770000000  0.4868900000000 1.0
C      1  0.4319180000000  0.4400320000000  0.4944140000000 1.0
C      1  0.4165270000000  0.5083130000000  0.4985790000000 1.0
C      1  0.5168060000000  0.4278220000000  0.5748240000000 1.0
C      1  0.4490440000000  0.4427760000000  0.5653060000000 1.0
C      1  0.4212200000000  0.5034740000000  0.5735630000000 1.0
C      1  0.4582170000000  0.5706160000000  0.5680380000000 1.0
C      1  0.5236570000000  0.5802960000000  0.5752110000000 1.0
C      1  0.5722100000000  0.5270290000000  0.5695990000000 1.0
C      1  0.5684310000000  0.4626560000000  0.5771920000000 1.0
C      1  0.3928390000000  0.5584040000000  0.4644740000000 1.0
C      1  0.4712100000000  0.6137740000000  0.4683370000000 1.0
C      1  0.5820810000000  0.5815580000000  0.4869820000000 1.0
C      1  0.6144990000000  0.5017570000000  0.4714710000000 1.0
C      1  0.5638590000000  0.4029120000000  0.4660460000000 1.0
C      1  0.4789800000000  0.3923280000000  0.4662930000000 1.0
C      1  0.3911320000000  0.4641700000000  0.4704390000000 1.0
C      1  0.5788850000000  0.4568070000000  0.4471390000000 1.0
C      1  0.5055950000000  0.4112500000000  0.4308620000000 1.0
C      1  0.4339660000000  0.4242280000000  0.4580940000000 1.0
C      1  0.4140880000000  0.5042950000000  0.4404700000000 1.0
C      1  0.4437860000000  0.5751530000000  0.4491840000000 1.0
C      1  0.5223750000000  0.5927890000000  0.4514070000000 1.0
C      1  0.5842670000000  0.5336170000000  0.4528750000000 1.0
C      1  0.4650160000000  0.4853790000000  0.5758220000000 1.0
C      1  0.4643780000000  0.5194040000000  0.5782730000000 1.0
C      1  0.4923770000000  0.5387930000000  0.5759110000000 1.0
C      1  0.5218150000000  0.5252430000000  0.5866400000000 1.0
C      1  0.5373650000000  0.4969870000000  0.5804950000000 1.0
C      1  0.5227480000000  0.4665910000000  0.5823710000000 1.0
C      1  0.4901450000000  0.4680070000000  0.5840920000000 1.0
C      1  0.5344870000000  0.4937750000000  0.5006060000000 1.0
C      1  0.5160300000000  0.4671720000000  0.4902200000000 1.0
C      1  0.4881330000000  0.4663700000000  0.5021910000000 1.0
C      1  0.4653980000000  0.4912630000000  0.4976160000000 1.0
C      1  0.4706030000000  0.5218810000000  0.4891880000000 1.0
C      1  0.4968830000000  0.5363830000000  0.5000930000000 1.0
C      1  0.5272350000000  0.5239540000000  0.4923250000000 1.0
C      1  0.5360340000000  0.5371490000000  0.4309910000000 1.0
C      1  0.5506020000000  0.4948590000000  0.4268720000000 1.0
C      1  0.5275710000000  0.4569950000000  0.4267820000000 1.0
C      1  0.4802720000000  0.4511480000000  0.4253950000000 1.0
C      1  0.4533050000000  0.4806670000000  0.4245110000000 1.0
C      1  0.4557580000000  0.5263270000000  0.4292110000000 1.0
C      1  0.4922290000000  0.5545350000000  0.4283810000000 1.0
END
