TITL C-3289325-7307-611 0.00027547626278613 125000 -599.099939197941 0 0 112 (C1) n - 1
REM
REM in /nfs/bkarasulu/CARBON/AIRSS/Generating-Clusters/AIREBO/with-SteepDescent/Higher-Symm/SD-CG/HFTN-CG
REM
REM
REM
REM
REM
REM ./C.cell (b20cbc046b6831c77cfcea5457e17084)
REM
REM compiler GCC version 9.2.1 20190827 (Red Hat 9.2.1-1)
REM options -cpp -mtune=generic -march=x86-64 -g -O0 -fpre-include=/usr/include/finclude/math-vector-fortran.h
REM seed -1968182604 2137091993 808693365 -487543527 -367783889 378993148 -140180190 -250998065 -1021278003 751830710 -1771857152 -862720903 451837101 821630230 100703344 1418722662 -850264221 -689935129 1418468655 -530086464 1290971001 103150355 -574272024 -549970884 1250231941 -377428635 -718098477 -262078730 -2096042286 771884052 -835329184 -930517540 1835872446
REM
CELL 1.54180   50.00000   50.00000   50.00000   90.00000   90.00000   90.00000
LATT -1
SFAC C  
C      1  0.5528490000000  0.5613990000000  0.4584640000000 1.0
C      1  0.4185100000000  0.5120170000000  0.4550250000000 1.0
C      1  0.5177550000000  0.4200090000000  0.4639040000000 1.0
C      1  0.4309890000000  0.5206950000000  0.5302180000000 1.0
C      1  0.5182330000000  0.4229660000000  0.5453920000000 1.0
C      1  0.5521590000000  0.5432830000000  0.5326410000000 1.0
C      1  0.5208250000000  0.4802050000000  0.4359350000000 1.0
C      1  0.5168520000000  0.5381660000000  0.4307060000000 1.0
C      1  0.4657640000000  0.4949600000000  0.4358460000000 1.0
C      1  0.5073390000000  0.4507640000000  0.5023860000000 1.0
C      1  0.5399880000000  0.5343500000000  0.4956130000000 1.0
C      1  0.4466040000000  0.5188000000000  0.4936840000000 1.0
C      1  0.4402670000000  0.5531990000000  0.4743510000000 1.0
C      1  0.4728180000000  0.4136030000000  0.4928330000000 1.0
C      1  0.5817350000000  0.5231670000000  0.4742490000000 1.0
C      1  0.4989590000000  0.4226940000000  0.4851220000000 1.0
C      1  0.5616090000000  0.5446010000000  0.4783330000000 1.0
C      1  0.4234830000000  0.5295050000000  0.4761800000000 1.0
C      1  0.4355380000000  0.5472650000000  0.5465490000000 1.0
C      1  0.4928360000000  0.4231990000000  0.5579640000000 1.0
C      1  0.5747590000000  0.5295600000000  0.5496950000000 1.0
C      1  0.5342660000000  0.5209750000000  0.5829680000000 1.0
C      1  0.4733660000000  0.4932540000000  0.5844100000000 1.0
C      1  0.4896790000000  0.4704250000000  0.5788350000000 1.0
C      1  0.5383050000000  0.4622430000000  0.4735350000000 1.0
C      1  0.5061270000000  0.5645870000000  0.4737570000000 1.0
C      1  0.4506330000000  0.4746450000000  0.4665410000000 1.0
C      1  0.4720570000000  0.5613440000000  0.5349280000000 1.0
C      1  0.4578860000000  0.4466720000000  0.5368750000000 1.0
C      1  0.5641530000000  0.4871050000000  0.5327020000000 1.0
C      1  0.4726980000000  0.5615640000000  0.4949970000000 1.0
C      1  0.4735770000000  0.4530900000000  0.4990610000000 1.0
C      1  0.5636150000000  0.4933540000000  0.4932800000000 1.0
C      1  0.5324560000000  0.4364410000000  0.5174540000000 1.0
C      1  0.5284790000000  0.5569220000000  0.5141400000000 1.0
C      1  0.4369020000000  0.4942330000000  0.5096970000000 1.0
C      1  0.4190840000000  0.4665630000000  0.4434360000000 1.0
C      1  0.5594680000000  0.4484710000000  0.4417380000000 1.0
C      1  0.5129910000000  0.5921570000000  0.4459970000000 1.0
C      1  0.5590180000000  0.5193900000000  0.4377300000000 1.0
C      1  0.4519550000000  0.5416240000000  0.4381500000000 1.0
C      1  0.4893970000000  0.4410040000000  0.4452730000000 1.0
C      1  0.5486620000000  0.4342050000000  0.5538420000000 1.0
C      1  0.5349220000000  0.5655460000000  0.5523280000000 1.0
C      1  0.4202170000000  0.4921500000000  0.5457630000000 1.0
C      1  0.4782110000000  0.5457800000000  0.4242640000000 1.0
C      1  0.4776690000000  0.4557420000000  0.4239920000000 1.0
C      1  0.5507400000000  0.4995920000000  0.4179540000000 1.0
C      1  0.5863230000000  0.5161420000000  0.5042890000000 1.0
C      1  0.4403920000000  0.5710240000000  0.4997860000000 1.0
C      1  0.4699480000000  0.4007270000000  0.5177720000000 1.0
C      1  0.5000840000000  0.5269330000000  0.4578580000000 1.0
C      1  0.4871860000000  0.4887920000000  0.4599600000000 1.0
C      1  0.5192290000000  0.4994680000000  0.4639180000000 1.0
C      1  0.5488710000000  0.4302630000000  0.4684350000000 1.0
C      1  0.5341640000000  0.5834220000000  0.4698410000000 1.0
C      1  0.4120650000000  0.4849420000000  0.4626390000000 1.0
C      1  0.5471060000000  0.5455530000000  0.4359180000000 1.0
C      1  0.4407140000000  0.5159800000000  0.4368970000000 1.0
C      1  0.5202570000000  0.4503590000000  0.4493400000000 1.0
C      1  0.5482290000000  0.5762530000000  0.5771320000000 1.0
C      1  0.4401020000000  0.4829170000000  0.5657170000000 1.0
C      1  0.5506370000000  0.4615800000000  0.5740040000000 1.0
C      1  0.5244940000000  0.5850660000000  0.5024990000000 1.0
C      1  0.4133030000000  0.4770210000000  0.4957030000000 1.0
C      1  0.5604220000000  0.4303390000000  0.5004430000000 1.0
C      1  0.5697340000000  0.4357110000000  0.5316120000000 1.0
C      1  0.5176480000000  0.5884020000000  0.5356630000000 1.0
C      1  0.4113940000000  0.4702130000000  0.5284680000000 1.0
C      1  0.4680800000000  0.4973170000000  0.4849170000000 1.0
C      1  0.5182870000000  0.4815150000000  0.4928250000000 1.0
C      1  0.5065200000000  0.5344990000000  0.4896140000000 1.0
C      1  0.4989350000000  0.5460360000000  0.5208070000000 1.0
C      1  0.4538390000000  0.4791360000000  0.5285210000000 1.0
C      1  0.5388980000000  0.4698340000000  0.5178370000000 1.0
C      1  0.4810200000000  0.4419390000000  0.5786330000000 1.0
C      1  0.5636060000000  0.5184200000000  0.5736970000000 1.0
C      1  0.4541060000000  0.5442780000000  0.5664600000000 1.0
C      1  0.4917330000000  0.5868540000000  0.4937970000000 1.0
C      1  0.4351270000000  0.4573140000000  0.4824100000000 1.0
C      1  0.5664200000000  0.4597930000000  0.4885380000000 1.0
C      1  0.5524020000000  0.5078510000000  0.4656800000000 1.0
C      1  0.4721790000000  0.5454030000000  0.4650690000000 1.0
C      1  0.4866410000000  0.4585180000000  0.4693090000000 1.0
C      1  0.5198410000000  0.5058050000000  0.5558240000000 1.0
C      1  0.4919750000000  0.5099640000000  0.5365560000000 1.0
C      1  0.5037900000000  0.4758950000000  0.5535720000000 1.0
C      1  0.5267240000000  0.5151690000000  0.4092040000000 1.0
C      1  0.4741140000000  0.5186770000000  0.4140200000000 1.0
C      1  0.4965270000000  0.4742210000000  0.4149120000000 1.0
C      1  0.5503120000000  0.4917380000000  0.5613530000000 1.0
C      1  0.4829930000000  0.5363290000000  0.5560630000000 1.0
C      1  0.4537700000000  0.4560810000000  0.5688430000000 1.0
C      1  0.5161900000000  0.5389640000000  0.5492050000000 1.0
C      1  0.4674520000000  0.4968840000000  0.5511170000000 1.0
C      1  0.5288740000000  0.4611180000000  0.5480880000000 1.0
C      1  0.5485860000000  0.5128060000000  0.5167890000000 1.0
C      1  0.4575810000000  0.5382160000000  0.5146240000000 1.0
C      1  0.4884750000000  0.4594810000000  0.5293020000000 1.0
C      1  0.4400230000000  0.5711010000000  0.5289900000000 1.0
C      1  0.4708020000000  0.4172040000000  0.5400890000000 1.0
C      1  0.5892410000000  0.5100750000000  0.5322570000000 1.0
C      1  0.4503130000000  0.4668170000000  0.4334550000000 1.0
C      1  0.5509540000000  0.4707890000000  0.4289760000000 1.0
C      1  0.4984280000000  0.5629150000000  0.4405660000000 1.0
C      1  0.4798750000000  0.6142070000000  0.4916450000000 1.0
C      1  0.4500670000000  0.4326440000000  0.4869210000000 1.0
C      1  0.5935080000000  0.4762860000000  0.4831540000000 1.0
C      1  0.5836960000000  0.4601080000000  0.5334470000000 1.0
C      1  0.4899190000000  0.5886850000000  0.5415370000000 1.0
C      1  0.4240140000000  0.4458250000000  0.5339640000000 1.0
C      1  0.4958050000000  0.5051620000000  0.5030920000000 1.0
END
