TITL C-3289325-7307-139 -0.00148261158859436 125000 -480.808171436956 0 0 94 (C1) n - 1
REM
REM in /nfs/bkarasulu/CARBON/AIRSS/Generating-Clusters/AIREBO/with-SteepDescent/Higher-Symm/SD-CG/HFTN-CG
REM
REM
REM
REM
REM
REM ./C.cell (b20cbc046b6831c77cfcea5457e17084)
REM
REM compiler GCC version 9.2.1 20190827 (Red Hat 9.2.1-1)
REM options -cpp -mtune=generic -march=x86-64 -g -O0 -fpre-include=/usr/include/finclude/math-vector-fortran.h
REM seed 846869486 2145936836 763771468 1735993819 1793656516 649573630 -294731367 -89378796 -1962455589 2084945881 -2081940222 -207579051 1975501413 -1754797534 -2080827 -176647872 -1894397898 -1009825968 -831476181 -1717205833 843194341 -497049269 -1884421547 -475692299 1334612437 941720742 -646552887 1891714191 856167474 1409927584 -113536217 1946338118 1388832042
REM
CELL 1.54180   50.00000   50.00000   50.00000   90.00000   90.00000   90.00000
LATT -1
SFAC C  
C      1  0.5628450000000  0.4490360000000  0.4967650000000 1.0
C      1  0.4541580000000  0.4546710000000  0.4447090000000 1.0
C      1  0.4651020000000  0.4617380000000  0.5725430000000 1.0
C      1  0.5084590000000  0.4690590000000  0.5439470000000 1.0
C      1  0.5251890000000  0.4610510000000  0.4711390000000 1.0
C      1  0.4618430000000  0.4611890000000  0.5007450000000 1.0
C      1  0.4764390000000  0.5727830000000  0.5323910000000 1.0
C      1  0.5322440000000  0.5671260000000  0.5037880000000 1.0
C      1  0.4979000000000  0.5717110000000  0.4429870000000 1.0
C      1  0.4472660000000  0.5117240000000  0.5584730000000 1.0
C      1  0.5748080000000  0.5076010000000  0.5212990000000 1.0
C      1  0.4766740000000  0.5111880000000  0.4251510000000 1.0
C      1  0.4393090000000  0.5501430000000  0.4906610000000 1.0
C      1  0.5271550000000  0.5432970000000  0.5704190000000 1.0
C      1  0.5487580000000  0.5426140000000  0.4408730000000 1.0
C      1  0.5698630000000  0.5278780000000  0.4811160000000 1.0
C      1  0.4624910000000  0.5311660000000  0.4567020000000 1.0
C      1  0.4825090000000  0.5284520000000  0.5672390000000 1.0
C      1  0.5047570000000  0.5035930000000  0.4686860000000 1.0
C      1  0.4703680000000  0.4987860000000  0.5134560000000 1.0
C      1  0.5255030000000  0.4992540000000  0.5240340000000 1.0
C      1  0.4143100000000  0.4880310000000  0.4779810000000 1.0
C      1  0.5225510000000  0.4796430000000  0.5797050000000 1.0
C      1  0.5522540000000  0.4722400000000  0.4441190000000 1.0
C      1  0.5286440000000  0.4721170000000  0.5038600000000 1.0
C      1  0.4835740000000  0.4796840000000  0.4803660000000 1.0
C      1  0.4926560000000  0.4742770000000  0.5211630000000 1.0
C      1  0.4535080000000  0.4887980000000  0.4856500000000 1.0
C      1  0.5037960000000  0.4993930000000  0.5502230000000 1.0
C      1  0.5356810000000  0.4927580000000  0.4777730000000 1.0
C      1  0.4542740000000  0.4445370000000  0.5246610000000 1.0
C      1  0.5283580000000  0.4527540000000  0.5541540000000 1.0
C      1  0.5260480000000  0.4453180000000  0.4443320000000 1.0
C      1  0.5767960000000  0.5415000000000  0.5230970000000 1.0
C      1  0.4803370000000  0.5359260000000  0.4124570000000 1.0
C      1  0.4389970000000  0.5390080000000  0.5573470000000 1.0
C      1  0.5814120000000  0.4973490000000  0.4895580000000 1.0
C      1  0.4494890000000  0.5057540000000  0.4400930000000 1.0
C      1  0.4663790000000  0.5054370000000  0.5825570000000 1.0
C      1  0.4907930000000  0.5342130000000  0.4735490000000 1.0
C      1  0.4864760000000  0.5235550000000  0.5357160000000 1.0
C      1  0.5472790000000  0.5138290000000  0.5023390000000 1.0
C      1  0.4459390000000  0.5217670000000  0.5077870000000 1.0
C      1  0.5345640000000  0.5241870000000  0.5455030000000 1.0
C      1  0.5243620000000  0.5212510000000  0.4470610000000 1.0
C      1  0.4913000000000  0.4829670000000  0.5770760000000 1.0
C      1  0.5633910000000  0.4735810000000  0.4732360000000 1.0
C      1  0.4379860000000  0.4808290000000  0.4600520000000 1.0
C      1  0.4887630000000  0.5615440000000  0.4183970000000 1.0
C      1  0.4472300000000  0.5632430000000  0.5469700000000 1.0
C      1  0.5606630000000  0.5609460000000  0.5214240000000 1.0
C      1  0.5394230000000  0.4282110000000  0.4889500000000 1.0
C      1  0.4730670000000  0.4276080000000  0.4828280000000 1.0
C      1  0.5037690000000  0.4254430000000  0.5235640000000 1.0
C      1  0.3929670000000  0.4896710000000  0.5020500000000 1.0
C      1  0.5497860000000  0.4886930000000  0.5958750000000 1.0
C      1  0.5526830000000  0.4783290000000  0.4117940000000 1.0
C      1  0.5373450000000  0.5628280000000  0.4742400000000 1.0
C      1  0.4879890000000  0.5909030000000  0.4607720000000 1.0
C      1  0.4905970000000  0.5950630000000  0.5487670000000 1.0
C      1  0.5011310000000  0.5444790000000  0.5787320000000 1.0
C      1  0.5624840000000  0.5494990000000  0.4661220000000 1.0
C      1  0.4441320000000  0.5498050000000  0.4644510000000 1.0
C      1  0.4623610000000  0.5504390000000  0.5125680000000 1.0
C      1  0.5282420000000  0.5382800000000  0.5163420000000 1.0
C      1  0.5138910000000  0.5516230000000  0.4581920000000 1.0
C      1  0.4526320000000  0.4761470000000  0.4236640000000 1.0
C      1  0.4582190000000  0.4770780000000  0.5984280000000 1.0
C      1  0.5923830000000  0.4658850000000  0.4968910000000 1.0
C      1  0.4496980000000  0.4906240000000  0.5391980000000 1.0
C      1  0.5541590000000  0.4830600000000  0.5325840000000 1.0
C      1  0.4957330000000  0.4956710000000  0.4368660000000 1.0
C      1  0.4715420000000  0.4339640000000  0.4528150000000 1.0
C      1  0.4524520000000  0.4629620000000  0.5473140000000 1.0
C      1  0.5537450000000  0.4519750000000  0.5272570000000 1.0
C      1  0.4206660000000  0.5062980000000  0.5034960000000 1.0
C      1  0.5407060000000  0.5058710000000  0.5708580000000 1.0
C      1  0.5398250000000  0.4999020000000  0.4311850000000 1.0
C      1  0.4739450000000  0.4224300000000  0.5130590000000 1.0
C      1  0.5302740000000  0.4285350000000  0.5347940000000 1.0
C      1  0.5025210000000  0.4316590000000  0.4563000000000 1.0
C      1  0.4837650000000  0.6709060000000  0.5183080000000 1.0
C      1  0.5010370000000  0.5082250000000  0.5021700000000 1.0
C      1  0.4897390000000  0.6227430000000  0.4975600000000 1.0
C      1  0.5061280000000  0.3895050000000  0.4864600000000 1.0
C      1  0.5007080000000  0.4554020000000  0.4940510000000 1.0
C      1  0.4947220000000  0.5411580000000  0.5077970000000 1.0
C      1  0.5086850000000  0.3104090000000  0.4861940000000 1.0
C      1  0.5073820000000  0.3365700000000  0.4852210000000 1.0
C      1  0.5080610000000  0.3631890000000  0.4858870000000 1.0
C      1  0.4993240000000  0.5748670000000  0.5073190000000 1.0
C      1  0.4856910000000  0.6472100000000  0.5072750000000 1.0
C      1  0.4912760000000  0.5969860000000  0.4880060000000 1.0
C      1  0.5059680000000  0.4221160000000  0.4894730000000 1.0
END
