TITL C-3289325-7307-394 -0.00273122979448712 125000 -906.337799728147 0 0 165 (C1) n - 1
REM
REM in /nfs/bkarasulu/CARBON/AIRSS/Generating-Clusters/AIREBO/with-SteepDescent/Higher-Symm/SD-CG/HFTN-CG
REM
REM
REM
REM
REM
REM ./C.cell (b20cbc046b6831c77cfcea5457e17084)
REM
REM compiler GCC version 9.2.1 20190827 (Red Hat 9.2.1-1)
REM options -cpp -mtune=generic -march=x86-64 -g -O0 -fpre-include=/usr/include/finclude/math-vector-fortran.h
REM seed -932032247 1016088985 -2090726854 101171397 941920819 800054913 2125831080 48929037 1353577340 -1522452464 -847519367 -1393649291 -655861524 -385611904 926097604 1104203773 640329817 558872370 1780967994 1434407942 1055928132 -1682625465 -2000378269 169477791 -190065794 839113392 514861014 1749838793 -416650773 1579143851 2123778895 1601667 -1374014774
REM
CELL 1.54180   50.00000   50.00000   50.00000   90.00000   90.00000   90.00000
LATT -1
SFAC C  
C      1  0.5208230000000  0.4849890000000  0.4821350000000 1.0
C      1  0.4794050000000  0.4872500000000  0.5169680000000 1.0
C      1  0.4909230000000  0.5159900000000  0.4802020000000 1.0
C      1  0.5156650000000  0.5159550000000  0.5184240000000 1.0
C      1  0.4274550000000  0.4517360000000  0.4444910000000 1.0
C      1  0.5766880000000  0.4556840000000  0.5360100000000 1.0
C      1  0.5734480000000  0.5499640000000  0.4444750000000 1.0
C      1  0.4267480000000  0.5441890000000  0.5515330000000 1.0
C      1  0.5951010000000  0.5054770000000  0.4808400000000 1.0
C      1  0.4008830000000  0.4980270000000  0.5165190000000 1.0
C      1  0.4109890000000  0.4985800000000  0.4840530000000 1.0
C      1  0.5890150000000  0.5059510000000  0.5130730000000 1.0
C      1  0.5151240000000  0.4304060000000  0.5849510000000 1.0
C      1  0.4760460000000  0.4321620000000  0.4222890000000 1.0
C      1  0.4761120000000  0.5611250000000  0.5769510000000 1.0
C      1  0.5234940000000  0.5644000000000  0.4215090000000 1.0
C      1  0.4968570000000  0.4043520000000  0.5174900000000 1.0
C      1  0.4914700000000  0.4143990000000  0.4877770000000 1.0
C      1  0.4943150000000  0.5910510000000  0.5155630000000 1.0
C      1  0.5016230000000  0.5937340000000  0.4822570000000 1.0
C      1  0.5763220000000  0.4302830000000  0.5128130000000 1.0
C      1  0.4198440000000  0.4204740000000  0.5013680000000 1.0
C      1  0.4243960000000  0.5754630000000  0.4973500000000 1.0
C      1  0.5688440000000  0.5857500000000  0.5023450000000 1.0
C      1  0.5327940000000  0.4358970000000  0.4448900000000 1.0
C      1  0.4618950000000  0.4320260000000  0.5558360000000 1.0
C      1  0.4657380000000  0.5712240000000  0.4378370000000 1.0
C      1  0.5358030000000  0.5711390000000  0.5576490000000 1.0
C      1  0.4880370000000  0.5078400000000  0.5879070000000 1.0
C      1  0.5158610000000  0.5033910000000  0.4132260000000 1.0
C      1  0.5180120000000  0.4956470000000  0.5938480000000 1.0
C      1  0.4835230000000  0.4951250000000  0.4100540000000 1.0
C      1  0.4772290000000  0.5423630000000  0.3909400000000 1.0
C      1  0.5318770000000  0.5368990000000  0.6140750000000 1.0
C      1  0.5188830000000  0.4562510000000  0.3922340000000 1.0
C      1  0.4889600000000  0.4738280000000  0.6050920000000 1.0
C      1  0.4144410000000  0.4957220000000  0.5642730000000 1.0
C      1  0.5804740000000  0.5015490000000  0.4325690000000 1.0
C      1  0.5852080000000  0.5018310000000  0.5628010000000 1.0
C      1  0.4213150000000  0.5029020000000  0.4365210000000 1.0
C      1  0.4947310000000  0.4758470000000  0.4685990000000 1.0
C      1  0.5078030000000  0.4775410000000  0.5329540000000 1.0
C      1  0.5075020000000  0.5214990000000  0.4616050000000 1.0
C      1  0.4997360000000  0.5212750000000  0.5374480000000 1.0
C      1  0.4926910000000  0.5554190000000  0.4102370000000 1.0
C      1  0.5197470000000  0.5530850000000  0.5891180000000 1.0
C      1  0.5073470000000  0.4419670000000  0.4133330000000 1.0
C      1  0.4855360000000  0.4471480000000  0.5841350000000 1.0
C      1  0.5259880000000  0.5336970000000  0.4070490000000 1.0
C      1  0.4736480000000  0.5379410000000  0.5941000000000 1.0
C      1  0.4739320000000  0.4625990000000  0.4072210000000 1.0
C      1  0.5200290000000  0.4613530000000  0.5981770000000 1.0
C      1  0.4603120000000  0.5193140000000  0.4016850000000 1.0
C      1  0.5469160000000  0.5127540000000  0.5991360000000 1.0
C      1  0.5389540000000  0.4809060000000  0.4022880000000 1.0
C      1  0.4604390000000  0.4912760000000  0.5988640000000 1.0
C      1  0.5506220000000  0.5316250000000  0.3892750000000 1.0
C      1  0.4475910000000  0.5291370000000  0.5996960000000 1.0
C      1  0.4473620000000  0.4685800000000  0.3975640000000 1.0
C      1  0.5479370000000  0.4725260000000  0.6068480000000 1.0
C      1  0.4892490000000  0.5594740000000  0.5393630000000 1.0
C      1  0.5118460000000  0.5609550000000  0.4621370000000 1.0
C      1  0.5168780000000  0.4395120000000  0.5392260000000 1.0
C      1  0.4789330000000  0.4407070000000  0.4609730000000 1.0
C      1  0.5910840000000  0.4863610000000  0.5392960000000 1.0
C      1  0.4155060000000  0.4822520000000  0.4545570000000 1.0
C      1  0.4079660000000  0.5168190000000  0.5440370000000 1.0
C      1  0.5866380000000  0.5218260000000  0.4522180000000 1.0
C      1  0.5093290000000  0.5404880000000  0.5592940000000 1.0
C      1  0.4966840000000  0.5409220000000  0.4392030000000 1.0
C      1  0.4943230000000  0.4586520000000  0.5553010000000 1.0
C      1  0.5001700000000  0.4582900000000  0.4410600000000 1.0
C      1  0.5671240000000  0.5741410000000  0.5333200000000 1.0
C      1  0.4448100000000  0.5665950000000  0.4753810000000 1.0
C      1  0.4366260000000  0.4266260000000  0.5263530000000 1.0
C      1  0.5655010000000  0.4347810000000  0.4805870000000 1.0
C      1  0.5320910000000  0.5879610000000  0.4683000000000 1.0
C      1  0.4653480000000  0.5819880000000  0.5304170000000 1.0
C      1  0.4617670000000  0.4134350000000  0.4701490000000 1.0
C      1  0.5254920000000  0.4093800000000  0.5306300000000 1.0
C      1  0.5113330000000  0.5619660000000  0.5160010000000 1.0
C      1  0.4947230000000  0.5616010000000  0.4886260000000 1.0
C      1  0.4948110000000  0.4505290000000  0.5162920000000 1.0
C      1  0.5021900000000  0.4465720000000  0.4850750000000 1.0
C      1  0.5353110000000  0.5065990000000  0.4602430000000 1.0
C      1  0.4750430000000  0.5068420000000  0.5410660000000 1.0
C      1  0.4692660000000  0.4906870000000  0.4583730000000 1.0
C      1  0.5329770000000  0.4892540000000  0.5426190000000 1.0
C      1  0.4609480000000  0.5217430000000  0.4821300000000 1.0
C      1  0.5441880000000  0.5275610000000  0.5198360000000 1.0
C      1  0.5498530000000  0.4757130000000  0.4807870000000 1.0
C      1  0.4500120000000  0.4740520000000  0.5232700000000 1.0
C      1  0.4559660000000  0.4612520000000  0.5856440000000 1.0
C      1  0.5476020000000  0.4535620000000  0.4194430000000 1.0
C      1  0.5495420000000  0.5402440000000  0.5789190000000 1.0
C      1  0.4547230000000  0.5427250000000  0.4238870000000 1.0
C      1  0.4145910000000  0.4503760000000  0.5030740000000 1.0
C      1  0.5866080000000  0.4562250000000  0.4933740000000 1.0
C      1  0.5730310000000  0.5526390000000  0.5080510000000 1.0
C      1  0.4184190000000  0.5455560000000  0.4967060000000 1.0
C      1  0.4024920000000  0.4670320000000  0.5233470000000 1.0
C      1  0.5977270000000  0.4749960000000  0.4731670000000 1.0
C      1  0.5913630000000  0.5344070000000  0.5246670000000 1.0
C      1  0.4061480000000  0.5291630000000  0.4765800000000 1.0
C      1  0.5561570000000  0.5080030000000  0.4122020000000 1.0
C      1  0.4392060000000  0.5074120000000  0.5773020000000 1.0
C      1  0.4395500000000  0.4959470000000  0.4118010000000 1.0
C      1  0.5654900000000  0.4883350000000  0.5844660000000 1.0
C      1  0.5380400000000  0.5579160000000  0.5270110000000 1.0
C      1  0.4669720000000  0.5525880000000  0.4920470000000 1.0
C      1  0.4657880000000  0.4439860000000  0.5241850000000 1.0
C      1  0.5345190000000  0.4383390000000  0.4776090000000 1.0
C      1  0.5259780000000  0.4103080000000  0.5646140000000 1.0
C      1  0.4488420000000  0.4252300000000  0.4409340000000 1.0
C      1  0.4539090000000  0.5639630000000  0.5568810000000 1.0
C      1  0.5456310000000  0.5694810000000  0.4429700000000 1.0
C      1  0.5575360000000  0.4962890000000  0.5201770000000 1.0
C      1  0.4442030000000  0.4921920000000  0.4805310000000 1.0
C      1  0.4329370000000  0.5010080000000  0.5178290000000 1.0
C      1  0.5628830000000  0.5061860000000  0.4802180000000 1.0
C      1  0.4579040000000  0.3939470000000  0.5158410000000 1.0
C      1  0.5372820000000  0.3985720000000  0.4803360000000 1.0
C      1  0.5300730000000  0.6085760000000  0.5152090000000 1.0
C      1  0.4624160000000  0.6044870000000  0.4841620000000 1.0
C      1  0.5833140000000  0.5341150000000  0.5558150000000 1.0
C      1  0.4185520000000  0.5321940000000  0.4487390000000 1.0
C      1  0.4158380000000  0.4663680000000  0.5509430000000 1.0
C      1  0.5806320000000  0.4742160000000  0.4449920000000 1.0
C      1  0.5341690000000  0.4432340000000  0.5112560000000 1.0
C      1  0.4518690000000  0.4558050000000  0.4658180000000 1.0
C      1  0.4641730000000  0.5426190000000  0.5246600000000 1.0
C      1  0.5409850000000  0.5456550000000  0.4663710000000 1.0
C      1  0.4506010000000  0.5253700000000  0.4519200000000 1.0
C      1  0.5530100000000  0.5225600000000  0.5513070000000 1.0
C      1  0.5492750000000  0.4649290000000  0.4514490000000 1.0
C      1  0.4476190000000  0.4728080000000  0.5571650000000 1.0
C      1  0.4754860000000  0.4056580000000  0.5409400000000 1.0
C      1  0.5135110000000  0.4060530000000  0.4670010000000 1.0
C      1  0.5161710000000  0.5922830000000  0.5415800000000 1.0
C      1  0.4802810000000  0.5929670000000  0.4576200000000 1.0
C      1  0.4288350000000  0.4376420000000  0.5547010000000 1.0
C      1  0.5819940000000  0.4424290000000  0.4561250000000 1.0
C      1  0.5684570000000  0.5637020000000  0.5645910000000 1.0
C      1  0.4347060000000  0.5612940000000  0.4452570000000 1.0
C      1  0.4447160000000  0.4044830000000  0.4941600000000 1.0
C      1  0.5476990000000  0.4121960000000  0.5080170000000 1.0
C      1  0.5455850000000  0.5990830000000  0.4942620000000 1.0
C      1  0.4488870000000  0.5924210000000  0.5054410000000 1.0
C      1  0.5574170000000  0.4738720000000  0.5564390000000 1.0
C      1  0.4504240000000  0.4755970000000  0.4367860000000 1.0
C      1  0.4526310000000  0.5237990000000  0.5505730000000 1.0
C      1  0.5494380000000  0.5266140000000  0.4386000000000 1.0
C      1  0.4776190000000  0.5128550000000  0.4368460000000 1.0
C      1  0.5254760000000  0.5112160000000  0.5658920000000 1.0
C      1  0.5233480000000  0.4830030000000  0.4388850000000 1.0
C      1  0.4782400000000  0.4861050000000  0.5636520000000 1.0
C      1  0.4861400000000  0.4153550000000  0.5720730000000 1.0
C      1  0.5053360000000  0.4184020000000  0.4374850000000 1.0
C      1  0.5052080000000  0.5778600000000  0.5709120000000 1.0
C      1  0.4959400000000  0.5838170000000  0.4285970000000 1.0
C      1  0.5543760000000  0.5345350000000  0.4895940000000 1.0
C      1  0.4406490000000  0.5276310000000  0.5087640000000 1.0
C      1  0.4406180000000  0.4630460000000  0.4932990000000 1.0
C      1  0.5580410000000  0.4655020000000  0.5093270000000 1.0
C      1  0.5020570000000  0.4991690000000  0.5001010000000 1.0
END
