TITL C-3289335-9438-506 0.00328081589157307 125000 -737.837154545437 0 0 145 (C1) n - 1
REM
REM in /nfs/bkarasulu/CARBON/AIRSS/Generating-Clusters/AIREBO/with-SteepDescent/Higher-Symm/SD-CG/HFTN-CG
REM
REM
REM
REM
REM
REM ./C.cell (b20cbc046b6831c77cfcea5457e17084)
REM
REM compiler GCC version 9.2.1 20190827 (Red Hat 9.2.1-1)
REM options -cpp -mtune=generic -march=x86-64 -g -O0 -fpre-include=/usr/include/finclude/math-vector-fortran.h
REM seed -571257963 1377362860 -1574024667 -845853736 1653656708 1562241006 204019817 -419731523 1150992921 -646923056 532625632 991155452 -1836231166 2078694034 -1367220965 -1902449858 -150969545 -205555907 -1687419674 1574731954 1832899728 385802429 1137943536 320199104 -488718101 1013556358 -26483219 -328537714 129283495 -1607126814 2121531425 -943879132 -981451689
REM
CELL 1.54180   50.00000   50.00000   50.00000   90.00000   90.00000   90.00000
LATT -1
SFAC C  
C      1  0.4713700000000  0.5392450000000  0.5348190000000 1.0
C      1  0.4772320000000  0.5458980000000  0.4681610000000 1.0
C      1  0.4727350000000  0.4845980000000  0.4478560000000 1.0
C      1  0.4767840000000  0.4459770000000  0.5023730000000 1.0
C      1  0.4727360000000  0.4808320000000  0.5497110000000 1.0
C      1  0.4999050000000  0.4443040000000  0.5247090000000 1.0
C      1  0.4980010000000  0.5033930000000  0.5537070000000 1.0
C      1  0.4926120000000  0.5572160000000  0.5151570000000 1.0
C      1  0.4997750000000  0.5287690000000  0.4522070000000 1.0
C      1  0.4959690000000  0.4619240000000  0.4583310000000 1.0
C      1  0.4008490000000  0.5046510000000  0.4675790000000 1.0
C      1  0.4063020000000  0.4804020000000  0.4859480000000 1.0
C      1  0.4008760000000  0.4881750000000  0.5148430000000 1.0
C      1  0.4044810000000  0.5191560000000  0.5146280000000 1.0
C      1  0.4069130000000  0.5283890000000  0.4861250000000 1.0
C      1  0.5486190000000  0.5484840000000  0.5798190000000 1.0
C      1  0.5421290000000  0.5935820000000  0.4767270000000 1.0
C      1  0.5487140000000  0.5067550000000  0.4127690000000 1.0
C      1  0.5488950000000  0.4098390000000  0.4632790000000 1.0
C      1  0.5507670000000  0.4391610000000  0.5680200000000 1.0
C      1  0.4347140000000  0.5039160000000  0.4705120000000 1.0
C      1  0.4394520000000  0.4728760000000  0.4851500000000 1.0
C      1  0.4322790000000  0.4756750000000  0.5185620000000 1.0
C      1  0.4339480000000  0.5078810000000  0.5246240000000 1.0
C      1  0.4393050000000  0.5261390000000  0.4962400000000 1.0
C      1  0.4217880000000  0.5871160000000  0.4817300000000 1.0
C      1  0.3948690000000  0.5173340000000  0.4187570000000 1.0
C      1  0.3894650000000  0.4359640000000  0.4430710000000 1.0
C      1  0.3963900000000  0.4334520000000  0.5575140000000 1.0
C      1  0.4251300000000  0.5494600000000  0.5771520000000 1.0
C      1  0.4186160000000  0.4442010000000  0.5510690000000 1.0
C      1  0.4223780000000  0.5291840000000  0.5586770000000 1.0
C      1  0.4104060000000  0.5731950000000  0.5027250000000 1.0
C      1  0.4187630000000  0.5145550000000  0.4273540000000 1.0
C      1  0.4125710000000  0.4423230000000  0.4518560000000 1.0
C      1  0.4614010000000  0.4027870000000  0.4992940000000 1.0
C      1  0.4648260000000  0.4661950000000  0.5952530000000 1.0
C      1  0.4645110000000  0.5773970000000  0.5690410000000 1.0
C      1  0.4619110000000  0.5780650000000  0.4438550000000 1.0
C      1  0.4650930000000  0.4732120000000  0.4004390000000 1.0
C      1  0.4863210000000  0.5831680000000  0.5446810000000 1.0
C      1  0.4879740000000  0.5620750000000  0.4289810000000 1.0
C      1  0.4886060000000  0.4549880000000  0.4145190000000 1.0
C      1  0.4866660000000  0.4068970000000  0.5205310000000 1.0
C      1  0.4896690000000  0.4874830000000  0.5949000000000 1.0
C      1  0.4678920000000  0.5325910000000  0.5872160000000 1.0
C      1  0.4583480000000  0.6039680000000  0.5253010000000 1.0
C      1  0.4697650000000  0.5228790000000  0.4097430000000 1.0
C      1  0.4641280000000  0.4233390000000  0.4437000000000 1.0
C      1  0.4689790000000  0.4291630000000  0.5600330000000 1.0
C      1  0.5213880000000  0.4676360000000  0.4949820000000 1.0
C      1  0.5152780000000  0.4809620000000  0.5218620000000 1.0
C      1  0.5206240000000  0.5241720000000  0.5169690000000 1.0
C      1  0.5236100000000  0.5267750000000  0.4859930000000 1.0
C      1  0.5188230000000  0.4954430000000  0.4765050000000 1.0
C      1  0.5625420000000  0.5826350000000  0.4999930000000 1.0
C      1  0.5690230000000  0.5275920000000  0.4257650000000 1.0
C      1  0.5670860000000  0.4344590000000  0.4484750000000 1.0
C      1  0.5689700000000  0.4303970000000  0.5437160000000 1.0
C      1  0.5687930000000  0.5213780000000  0.5770680000000 1.0
C      1  0.5918570000000  0.4958560000000  0.4763830000000 1.0
C      1  0.5883720000000  0.4700670000000  0.4987420000000 1.0
C      1  0.5887970000000  0.4972840000000  0.5190250000000 1.0
C      1  0.5883930000000  0.5310600000000  0.5150710000000 1.0
C      1  0.6044370000000  0.5178030000000  0.4887290000000 1.0
C      1  0.4522210000000  0.5555610000000  0.5826300000000 1.0
C      1  0.4502490000000  0.5746890000000  0.4733570000000 1.0
C      1  0.4562290000000  0.4968780000000  0.4093290000000 1.0
C      1  0.4563840000000  0.4229500000000  0.4755910000000 1.0
C      1  0.4563030000000  0.4512100000000  0.5747390000000 1.0
C      1  0.4630280000000  0.4301660000000  0.5284030000000 1.0
C      1  0.4649330000000  0.5011590000000  0.5758470000000 1.0
C      1  0.4583400000000  0.5703170000000  0.5301640000000 1.0
C      1  0.4643920000000  0.5390180000000  0.4374400000000 1.0
C      1  0.4618630000000  0.4547760000000  0.4356550000000 1.0
C      1  0.5167000000000  0.5497940000000  0.5379830000000 1.0
C      1  0.5164710000000  0.5534080000000  0.4686480000000 1.0
C      1  0.5193250000000  0.4827150000000  0.4449770000000 1.0
C      1  0.5147000000000  0.4353690000000  0.4954240000000 1.0
C      1  0.5215150000000  0.4801500000000  0.5547800000000 1.0
C      1  0.5368360000000  0.4326070000000  0.4277930000000 1.0
C      1  0.5403190000000  0.4118860000000  0.5409200000000 1.0
C      1  0.5398020000000  0.5096370000000  0.5931170000000 1.0
C      1  0.5417970000000  0.6001060000000  0.5215520000000 1.0
C      1  0.5406750000000  0.5454720000000  0.4183710000000 1.0
C      1  0.4508970000000  0.5166050000000  0.5489550000000 1.0
C      1  0.4415120000000  0.5594610000000  0.5026510000000 1.0
C      1  0.4492820000000  0.5081550000000  0.4406580000000 1.0
C      1  0.4405820000000  0.4495780000000  0.4620750000000 1.0
C      1  0.4482100000000  0.4583900000000  0.5424950000000 1.0
C      1  0.5199750000000  0.4752940000000  0.5878980000000 1.0
C      1  0.5169910000000  0.5776800000000  0.5566080000000 1.0
C      1  0.5162800000000  0.5727550000000  0.4409050000000 1.0
C      1  0.5186540000000  0.4686590000000  0.4140170000000 1.0
C      1  0.5166330000000  0.4027970000000  0.5049990000000 1.0
C      1  0.5126480000000  0.5467610000000  0.4111300000000 1.0
C      1  0.5089390000000  0.4301880000000  0.4245980000000 1.0
C      1  0.5111580000000  0.4085980000000  0.5441120000000 1.0
C      1  0.5121050000000  0.5126990000000  0.5990240000000 1.0
C      1  0.5086460000000  0.5930980000000  0.5208900000000 1.0
C      1  0.5480260000000  0.4650980000000  0.5842400000000 1.0
C      1  0.5441550000000  0.5755120000000  0.5672600000000 1.0
C      1  0.5425050000000  0.5834710000000  0.4491220000000 1.0
C      1  0.5459460000000  0.4773870000000  0.4075490000000 1.0
C      1  0.5429890000000  0.3998070000000  0.4923770000000 1.0
C      1  0.5408020000000  0.4326270000000  0.5161580000000 1.0
C      1  0.5480310000000  0.4991730000000  0.5618220000000 1.0
C      1  0.5400860000000  0.5662000000000  0.5195380000000 1.0
C      1  0.5429400000000  0.5435120000000  0.4507020000000 1.0
C      1  0.5438490000000  0.4592460000000  0.4470480000000 1.0
C      1  0.5712440000000  0.5513460000000  0.4938430000000 1.0
C      1  0.5729850000000  0.5029030000000  0.4489310000000 1.0
C      1  0.5705610000000  0.4486810000000  0.4791870000000 1.0
C      1  0.5734020000000  0.4601900000000  0.5277440000000 1.0
C      1  0.5713220000000  0.5308210000000  0.5444900000000 1.0
C      1  0.5519500000000  0.5132750000000  0.5246420000000 1.0
C      1  0.5542500000000  0.5251280000000  0.4954000000000 1.0
C      1  0.5524240000000  0.5008870000000  0.4733810000000 1.0
C      1  0.5508330000000  0.4734530000000  0.4866030000000 1.0
C      1  0.5492040000000  0.4825480000000  0.5193320000000 1.0
C      1  0.4700180000000  0.4742520000000  0.4957030000000 1.0
C      1  0.4852100000000  0.4884030000000  0.5190000000000 1.0
C      1  0.4880280000000  0.5177310000000  0.5144190000000 1.0
C      1  0.4715120000000  0.5230740000000  0.4880260000000 1.0
C      1  0.4847950000000  0.4959930000000  0.4775380000000 1.0
C      1  0.5641210000000  0.4245580000000  0.4969970000000 1.0
C      1  0.5690350000000  0.4733800000000  0.5587990000000 1.0
C      1  0.5619660000000  0.5614350000000  0.5446120000000 1.0
C      1  0.5645920000000  0.5629780000000  0.4643400000000 1.0
C      1  0.5674200000000  0.4773980000000  0.4321220000000 1.0
C      1  0.5343560000000  0.5302740000000  0.5593550000000 1.0
C      1  0.5203140000000  0.5761300000000  0.4936970000000 1.0
C      1  0.5349910000000  0.5123990000000  0.4394720000000 1.0
C      1  0.5333650000000  0.4356980000000  0.4692520000000 1.0
C      1  0.5352100000000  0.4510850000000  0.5436490000000 1.0
C      1  0.4988590000000  0.5219710000000  0.4063510000000 1.0
C      1  0.4941100000000  0.4164090000000  0.4444250000000 1.0
C      1  0.4981560000000  0.4258670000000  0.5630910000000 1.0
C      1  0.4975390000000  0.5352270000000  0.5888330000000 1.0
C      1  0.4805840000000  0.5958330000000  0.5073100000000 1.0
C      1  0.4967440000000  0.4569430000000  0.5527330000000 1.0
C      1  0.4945510000000  0.5328750000000  0.5574590000000 1.0
C      1  0.4778860000000  0.5699980000000  0.4899210000000 1.0
C      1  0.4961110000000  0.5049130000000  0.4338200000000 1.0
C      1  0.4886140000000  0.4335810000000  0.4734440000000 1.0
END
