TITL C-3289331-6719-560 -0.00121073480339386 125000 -224.976308344622 0 0 39 (C1) n - 1
REM
REM in /nfs/bkarasulu/CARBON/AIRSS/Generating-Clusters/AIREBO/with-SteepDescent/Higher-Symm/SD-CG/HFTN-CG
REM
REM
REM
REM
REM
REM ./C.cell (b20cbc046b6831c77cfcea5457e17084)
REM
REM compiler GCC version 9.2.1 20190827 (Red Hat 9.2.1-1)
REM options -cpp -mtune=generic -march=x86-64 -g -O0 -fpre-include=/usr/include/finclude/math-vector-fortran.h
REM seed -1486683844 584773583 1826294849 581925744 -968577859 -1671293957 -1880002752 579375987 -531431278 1410800638 -1949257208 -1719180516 220658176 -1539713751 1687633075 -326915075 359730917 -1652041552 -533025286 1239845326 1543815298 692628411 1918313572 123521173 -2108971729 42612287 610663146 -2055353930 2056194704 184442485 1653646016 729279170 367416870
REM
CELL 1.54180   50.00000   50.00000   50.00000   90.00000   90.00000   90.00000
LATT -1
SFAC C  
C      1  0.5313560000000  0.5142940000000  0.4624540000000 1.0
C      1  0.4811360000000  0.5281100000000  0.4449970000000 1.0
C      1  0.4613070000000  0.4886960000000  0.4744130000000 1.0
C      1  0.5095070000000  0.4700380000000  0.4684790000000 1.0
C      1  0.5266410000000  0.4873530000000  0.4514750000000 1.0
C      1  0.4805940000000  0.4669530000000  0.4727360000000 1.0
C      1  0.4630250000000  0.5158090000000  0.4625150000000 1.0
C      1  0.5075940000000  0.5318140000000  0.4560970000000 1.0
C      1  0.4867070000000  0.5240600000000  0.5603830000000 1.0
C      1  0.4659690000000  0.4831950000000  0.5379720000000 1.0
C      1  0.5147840000000  0.4688670000000  0.5500810000000 1.0
C      1  0.5352100000000  0.5159490000000  0.5547330000000 1.0
C      1  0.4883240000000  0.4659300000000  0.5390790000000 1.0
C      1  0.4679650000000  0.5113290000000  0.5426040000000 1.0
C      1  0.5132790000000  0.5336470000000  0.5539810000000 1.0
C      1  0.5370380000000  0.4866480000000  0.5516660000000 1.0
C      1  0.4420340000000  0.4900450000000  0.4979280000000 1.0
C      1  0.5255580000000  0.4620100000000  0.4924650000000 1.0
C      1  0.5118090000000  0.5074300000000  0.4982620000000 1.0
C      1  0.4800720000000  0.5414740000000  0.4976880000000 1.0
C      1  0.4520850000000  0.5223590000000  0.4943380000000 1.0
C      1  0.5016960000000  0.5292650000000  0.4846510000000 1.0
C      1  0.5347640000000  0.4895810000000  0.4934870000000 1.0
C      1  0.4737650000000  0.4443630000000  0.4886020000000 1.0
C      1  0.5183560000000  0.4480040000000  0.5198030000000 1.0
C      1  0.5512450000000  0.5116780000000  0.5239260000000 1.0
C      1  0.4904620000000  0.5595130000000  0.5196390000000 1.0
C      1  0.4458630000000  0.4729920000000  0.5203080000000 1.0
C      1  0.5158950000000  0.5510230000000  0.5308560000000 1.0
C      1  0.5569370000000  0.4791440000000  0.5310030000000 1.0
C      1  0.4865190000000  0.4398360000000  0.5196110000000 1.0
C      1  0.4533960000000  0.5299350000000  0.5265980000000 1.0
C      1  0.5508160000000  0.4538210000000  0.5222030000000 1.0
C      1  0.4624170000000  0.5568720000000  0.5300820000000 1.0
C      1  0.4533850000000  0.4462610000000  0.5129930000000 1.0
C      1  0.5395700000000  0.5425270000000  0.5156690000000 1.0
C      1  0.4967380000000  0.4987540000000  0.5178430000000 1.0
C      1  0.5486880000000  0.5204080000000  0.4911470000000 1.0
C      1  0.5361510000000  0.4793460000000  0.4275870000000 1.0
END
