TITL C-3289334-2237-270 -0.00174411039552776 125000 -435.083802699015 0 0 81 (C1) n - 1
REM
REM in /nfs/bkarasulu/CARBON/AIRSS/Generating-Clusters/AIREBO/with-SteepDescent/Higher-Symm/SD-CG/HFTN-CG
REM
REM
REM
REM
REM
REM ./C.cell (b20cbc046b6831c77cfcea5457e17084)
REM
REM compiler GCC version 9.2.1 20190827 (Red Hat 9.2.1-1)
REM options -cpp -mtune=generic -march=x86-64 -g -O0 -fpre-include=/usr/include/finclude/math-vector-fortran.h
REM seed -1785107526 -1730448624 663608944 1566171793 -1621982519 2034966826 -354575305 1346808661 -1088075542 -888265912 -747417603 1862103717 1583421107 -535797198 -1438370147 478227819 -1023611172 1439634853 1112808195 -115907976 -577105220 -990412708 -1214624310 131162899 -1597517535 -1744067344 38219340 -189964913 -518100769 1714097302 1179368792 1387837862 296629503
REM
CELL 1.54180   50.00000   50.00000   50.00000   90.00000   90.00000   90.00000
LATT -1
SFAC C  
C      1  0.5478190000000  0.5502950000000  0.4729040000000 1.0
C      1  0.5738680000000  0.4801180000000  0.4746610000000 1.0
C      1  0.5267940000000  0.4372210000000  0.4814990000000 1.0
C      1  0.4657370000000  0.4400210000000  0.4734960000000 1.0
C      1  0.4281810000000  0.4792770000000  0.4675190000000 1.0
C      1  0.4422160000000  0.5509050000000  0.4711900000000 1.0
C      1  0.4934710000000  0.5765760000000  0.4740770000000 1.0
C      1  0.5061730000000  0.4622070000000  0.5094550000000 1.0
C      1  0.4775140000000  0.4763230000000  0.5049880000000 1.0
C      1  0.4595960000000  0.5040970000000  0.5105900000000 1.0
C      1  0.4762660000000  0.5306570000000  0.5022820000000 1.0
C      1  0.5079750000000  0.5286410000000  0.4964880000000 1.0
C      1  0.5333420000000  0.5098800000000  0.5093030000000 1.0
C      1  0.5332390000000  0.4775460000000  0.5076470000000 1.0
C      1  0.4402470000000  0.4807010000000  0.4373720000000 1.0
C      1  0.4556000000000  0.5330720000000  0.4453050000000 1.0
C      1  0.4980870000000  0.5551570000000  0.4475450000000 1.0
C      1  0.5462360000000  0.5453640000000  0.4392550000000 1.0
C      1  0.5518680000000  0.4995170000000  0.4599250000000 1.0
C      1  0.5368240000000  0.4548890000000  0.4493740000000 1.0
C      1  0.4809850000000  0.4435380000000  0.4432650000000 1.0
C      1  0.5275950000000  0.5249820000000  0.4288180000000 1.0
C      1  0.5351890000000  0.4986250000000  0.4365990000000 1.0
C      1  0.5213250000000  0.4737090000000  0.4347420000000 1.0
C      1  0.4936800000000  0.4659550000000  0.4313470000000 1.0
C      1  0.4721350000000  0.4893380000000  0.4334020000000 1.0
C      1  0.4754430000000  0.5191700000000  0.4297880000000 1.0
C      1  0.5000870000000  0.5327880000000  0.4308800000000 1.0
C      1  0.4917700000000  0.5370370000000  0.5318620000000 1.0
C      1  0.5218630000000  0.5449520000000  0.5411150000000 1.0
C      1  0.5393960000000  0.5194820000000  0.5397400000000 1.0
C      1  0.5418800000000  0.4645810000000  0.5378680000000 1.0
C      1  0.4956370000000  0.4519700000000  0.5400360000000 1.0
C      1  0.4733410000000  0.4777530000000  0.5373410000000 1.0
C      1  0.4502920000000  0.5021360000000  0.5432400000000 1.0
C      1  0.4263260000000  0.5340820000000  0.4961400000000 1.0
C      1  0.4778420000000  0.5814780000000  0.5038780000000 1.0
C      1  0.5402790000000  0.5777750000000  0.4914600000000 1.0
C      1  0.5800780000000  0.5063820000000  0.4953560000000 1.0
C      1  0.5574890000000  0.4317650000000  0.4952080000000 1.0
C      1  0.4817030000000  0.4208820000000  0.4955560000000 1.0
C      1  0.4305350000000  0.4562300000000  0.5106530000000 1.0
C      1  0.5209500000000  0.5942130000000  0.4791760000000 1.0
C      1  0.5712520000000  0.5392370000000  0.4949290000000 1.0
C      1  0.5792730000000  0.4468980000000  0.4794940000000 1.0
C      1  0.5090130000000  0.4135090000000  0.4811620000000 1.0
C      1  0.4366550000000  0.4519300000000  0.4822310000000 1.0
C      1  0.4169550000000  0.5018580000000  0.4903350000000 1.0
C      1  0.4594940000000  0.5756120000000  0.4755190000000 1.0
C      1  0.5007550000000  0.5755340000000  0.5275130000000 1.0
C      1  0.5609130000000  0.5484190000000  0.5230370000000 1.0
C      1  0.5714600000000  0.4821040000000  0.5175570000000 1.0
C      1  0.5348530000000  0.4369510000000  0.5205380000000 1.0
C      1  0.4688660000000  0.4266350000000  0.5251270000000 1.0
C      1  0.4269350000000  0.4839920000000  0.5173080000000 1.0
C      1  0.4424060000000  0.5459640000000  0.5236410000000 1.0
C      1  0.5420060000000  0.5173720000000  0.4790940000000 1.0
C      1  0.5445550000000  0.4662010000000  0.4804990000000 1.0
C      1  0.4964030000000  0.4538510000000  0.4784660000000 1.0
C      1  0.4760290000000  0.4776450000000  0.4650950000000 1.0
C      1  0.4540080000000  0.4937280000000  0.4786240000000 1.0
C      1  0.4593560000000  0.5240390000000  0.4763480000000 1.0
C      1  0.5140780000000  0.5496820000000  0.4770540000000 1.0
C      1  0.4682150000000  0.5016980000000  0.5702590000000 1.0
C      1  0.4845850000000  0.5268440000000  0.5751290000000 1.0
C      1  0.5029330000000  0.5498250000000  0.5679750000000 1.0
C      1  0.5317290000000  0.5013960000000  0.5644290000000 1.0
C      1  0.5301880000000  0.4739730000000  0.5626600000000 1.0
C      1  0.5038030000000  0.4649640000000  0.5660290000000 1.0
C      1  0.4819150000000  0.4779870000000  0.5787920000000 1.0
C      1  0.5333270000000  0.5682030000000  0.5208660000000 1.0
C      1  0.5691200000000  0.5150110000000  0.5263670000000 1.0
C      1  0.5668070000000  0.4488090000000  0.5226360000000 1.0
C      1  0.5032490000000  0.4244110000000  0.5216320000000 1.0
C      1  0.4541430000000  0.4509000000000  0.5290900000000 1.0
C      1  0.4249770000000  0.5168490000000  0.5259100000000 1.0
C      1  0.4693700000000  0.5605760000000  0.5275420000000 1.0
C      1  0.4982670000000  0.4984520000000  0.4948880000000 1.0
C      1  0.5052110000000  0.5111050000000  0.5585930000000 1.0
C      1  0.4950620000000  0.5033560000000  0.5284110000000 1.0
C      1  0.5028390000000  0.4917510000000  0.4652050000000 1.0
END
