TITL C-3289335-9438-453 -0.00317674021342134 125000 -387.238763006122 0 0 69 (C1) n - 1
REM
REM in /nfs/bkarasulu/CARBON/AIRSS/Generating-Clusters/AIREBO/with-SteepDescent/Higher-Symm/SD-CG/HFTN-CG
REM
REM
REM
REM
REM
REM ./C.cell (b20cbc046b6831c77cfcea5457e17084)
REM
REM compiler GCC version 9.2.1 20190827 (Red Hat 9.2.1-1)
REM options -cpp -mtune=generic -march=x86-64 -g -O0 -fpre-include=/usr/include/finclude/math-vector-fortran.h
REM seed -607030422 -1456781170 -1640568259 145319913 -688983537 288745301 1023155674 -708422618 1314734511 860325665 1405935103 -1246456928 -439391902 -870390164 -1760353079 -825305701 -1307470366 -1876340165 -1047045988 2079641913 122272011 502384399 40179167 37439545 1547521026 -1427453004 -1801168206 -1472353094 -757756020 -1873580910 -1549738424 -1882383444 -799958203
REM
CELL 1.54180   50.00000   50.00000   50.00000   90.00000   90.00000   90.00000
LATT -1
SFAC C  
C      1  0.5114540000000  0.4461680000000  0.4774780000000 1.0
C      1  0.4283680000000  0.4926350000000  0.4832160000000 1.0
C      1  0.4831040000000  0.5737260000000  0.4782600000000 1.0
C      1  0.5729990000000  0.5153810000000  0.4748580000000 1.0
C      1  0.4852130000000  0.4316970000000  0.4775110000000 1.0
C      1  0.5668060000000  0.4884580000000  0.4775300000000 1.0
C      1  0.5092700000000  0.5677910000000  0.4826490000000 1.0
C      1  0.4255900000000  0.5202080000000  0.4810970000000 1.0
C      1  0.5640550000000  0.4838910000000  0.5266980000000 1.0
C      1  0.4884340000000  0.4242640000000  0.5255630000000 1.0
C      1  0.4297090000000  0.5087800000000  0.5265420000000 1.0
C      1  0.5158920000000  0.5689140000000  0.5218900000000 1.0
C      1  0.4357880000000  0.4753830000000  0.5247470000000 1.0
C      1  0.5181510000000  0.4255970000000  0.5267970000000 1.0
C      1  0.5724380000000  0.5150340000000  0.5242880000000 1.0
C      1  0.4858190000000  0.5704230000000  0.5179540000000 1.0
C      1  0.5212040000000  0.5622640000000  0.5494950000000 1.0
C      1  0.5639920000000  0.4738160000000  0.5592370000000 1.0
C      1  0.4777950000000  0.4374710000000  0.5489040000000 1.0
C      1  0.4350270000000  0.5168880000000  0.5550370000000 1.0
C      1  0.4742850000000  0.5630770000000  0.5442730000000 1.0
C      1  0.4320360000000  0.4707690000000  0.5583680000000 1.0
C      1  0.5250340000000  0.4364840000000  0.5542240000000 1.0
C      1  0.5587690000000  0.5237350000000  0.5480450000000 1.0
C      1  0.5267040000000  0.5114870000000  0.5135090000000 1.0
C      1  0.5142410000000  0.4641130000000  0.5026820000000 1.0
C      1  0.4597330000000  0.4868270000000  0.4949910000000 1.0
C      1  0.4858410000000  0.5265110000000  0.4850890000000 1.0
C      1  0.4644690000000  0.5174040000000  0.5091130000000 1.0
C      1  0.4863440000000  0.4761780000000  0.5132840000000 1.0
C      1  0.5362470000000  0.4869720000000  0.4921730000000 1.0
C      1  0.5145650000000  0.5377530000000  0.4972360000000 1.0
C      1  0.5287430000000  0.5590870000000  0.4628370000000 1.0
C      1  0.5675050000000  0.4630570000000  0.4645100000000 1.0
C      1  0.4676360000000  0.4448200000000  0.4589660000000 1.0
C      1  0.4406930000000  0.5315110000000  0.4600360000000 1.0
C      1  0.4731740000000  0.5660980000000  0.4500910000000 1.0
C      1  0.4218070000000  0.4693880000000  0.4679040000000 1.0
C      1  0.5386630000000  0.4464660000000  0.4571910000000 1.0
C      1  0.5605430000000  0.5271280000000  0.4514230000000 1.0
C      1  0.5381600000000  0.4328690000000  0.5090710000000 1.0
C      1  0.4498820000000  0.4553050000000  0.5031500000000 1.0
C      1  0.4597230000000  0.5599650000000  0.4987580000000 1.0
C      1  0.5652990000000  0.5319380000000  0.5005140000000 1.0
C      1  0.4732740000000  0.4315210000000  0.5029030000000 1.0
C      1  0.5551650000000  0.4621210000000  0.5056390000000 1.0
C      1  0.5411170000000  0.5556890000000  0.5032880000000 1.0
C      1  0.4375890000000  0.5352120000000  0.5065630000000 1.0
C      1  0.4694950000000  0.4912710000000  0.4629950000000 1.0
C      1  0.4880550000000  0.5365140000000  0.4535740000000 1.0
C      1  0.5342940000000  0.5168300000000  0.4464000000000 1.0
C      1  0.5123210000000  0.4672470000000  0.4514550000000 1.0
C      1  0.5265550000000  0.4933170000000  0.4601680000000 1.0
C      1  0.5170880000000  0.5387520000000  0.4472120000000 1.0
C      1  0.4641790000000  0.5165150000000  0.4529870000000 1.0
C      1  0.4808590000000  0.4689460000000  0.4508930000000 1.0
C      1  0.4590050000000  0.4858860000000  0.5472580000000 1.0
C      1  0.4828000000000  0.5372540000000  0.5530600000000 1.0
C      1  0.5275800000000  0.5153370000000  0.5456320000000 1.0
C      1  0.5161530000000  0.4642730000000  0.5367550000000 1.0
C      1  0.5363050000000  0.4849750000000  0.5458400000000 1.0
C      1  0.5103020000000  0.5367070000000  0.5562400000000 1.0
C      1  0.4661320000000  0.5158520000000  0.5413350000000 1.0
C      1  0.4837110000000  0.4683170000000  0.5451520000000 1.0
C      1  0.4483870000000  0.5583060000000  0.4665080000000 1.0
C      1  0.5581320000000  0.4366050000000  0.4832630000000 1.0
C      1  0.5595880000000  0.5531430000000  0.4745520000000 1.0
C      1  0.4420200000000  0.4492600000000  0.4719790000000 1.0
C      1  0.4996180000000  0.5011540000000  0.5001140000000 1.0
END
