TITL C-3289332-8317-83 0.000186793359806527 125000 -114.123501770498 0 0 22 (C1) n - 1
REM
REM in /nfs/bkarasulu/CARBON/AIRSS/Generating-Clusters/AIREBO/with-SteepDescent/Higher-Symm/SD-CG/HFTN-CG
REM
REM
REM
REM
REM
REM ./C.cell (b20cbc046b6831c77cfcea5457e17084)
REM
REM compiler GCC version 9.2.1 20190827 (Red Hat 9.2.1-1)
REM options -cpp -mtune=generic -march=x86-64 -g -O0 -fpre-include=/usr/include/finclude/math-vector-fortran.h
REM seed -302168574 -1305084463 -663986636 709626411 -823514271 104433225 69677586 -462286551 380043383 -790917202 -1604516567 -80304193 -1612113843 312227003 -1620821964 1508534145 673763010 -1705127932 1969723550 -2054705287 766143467 590175178 -205122105 1694891322 1945543904 -1848407826 1582090769 -1876635191 -1677028978 -599904310 -86048996 671520164 -1052030074
REM
CELL 1.54180   50.00000   50.00000   50.00000   90.00000   90.00000   90.00000
LATT -1
SFAC C  
C      1  0.5520720000000  0.5174790000000  0.4794600000000 1.0
C      1  0.5470160000000  0.4874360000000  0.5276770000000 1.0
C      1  0.4445880000000  0.5123900000000  0.4749160000000 1.0
C      1  0.4519980000000  0.4880350000000  0.5285470000000 1.0
C      1  0.5483620000000  0.5156170000000  0.5248300000000 1.0
C      1  0.5502810000000  0.4890250000000  0.4749510000000 1.0
C      1  0.4510860000000  0.5150460000000  0.5272420000000 1.0
C      1  0.4439200000000  0.4840490000000  0.4763050000000 1.0
C      1  0.5236600000000  0.5288150000000  0.5169100000000 1.0
C      1  0.5243570000000  0.4730640000000  0.4793340000000 1.0
C      1  0.4677350000000  0.5400180000000  0.5115630000000 1.0
C      1  0.4691910000000  0.4674620000000  0.4805410000000 1.0
C      1  0.5268230000000  0.5310320000000  0.4847060000000 1.0
C      1  0.5262620000000  0.4655680000000  0.5130380000000 1.0
C      1  0.4702480000000  0.5284200000000  0.4789620000000 1.0
C      1  0.4697620000000  0.4630370000000  0.5148390000000 1.0
C      1  0.5685350000000  0.5234560000000  0.5039700000000 1.0
C      1  0.5576100000000  0.4720260000000  0.5008460000000 1.0
C      1  0.4373190000000  0.5275080000000  0.5010990000000 1.0
C      1  0.4378450000000  0.4720300000000  0.5044510000000 1.0
C      1  0.4969320000000  0.5339260000000  0.4981280000000 1.0
C      1  0.4975870000000  0.4645600000000  0.4976830000000 1.0
END
