TITL C-3289335-9438-256 -14.5663122041099 125000 -1055.79608924448 0 0 195 (C1) n - 1
REM
REM in /nfs/bkarasulu/CARBON/AIRSS/Generating-Clusters/AIREBO/with-SteepDescent/Higher-Symm/SD-CG/HFTN-CG
REM
REM
REM
REM
REM
REM ./C.cell (b20cbc046b6831c77cfcea5457e17084)
REM
REM compiler GCC version 9.2.1 20190827 (Red Hat 9.2.1-1)
REM options -cpp -mtune=generic -march=x86-64 -g -O0 -fpre-include=/usr/include/finclude/math-vector-fortran.h
REM seed -356988852 -871292357 -238539734 -1383580153 -1498914381 898825211 -1732323467 2008544427 1162952206 -50971066 1701169250 -87631711 159459993 2014424 -786573378 -11551308 870617543 544661973 1101677783 79913631 1897918066 -1212092040 1521381871 -1295046501 1775271910 -986259887 -615067541 624901828 734546238 664365213 1979014402 194664189 372412291
REM
CELL 1.54180   50.00000   50.00000   50.00000   90.00000   90.00000   90.00000
LATT -1
SFAC C  
C      1  0.5112650000000  0.5099100000000  0.5533950000000 1.0
C      1  0.5601080000000  0.5110820000000  0.5162450000000 1.0
C      1  0.5309430000000  0.5155080000000  0.4396590000000 1.0
C      1  0.4620000000000  0.5091540000000  0.4623240000000 1.0
C      1  0.4477870000000  0.5037220000000  0.5229590000000 1.0
C      1  0.4302670000000  0.5438470000000  0.5752640000000 1.0
C      1  0.5536130000000  0.5375480000000  0.5919930000000 1.0
C      1  0.5993140000000  0.5493950000000  0.4832380000000 1.0
C      1  0.5156950000000  0.5452520000000  0.3969000000000 1.0
C      1  0.4074980000000  0.5447400000000  0.4553490000000 1.0
C      1  0.5751410000000  0.4367400000000  0.5177550000000 1.0
C      1  0.5389630000000  0.4391280000000  0.4398890000000 1.0
C      1  0.4485170000000  0.4375060000000  0.4520690000000 1.0
C      1  0.4285500000000  0.4467980000000  0.5239480000000 1.0
C      1  0.4824260000000  0.4261280000000  0.5835310000000 1.0
C      1  0.4483130000000  0.4726190000000  0.5296550000000 1.0
C      1  0.5122810000000  0.4773780000000  0.5632290000000 1.0
C      1  0.5868300000000  0.4623850000000  0.5058340000000 1.0
C      1  0.5175190000000  0.4727570000000  0.4416710000000 1.0
C      1  0.4488540000000  0.4715150000000  0.4520410000000 1.0
C      1  0.4789150000000  0.4472140000000  0.4434840000000 1.0
C      1  0.4448340000000  0.4533350000000  0.4948220000000 1.0
C      1  0.4665130000000  0.4274320000000  0.5556280000000 1.0
C      1  0.5453450000000  0.4403740000000  0.5297390000000 1.0
C      1  0.5378320000000  0.4534610000000  0.4695550000000 1.0
C      1  0.3919620000000  0.5210330000000  0.4619250000000 1.0
C      1  0.4357190000000  0.5178340000000  0.5889830000000 1.0
C      1  0.5750950000000  0.5159000000000  0.5941780000000 1.0
C      1  0.6099290000000  0.5294180000000  0.4616580000000 1.0
C      1  0.5050940000000  0.5207660000000  0.3853310000000 1.0
C      1  0.4240030000000  0.5061360000000  0.4903550000000 1.0
C      1  0.4737160000000  0.5154210000000  0.5648710000000 1.0
C      1  0.5705460000000  0.5113700000000  0.5547150000000 1.0
C      1  0.5662820000000  0.5086680000000  0.4618190000000 1.0
C      1  0.4771860000000  0.5114170000000  0.4329720000000 1.0
C      1  0.5606570000000  0.5918350000000  0.5358080000000 1.0
C      1  0.5386900000000  0.5848290000000  0.4507890000000 1.0
C      1  0.4668480000000  0.5801240000000  0.4366250000000 1.0
C      1  0.4387620000000  0.5795590000000  0.5184630000000 1.0
C      1  0.4899970000000  0.5852900000000  0.5697440000000 1.0
C      1  0.4433790000000  0.5883840000000  0.4559630000000 1.0
C      1  0.4321090000000  0.5732980000000  0.5487900000000 1.0
C      1  0.5213350000000  0.5881640000000  0.5670520000000 1.0
C      1  0.5690780000000  0.5935100000000  0.5046210000000 1.0
C      1  0.5277900000000  0.5801210000000  0.4224870000000 1.0
C      1  0.5301770000000  0.5910470000000  0.5385180000000 1.0
C      1  0.5470970000000  0.5859130000000  0.4814210000000 1.0
C      1  0.4964000000000  0.5829470000000  0.4469100000000 1.0
C      1  0.4476950000000  0.5822800000000  0.4877850000000 1.0
C      1  0.4708400000000  0.5816300000000  0.5449960000000 1.0
C      1  0.5205270000000  0.6055150000000  0.4896310000000 1.0
C      1  0.4958290000000  0.6051800000000  0.4727310000000 1.0
C      1  0.4705570000000  0.6069400000000  0.4929160000000 1.0
C      1  0.4828600000000  0.6021480000000  0.5205570000000 1.0
C      1  0.5118330000000  0.6051010000000  0.5175100000000 1.0
C      1  0.3950670000000  0.5052020000000  0.5046300000000 1.0
C      1  0.4781040000000  0.4995180000000  0.5946080000000 1.0
C      1  0.5967800000000  0.4947770000000  0.5540000000000 1.0
C      1  0.5728380000000  0.4982230000000  0.4326430000000 1.0
C      1  0.4646900000000  0.5031620000000  0.4031490000000 1.0
C      1  0.5501860000000  0.4438030000000  0.5851730000000 1.0
C      1  0.6023110000000  0.4174250000000  0.5207900000000 1.0
C      1  0.5215050000000  0.4455520000000  0.4127480000000 1.0
C      1  0.4190910000000  0.4462850000000  0.4434470000000 1.0
C      1  0.4400200000000  0.4436590000000  0.5558160000000 1.0
C      1  0.4929070000000  0.5024350000000  0.4751840000000 1.0
C      1  0.4744620000000  0.4964380000000  0.5031240000000 1.0
C      1  0.4930630000000  0.4916160000000  0.5312160000000 1.0
C      1  0.5221250000000  0.4861210000000  0.5180290000000 1.0
C      1  0.5265640000000  0.5003820000000  0.4688600000000 1.0
C      1  0.3810980000000  0.4508350000000  0.5034750000000 1.0
C      1  0.4724670000000  0.4432340000000  0.6180630000000 1.0
C      1  0.5944790000000  0.4619690000000  0.5536470000000 1.0
C      1  0.5881640000000  0.4508260000000  0.4298730000000 1.0
C      1  0.4618880000000  0.4428050000000  0.3958030000000 1.0
C      1  0.5649700000000  0.5366590000000  0.5355920000000 1.0
C      1  0.5523710000000  0.5376050000000  0.4541120000000 1.0
C      1  0.4631530000000  0.5407740000000  0.4306660000000 1.0
C      1  0.4260380000000  0.5283500000000  0.5141380000000 1.0
C      1  0.4927790000000  0.5334140000000  0.5798370000000 1.0
C      1  0.5896090000000  0.5094870000000  0.5072830000000 1.0
C      1  0.5424120000000  0.5083580000000  0.4104000000000 1.0
C      1  0.4344690000000  0.5094160000000  0.4423740000000 1.0
C      1  0.4219880000000  0.5035480000000  0.5451190000000 1.0
C      1  0.5258690000000  0.5109020000000  0.5814920000000 1.0
C      1  0.4708000000000  0.5291720000000  0.4957780000000 1.0
C      1  0.4945570000000  0.5298550000000  0.5200940000000 1.0
C      1  0.5270210000000  0.5197860000000  0.5181240000000 1.0
C      1  0.5277870000000  0.5271680000000  0.4870330000000 1.0
C      1  0.4976490000000  0.5354250000000  0.4749740000000 1.0
C      1  0.5595590000000  0.5517370000000  0.4240270000000 1.0
C      1  0.4420920000000  0.5506490000000  0.4091300000000 1.0
C      1  0.4058440000000  0.5508540000000  0.5250750000000 1.0
C      1  0.4941690000000  0.5530940000000  0.6036780000000 1.0
C      1  0.5987690000000  0.5578100000000  0.5386870000000 1.0
C      1  0.4542250000000  0.5558400000000  0.4567150000000 1.0
C      1  0.4453970000000  0.5487190000000  0.5293740000000 1.0
C      1  0.5077820000000  0.5569690000000  0.5665240000000 1.0
C      1  0.5597640000000  0.5632820000000  0.5173690000000 1.0
C      1  0.5243890000000  0.5545800000000  0.4447460000000 1.0
C      1  0.3834650000000  0.4563970000000  0.4793260000000 1.0
C      1  0.4570300000000  0.4476250000000  0.5916590000000 1.0
C      1  0.5666770000000  0.4473940000000  0.5553100000000 1.0
C      1  0.5914500000000  0.4520400000000  0.4569720000000 1.0
C      1  0.4875100000000  0.4448840000000  0.4123390000000 1.0
C      1  0.5137060000000  0.4361210000000  0.4854120000000 1.0
C      1  0.4874490000000  0.4187490000000  0.4817320000000 1.0
C      1  0.4742070000000  0.4383300000000  0.5030790000000 1.0
C      1  0.4896200000000  0.4258920000000  0.5307190000000 1.0
C      1  0.5213290000000  0.4253500000000  0.5167820000000 1.0
C      1  0.4311490000000  0.4138900000000  0.5226770000000 1.0
C      1  0.4991670000000  0.4003460000000  0.5780380000000 1.0
C      1  0.5767900000000  0.4037080000000  0.5108050000000 1.0
C      1  0.5389870000000  0.4085710000000  0.4433900000000 1.0
C      1  0.4509990000000  0.4065720000000  0.4514480000000 1.0
C      1  0.5247840000000  0.5661140000000  0.4946160000000 1.0
C      1  0.5006460000000  0.5658210000000  0.4748240000000 1.0
C      1  0.4767870000000  0.5679140000000  0.4938170000000 1.0
C      1  0.4849840000000  0.5623620000000  0.5228640000000 1.0
C      1  0.5177030000000  0.5643000000000  0.5245550000000 1.0
C      1  0.5524620000000  0.5002620000000  0.5775880000000 1.0
C      1  0.5915850000000  0.5107380000000  0.4773470000000 1.0
C      1  0.5230030000000  0.4939250000000  0.3902620000000 1.0
C      1  0.4068600000000  0.4984520000000  0.4529810000000 1.0
C      1  0.4303220000000  0.4949810000000  0.5725340000000 1.0
C      1  0.4667540000000  0.5276640000000  0.5378940000000 1.0
C      1  0.5265470000000  0.5393730000000  0.5459320000000 1.0
C      1  0.5552350000000  0.5387110000000  0.4970350000000 1.0
C      1  0.5025460000000  0.5288350000000  0.4431120000000 1.0
C      1  0.4421120000000  0.5320300000000  0.4777530000000 1.0
C      1  0.5091620000000  0.3924180000000  0.4798900000000 1.0
C      1  0.4815370000000  0.3814350000000  0.4937910000000 1.0
C      1  0.4808980000000  0.3941390000000  0.5222210000000 1.0
C      1  0.5141260000000  0.3946090000000  0.5294250000000 1.0
C      1  0.5290680000000  0.3887280000000  0.5027010000000 1.0
C      1  0.4668830000000  0.3963270000000  0.4703540000000 1.0
C      1  0.4503570000000  0.3992220000000  0.5282580000000 1.0
C      1  0.5139060000000  0.3913880000000  0.5601310000000 1.0
C      1  0.5556130000000  0.3893300000000  0.5022780000000 1.0
C      1  0.5236370000000  0.3918210000000  0.4532870000000 1.0
C      1  0.5010520000000  0.4483540000000  0.6012860000000 1.0
C      1  0.6201920000000  0.4568140000000  0.5372570000000 1.0
C      1  0.5600630000000  0.4536900000000  0.4175570000000 1.0
C      1  0.4397830000000  0.4561290000000  0.4037140000000 1.0
C      1  0.3973790000000  0.4598130000000  0.5282530000000 1.0
C      1  0.3781240000000  0.5161180000000  0.4861320000000 1.0
C      1  0.4562210000000  0.5115050000000  0.6076540000000 1.0
C      1  0.5993360000000  0.5095340000000  0.5831060000000 1.0
C      1  0.5983700000000  0.5123740000000  0.4380120000000 1.0
C      1  0.4778250000000  0.5141290000000  0.3825850000000 1.0
C      1  0.4665350000000  0.5711830000000  0.4061440000000 1.0
C      1  0.4010070000000  0.5666360000000  0.5029970000000 1.0
C      1  0.4713710000000  0.5686940000000  0.6008620000000 1.0
C      1  0.5772130000000  0.5702530000000  0.5525950000000 1.0
C      1  0.5781540000000  0.5658920000000  0.4426690000000 1.0
C      1  0.5226280000000  0.5345800000000  0.6057620000000 1.0
C      1  0.6065870000000  0.5381730000000  0.5140000000000 1.0
C      1  0.5420410000000  0.5394780000000  0.4063160000000 1.0
C      1  0.4237860000000  0.5381870000000  0.4320230000000 1.0
C      1  0.4097750000000  0.5348510000000  0.5519440000000 1.0
C      1  0.4987820000000  0.4608800000000  0.4674610000000 1.0
C      1  0.4691670000000  0.4715060000000  0.4805880000000 1.0
C      1  0.4761760000000  0.4628340000000  0.5246540000000 1.0
C      1  0.4990680000000  0.4549710000000  0.5459390000000 1.0
C      1  0.5194700000000  0.4750730000000  0.4904280000000 1.0
C      1  0.6064260000000  0.4844030000000  0.5229130000000 1.0
C      1  0.5445570000000  0.4797270000000  0.4286160000000 1.0
C      1  0.4425240000000  0.4848400000000  0.4212890000000 1.0
C      1  0.3959150000000  0.4902240000000  0.5313180000000 1.0
C      1  0.5018770000000  0.4774960000000  0.5920740000000 1.0
C      1  0.5361660000000  0.4686490000000  0.5406520000000 1.0
C      1  0.5548510000000  0.4820600000000  0.4734750000000 1.0
C      1  0.4865340000000  0.4789050000000  0.4330700000000 1.0
C      1  0.4301860000000  0.4795870000000  0.4792880000000 1.0
C      1  0.4734310000000  0.4844860000000  0.5580600000000 1.0
C      1  0.4985110000000  0.5668220000000  0.4169110000000 1.0
C      1  0.4229260000000  0.5599160000000  0.4811840000000 1.0
C      1  0.4545990000000  0.5673480000000  0.5713170000000 1.0
C      1  0.5537950000000  0.5484700000000  0.5642010000000 1.0
C      1  0.5681010000000  0.5600280000000  0.4746200000000 1.0
C      1  0.5806750000000  0.4657800000000  0.4786950000000 1.0
C      1  0.5039310000000  0.4731820000000  0.4044230000000 1.0
C      1  0.4061350000000  0.4667490000000  0.4612080000000 1.0
C      1  0.4491870000000  0.4707320000000  0.5710850000000 1.0
C      1  0.5510770000000  0.4724730000000  0.5705230000000 1.0
C      1  0.5130140000000  0.5025490000000  0.6112330000000 1.0
C      1  0.6273450000000  0.5116890000000  0.5189360000000 1.0
C      1  0.5501790000000  0.4552480000000  0.3646090000000 1.0
C      1  0.4147080000000  0.4933030000000  0.4070580000000 1.0
C      1  0.3847380000000  0.5120240000000  0.5549040000000 1.0
C      1  0.4060290000000  0.4429030000000  0.5564910000000 1.0
C      1  0.5304050000000  0.4375210000000  0.6024510000000 1.0
C      1  0.6250070000000  0.4305740000000  0.5293070000000 1.0
C      1  0.5405830000000  0.4648250000000  0.3917090000000 1.0
C      1  0.4168460000000  0.4446400000000  0.4163940000000 1.0
END
