TITL C-3289324-3781-384 0.0183906739532196 125000 -762.136220816303 0 0 144 (C1) n - 1
REM
REM in /nfs/bkarasulu/CARBON/AIRSS/Generating-Clusters/AIREBO/with-SteepDescent/Higher-Symm/SD-CG/HFTN-CG
REM
REM
REM
REM
REM
REM ./C.cell (b20cbc046b6831c77cfcea5457e17084)
REM
REM compiler GCC version 9.2.1 20190827 (Red Hat 9.2.1-1)
REM options -cpp -mtune=generic -march=x86-64 -g -O0 -fpre-include=/usr/include/finclude/math-vector-fortran.h
REM seed -723906234 -753675751 2133281899 919738446 150829666 903601079 312323053 -841380362 1786338103 1272097332 1630734334 1576883743 -950255145 1322373045 -2074343750 1378837439 -789414398 1854308216 1005372502 1960882619 -1118646893 -1800483325 -1907735252 1616501441 -1004770903 795497586 1761520091 2068861343 1943000436 -820712876 -990320170 -841970171 2060588675
REM
CELL 1.54180   50.00000   50.00000   50.00000   90.00000   90.00000   90.00000
LATT -1
SFAC C  
C      1  0.4007290000000  0.5523070000000  0.4799760000000 1.0
C      1  0.4286620000000  0.5478130000000  0.5614260000000 1.0
C      1  0.5082380000000  0.5526140000000  0.5839140000000 1.0
C      1  0.5736180000000  0.5426300000000  0.5526460000000 1.0
C      1  0.5795920000000  0.5530360000000  0.4774770000000 1.0
C      1  0.5346790000000  0.5440450000000  0.4181660000000 1.0
C      1  0.4570440000000  0.5548050000000  0.4286640000000 1.0
C      1  0.5735780000000  0.4535220000000  0.4644310000000 1.0
C      1  0.5100430000000  0.4533850000000  0.4201250000000 1.0
C      1  0.4542830000000  0.4699290000000  0.4425020000000 1.0
C      1  0.4217600000000  0.4619630000000  0.5178450000000 1.0
C      1  0.4624800000000  0.4692830000000  0.5608660000000 1.0
C      1  0.5248740000000  0.4672450000000  0.5700470000000 1.0
C      1  0.5713810000000  0.4762280000000  0.5149640000000 1.0
C      1  0.4033160000000  0.5168860000000  0.5305800000000 1.0
C      1  0.4790740000000  0.5105740000000  0.5870200000000 1.0
C      1  0.5540900000000  0.5149710000000  0.5852320000000 1.0
C      1  0.5904510000000  0.5150230000000  0.5132430000000 1.0
C      1  0.5701810000000  0.5025360000000  0.4443390000000 1.0
C      1  0.4938400000000  0.5060940000000  0.4148870000000 1.0
C      1  0.4222120000000  0.5102060000000  0.4587710000000 1.0
C      1  0.5595500000000  0.5108150000000  0.4727770000000 1.0
C      1  0.5140980000000  0.5160890000000  0.4387040000000 1.0
C      1  0.4554430000000  0.5136910000000  0.4524540000000 1.0
C      1  0.4295500000000  0.5108150000000  0.5132820000000 1.0
C      1  0.4711340000000  0.5105110000000  0.5544620000000 1.0
C      1  0.5259410000000  0.5136540000000  0.5709330000000 1.0
C      1  0.5600890000000  0.5162580000000  0.5257990000000 1.0
C      1  0.4776730000000  0.4075860000000  0.5159910000000 1.0
C      1  0.4998150000000  0.3959830000000  0.5373870000000 1.0
C      1  0.5277680000000  0.4056720000000  0.5285420000000 1.0
C      1  0.5289100000000  0.4032980000000  0.4944850000000 1.0
C      1  0.5163420000000  0.4068450000000  0.4695400000000 1.0
C      1  0.4889400000000  0.4073320000000  0.4601310000000 1.0
C      1  0.4562350000000  0.4148890000000  0.5003080000000 1.0
C      1  0.5457540000000  0.4844880000000  0.5897480000000 1.0
C      1  0.6040650000000  0.4849760000000  0.5184080000000 1.0
C      1  0.5868110000000  0.4768960000000  0.4464250000000 1.0
C      1  0.5048690000000  0.4798020000000  0.4028490000000 1.0
C      1  0.4229560000000  0.4814080000000  0.4416450000000 1.0
C      1  0.4085080000000  0.4853490000000  0.5357100000000 1.0
C      1  0.4623730000000  0.4822910000000  0.5891410000000 1.0
C      1  0.5262440000000  0.5174600000000  0.4709220000000 1.0
C      1  0.4868560000000  0.5175940000000  0.4545470000000 1.0
C      1  0.4598520000000  0.5290490000000  0.4812480000000 1.0
C      1  0.4556860000000  0.5202300000000  0.5268630000000 1.0
C      1  0.4945610000000  0.5228960000000  0.5355890000000 1.0
C      1  0.5282620000000  0.5188180000000  0.5375010000000 1.0
C      1  0.5412240000000  0.5089530000000  0.5010330000000 1.0
C      1  0.4955890000000  0.4612640000000  0.5961950000000 1.0
C      1  0.5828000000000  0.4620200000000  0.5536970000000 1.0
C      1  0.5945720000000  0.4671520000000  0.4839140000000 1.0
C      1  0.5394340000000  0.4674040000000  0.4181440000000 1.0
C      1  0.4612380000000  0.4700360000000  0.4031320000000 1.0
C      1  0.4191870000000  0.4685230000000  0.4891780000000 1.0
C      1  0.4229770000000  0.4666450000000  0.5573620000000 1.0
C      1  0.5014010000000  0.5937440000000  0.5225700000000 1.0
C      1  0.5210940000000  0.5921140000000  0.5038590000000 1.0
C      1  0.5221410000000  0.6130000000000  0.4851180000000 1.0
C      1  0.4985380000000  0.6248100000000  0.4767720000000 1.0
C      1  0.4754150000000  0.6220520000000  0.4914010000000 1.0
C      1  0.4657270000000  0.6022350000000  0.5068740000000 1.0
C      1  0.4706740000000  0.5828280000000  0.5323610000000 1.0
C      1  0.4846050000000  0.4216940000000  0.5536620000000 1.0
C      1  0.5359570000000  0.4296050000000  0.5491040000000 1.0
C      1  0.5460650000000  0.4279190000000  0.5104770000000 1.0
C      1  0.5317010000000  0.4240780000000  0.4495280000000 1.0
C      1  0.4824020000000  0.4273430000000  0.4344700000000 1.0
C      1  0.4649650000000  0.4264440000000  0.4716350000000 1.0
C      1  0.4351090000000  0.4232240000000  0.5151120000000 1.0
C      1  0.4228420000000  0.5198640000000  0.5561660000000 1.0
C      1  0.5018610000000  0.5317850000000  0.6005490000000 1.0
C      1  0.5740340000000  0.5174290000000  0.5632070000000 1.0
C      1  0.5942360000000  0.5301530000000  0.4762770000000 1.0
C      1  0.5409390000000  0.5181220000000  0.4094720000000 1.0
C      1  0.4475230000000  0.5259610000000  0.4149340000000 1.0
C      1  0.3960090000000  0.5263350000000  0.4712660000000 1.0
C      1  0.4127690000000  0.5654630000000  0.5401850000000 1.0
C      1  0.4626950000000  0.5594590000000  0.5787640000000 1.0
C      1  0.5461050000000  0.5649060000000  0.5809590000000 1.0
C      1  0.5839600000000  0.5648920000000  0.5211550000000 1.0
C      1  0.5744920000000  0.5527100000000  0.4378860000000 1.0
C      1  0.4982440000000  0.5561350000000  0.4067220000000 1.0
C      1  0.4318040000000  0.5610380000000  0.4458920000000 1.0
C      1  0.5433630000000  0.4421180000000  0.5798400000000 1.0
C      1  0.5720770000000  0.4426700000000  0.5203880000000 1.0
C      1  0.5641080000000  0.4311900000000  0.4486230000000 1.0
C      1  0.4982290000000  0.4263470000000  0.4043900000000 1.0
C      1  0.4407640000000  0.4430140000000  0.4562800000000 1.0
C      1  0.4055540000000  0.4332510000000  0.5261960000000 1.0
C      1  0.4561760000000  0.4366250000000  0.5648420000000 1.0
C      1  0.5061930000000  0.4462670000000  0.4531520000000 1.0
C      1  0.4766010000000  0.4579580000000  0.4651940000000 1.0
C      1  0.4698810000000  0.4649410000000  0.4977840000000 1.0
C      1  0.4532130000000  0.4621820000000  0.5244710000000 1.0
C      1  0.5127890000000  0.4558100000000  0.5419530000000 1.0
C      1  0.5356270000000  0.4594570000000  0.5177510000000 1.0
C      1  0.5544560000000  0.4606380000000  0.4894870000000 1.0
C      1  0.5889230000000  0.4977940000000  0.4839670000000 1.0
C      1  0.5400240000000  0.4945900000000  0.4340110000000 1.0
C      1  0.4629650000000  0.4969870000000  0.4237990000000 1.0
C      1  0.4326860000000  0.4952550000000  0.4866640000000 1.0
C      1  0.4410740000000  0.4955900000000  0.5582470000000 1.0
C      1  0.5067840000000  0.4910680000000  0.5842430000000 1.0
C      1  0.5754390000000  0.4924330000000  0.5445820000000 1.0
C      1  0.4848290000000  0.4424890000000  0.5803960000000 1.0
C      1  0.5673180000000  0.4407630000000  0.5596120000000 1.0
C      1  0.5974450000000  0.4481330000000  0.5044940000000 1.0
C      1  0.5472610000000  0.4391600000000  0.4234890000000 1.0
C      1  0.4726510000000  0.4464590000000  0.4078950000000 1.0
C      1  0.4183290000000  0.4500250000000  0.4697860000000 1.0
C      1  0.4324220000000  0.4365760000000  0.5465150000000 1.0
C      1  0.5230030000000  0.4848600000000  0.4618070000000 1.0
C      1  0.4909230000000  0.4889510000000  0.4674800000000 1.0
C      1  0.4665100000000  0.4972450000000  0.4896560000000 1.0
C      1  0.4992360000000  0.4549880000000  0.5020150000000 1.0
C      1  0.4838380000000  0.4724760000000  0.5351280000000 1.0
C      1  0.5257540000000  0.4888880000000  0.5213930000000 1.0
C      1  0.5217080000000  0.4594290000000  0.4803980000000 1.0
C      1  0.5497860000000  0.5586170000000  0.5532630000000 1.0
C      1  0.5672380000000  0.5661850000000  0.4987010000000 1.0
C      1  0.5465070000000  0.5550070000000  0.4418570000000 1.0
C      1  0.4848010000000  0.5600750000000  0.4314830000000 1.0
C      1  0.4265980000000  0.5628340000000  0.4738650000000 1.0
C      1  0.4443710000000  0.5738890000000  0.5460770000000 1.0
C      1  0.4883390000000  0.5620250000000  0.5670770000000 1.0
C      1  0.5275050000000  0.5514230000000  0.4696550000000 1.0
C      1  0.4970040000000  0.5481810000000  0.4549760000000 1.0
C      1  0.4475270000000  0.5540640000000  0.4901320000000 1.0
C      1  0.4650920000000  0.5466460000000  0.5165820000000 1.0
C      1  0.4925190000000  0.5568000000000  0.5339550000000 1.0
C      1  0.5263800000000  0.5518990000000  0.5298090000000 1.0
C      1  0.5362320000000  0.5647950000000  0.4997720000000 1.0
C      1  0.6018260000000  0.5433290000000  0.5210760000000 1.0
C      1  0.5846120000000  0.5275530000000  0.4328150000000 1.0
C      1  0.4966190000000  0.5309570000000  0.3955600000000 1.0
C      1  0.4242940000000  0.5330850000000  0.4338340000000 1.0
C      1  0.3945580000000  0.5474370000000  0.5269150000000 1.0
C      1  0.4581280000000  0.5363980000000  0.5941270000000 1.0
C      1  0.5507070000000  0.5437330000000  0.5987740000000 1.0
C      1  0.4871990000000  0.4979590000000  0.5166330000000 1.0
C      1  0.5021560000000  0.5193590000000  0.4948540000000 1.0
C      1  0.4962590000000  0.4327160000000  0.5237210000000 1.0
C      1  0.4931670000000  0.5451410000000  0.4997630000000 1.0
END
