TITL C-3289326-3776-106 -0.000618443887698019 125000 -200.990852078318 0 0 37 (C1) n - 1
REM
REM in /nfs/bkarasulu/CARBON/AIRSS/Generating-Clusters/AIREBO/with-SteepDescent/Higher-Symm/SD-CG/HFTN-CG
REM
REM
REM
REM
REM
REM ./C.cell (b20cbc046b6831c77cfcea5457e17084)
REM
REM compiler GCC version 9.2.1 20190827 (Red Hat 9.2.1-1)
REM options -cpp -mtune=generic -march=x86-64 -g -O0 -fpre-include=/usr/include/finclude/math-vector-fortran.h
REM seed -1437249925 -2098508724 2097059120 -1864047089 542638388 185844988 -1192752337 6157511 -1237206659 2046581269 1531016469 1221246764 -2082898780 -751602450 1112945170 1875963969 -752362648 767805054 320786850 2112179903 -452461878 1876402562 -77516685 -514790327 -1513625414 -1151838881 1059675213 1493785685 -176460218 535350068 579304182 174792611 -2082389526
REM
CELL 1.54180   50.00000   50.00000   50.00000   90.00000   90.00000   90.00000
LATT -1
SFAC C  
C      1  0.4795990000000  0.4574230000000  0.5382120000000 1.0
C      1  0.4765630000000  0.4640300000000  0.4675150000000 1.0
C      1  0.5389090000000  0.4640980000000  0.4967590000000 1.0
C      1  0.5176650000000  0.5348880000000  0.5373450000000 1.0
C      1  0.5234150000000  0.5346900000000  0.4672930000000 1.0
C      1  0.4607770000000  0.5301540000000  0.5061770000000 1.0
C      1  0.5476220000000  0.4530230000000  0.5263400000000 1.0
C      1  0.4545650000000  0.4401400000000  0.5336970000000 1.0
C      1  0.4926990000000  0.4569270000000  0.4409110000000 1.0
C      1  0.4530820000000  0.5555780000000  0.5167120000000 1.0
C      1  0.5436040000000  0.5526270000000  0.5357740000000 1.0
C      1  0.4994230000000  0.5415320000000  0.4457900000000 1.0
C      1  0.5536360000000  0.5525960000000  0.5103490000000 1.0
C      1  0.4702930000000  0.5683990000000  0.5343830000000 1.0
C      1  0.4759960000000  0.5541630000000  0.4407650000000 1.0
C      1  0.4449250000000  0.4430640000000  0.5085180000000 1.0
C      1  0.5341120000000  0.4349780000000  0.5420660000000 1.0
C      1  0.5193530000000  0.4540350000000  0.4453930000000 1.0
C      1  0.5304880000000  0.4826590000000  0.5228500000000 1.0
C      1  0.4748810000000  0.4823210000000  0.5172030000000 1.0
C      1  0.5004690000000  0.4864350000000  0.4729940000000 1.0
C      1  0.4700530000000  0.5116780000000  0.5256440000000 1.0
C      1  0.5239770000000  0.5123830000000  0.5148890000000 1.0
C      1  0.4953770000000  0.5165830000000  0.4683630000000 1.0
C      1  0.5397560000000  0.4437760000000  0.4694380000000 1.0
C      1  0.5088630000000  0.4447370000000  0.5500260000000 1.0
C      1  0.4563730000000  0.4400680000000  0.4786790000000 1.0
C      1  0.4562190000000  0.5454480000000  0.4587010000000 1.0
C      1  0.4907360000000  0.5530670000000  0.5450710000000 1.0
C      1  0.5463660000000  0.5567590000000  0.4787090000000 1.0
C      1  0.4676260000000  0.5287450000000  0.4792230000000 1.0
C      1  0.5408340000000  0.5268430000000  0.4942780000000 1.0
C      1  0.4872920000000  0.5219360000000  0.5448190000000 1.0
C      1  0.5293460000000  0.4760460000000  0.4676430000000 1.0
C      1  0.4566550000000  0.4711050000000  0.4939900000000 1.0
C      1  0.5077080000000  0.4753570000000  0.5427060000000 1.0
C      1  0.4989550000000  0.4964040000000  0.5026930000000 1.0
END
