TITL C-3289333-7213-235 0.00122176610594918 125000 -505.249029060374 0 0 96 (C1) n - 1
REM
REM in /nfs/bkarasulu/CARBON/AIRSS/Generating-Clusters/AIREBO/with-SteepDescent/Higher-Symm/SD-CG/HFTN-CG
REM
REM
REM
REM
REM
REM ./C.cell (b20cbc046b6831c77cfcea5457e17084)
REM
REM compiler GCC version 9.2.1 20190827 (Red Hat 9.2.1-1)
REM options -cpp -mtune=generic -march=x86-64 -g -O0 -fpre-include=/usr/include/finclude/math-vector-fortran.h
REM seed 657981981 1630641612 2076378942 -1135836672 781834881 -598782237 -202343426 1548754229 1503178584 -1853752601 -1495287660 -743483201 -1477904473 967206798 1077599796 -200613744 1022184675 -989970808 1561832788 1071916433 1334698988 -767769597 -248686503 1065234408 -1433686198 -469801237 -492198227 1230541331 -1146334461 -237536673 475569006 -790481063 -267000854
REM
CELL 1.54180   50.00000   50.00000   50.00000   90.00000   90.00000   90.00000
LATT -1
SFAC C  
C      1  0.4972460000000  0.5275450000000  0.5531790000000 1.0
C      1  0.4651290000000  0.4773100000000  0.4533820000000 1.0
C      1  0.4448170000000  0.4511550000000  0.4456750000000 1.0
C      1  0.4672360000000  0.4655910000000  0.5111830000000 1.0
C      1  0.5357050000000  0.4499180000000  0.5284930000000 1.0
C      1  0.5051340000000  0.5084840000000  0.5057690000000 1.0
C      1  0.5150000000000  0.5020340000000  0.5952890000000 1.0
C      1  0.4361720000000  0.5477050000000  0.4810280000000 1.0
C      1  0.5518090000000  0.5380190000000  0.5535690000000 1.0
C      1  0.4790150000000  0.5142980000000  0.4900800000000 1.0
C      1  0.4672160000000  0.5179260000000  0.5797430000000 1.0
C      1  0.4567910000000  0.5441930000000  0.5292320000000 1.0
C      1  0.4845740000000  0.5525950000000  0.4709790000000 1.0
C      1  0.5321220000000  0.5291480000000  0.5068930000000 1.0
C      1  0.4529500000000  0.6003360000000  0.4997340000000 1.0
C      1  0.5405270000000  0.5184300000000  0.4755700000000 1.0
C      1  0.5220500000000  0.4132790000000  0.5361330000000 1.0
C      1  0.4528430000000  0.5764600000000  0.4755270000000 1.0
C      1  0.4349510000000  0.4204700000000  0.5004320000000 1.0
C      1  0.5691890000000  0.4467580000000  0.5334930000000 1.0
C      1  0.4653960000000  0.4918280000000  0.5315700000000 1.0
C      1  0.5142470000000  0.5534580000000  0.5783490000000 1.0
C      1  0.5463300000000  0.4528770000000  0.4291560000000 1.0
C      1  0.5607230000000  0.5295210000000  0.4237770000000 1.0
C      1  0.5148650000000  0.4544010000000  0.4674630000000 1.0
C      1  0.5825660000000  0.5107710000000  0.5231120000000 1.0
C      1  0.5223860000000  0.5618220000000  0.5057930000000 1.0
C      1  0.4540480000000  0.5026890000000  0.5046840000000 1.0
C      1  0.5175950000000  0.4284760000000  0.5593100000000 1.0
C      1  0.5461160000000  0.5683910000000  0.5292400000000 1.0
C      1  0.5814240000000  0.4815030000000  0.4752850000000 1.0
C      1  0.4727690000000  0.5349670000000  0.4186410000000 1.0
C      1  0.5025390000000  0.5671120000000  0.5555570000000 1.0
C      1  0.5177260000000  0.5792080000000  0.5349390000000 1.0
C      1  0.5040360000000  0.4153410000000  0.5149100000000 1.0
C      1  0.5519720000000  0.4185620000000  0.5258280000000 1.0
C      1  0.4845090000000  0.4826460000000  0.4279320000000 1.0
C      1  0.5298890000000  0.4851120000000  0.5043130000000 1.0
C      1  0.4666460000000  0.4530640000000  0.5407910000000 1.0
C      1  0.4880310000000  0.4139210000000  0.4878980000000 1.0
C      1  0.5419680000000  0.4617350000000  0.4545650000000 1.0
C      1  0.5002460000000  0.4276830000000  0.4608690000000 1.0
C      1  0.4909820000000  0.5313210000000  0.4453940000000 1.0
C      1  0.5320540000000  0.5710860000000  0.4582200000000 1.0
C      1  0.4650240000000  0.4724220000000  0.5756650000000 1.0
C      1  0.4385540000000  0.4528170000000  0.5531940000000 1.0
C      1  0.5123900000000  0.4106020000000  0.4425920000000 1.0
C      1  0.5656210000000  0.5391990000000  0.4785020000000 1.0
C      1  0.5385550000000  0.5509530000000  0.4316000000000 1.0
C      1  0.5025250000000  0.5632360000000  0.4432210000000 1.0
C      1  0.4129020000000  0.4859010000000  0.5164350000000 1.0
C      1  0.4209270000000  0.4818050000000  0.5489450000000 1.0
C      1  0.4804110000000  0.5516620000000  0.5446670000000 1.0
C      1  0.4832810000000  0.5916580000000  0.4751520000000 1.0
C      1  0.4687070000000  0.5764600000000  0.5089300000000 1.0
C      1  0.5730270000000  0.4802540000000  0.5295500000000 1.0
C      1  0.5768560000000  0.5160670000000  0.4921350000000 1.0
C      1  0.4822840000000  0.5047900000000  0.4611200000000 1.0
C      1  0.5594630000000  0.4880190000000  0.5004130000000 1.0
C      1  0.4657380000000  0.5449640000000  0.4964350000000 1.0
C      1  0.5213430000000  0.4885280000000  0.5362290000000 1.0
C      1  0.4459530000000  0.4515900000000  0.5855630000000 1.0
C      1  0.4961080000000  0.4984180000000  0.4058940000000 1.0
C      1  0.4492010000000  0.4976430000000  0.5592350000000 1.0
C      1  0.5270710000000  0.5211770000000  0.5395760000000 1.0
C      1  0.4621340000000  0.4296740000000  0.4945070000000 1.0
C      1  0.5343670000000  0.4694300000000  0.4105210000000 1.0
C      1  0.5227870000000  0.4620470000000  0.5575190000000 1.0
C      1  0.4812890000000  0.5197230000000  0.3965060000000 1.0
C      1  0.4982330000000  0.5254750000000  0.5851400000000 1.0
C      1  0.5432760000000  0.4292200000000  0.4953260000000 1.0
C      1  0.4199290000000  0.5260570000000  0.4837810000000 1.0
C      1  0.4267940000000  0.5034120000000  0.4999580000000 1.0
C      1  0.5097090000000  0.5726100000000  0.4811900000000 1.0
C      1  0.5242820000000  0.5245110000000  0.4462790000000 1.0
C      1  0.4758140000000  0.5253300000000  0.3708800000000 1.0
C      1  0.5615510000000  0.5633000000000  0.4675260000000 1.0
C      1  0.5566000000000  0.4680370000000  0.5568330000000 1.0
C      1  0.4366390000000  0.5262510000000  0.5487640000000 1.0
C      1  0.4144170000000  0.4318930000000  0.5097070000000 1.0
C      1  0.4159660000000  0.4544180000000  0.5294170000000 1.0
C      1  0.5622530000000  0.5320340000000  0.5256050000000 1.0
C      1  0.4888010000000  0.4622970000000  0.5589500000000 1.0
C      1  0.5055430000000  0.4809770000000  0.4536100000000 1.0
C      1  0.5221350000000  0.4959300000000  0.4279610000000 1.0
C      1  0.5550450000000  0.5037560000000  0.4314470000000 1.0
C      1  0.4913320000000  0.4454370000000  0.5106030000000 1.0
C      1  0.5165390000000  0.5718280000000  0.4162490000000 1.0
C      1  0.5219880000000  0.4801030000000  0.5863200000000 1.0
C      1  0.4921950000000  0.5028930000000  0.5347270000000 1.0
C      1  0.5426310000000  0.5495170000000  0.5773810000000 1.0
C      1  0.4619250000000  0.4599610000000  0.4806740000000 1.0
C      1  0.4710760000000  0.4378860000000  0.4565510000000 1.0
C      1  0.4253650000000  0.5538640000000  0.5385450000000 1.0
C      1  0.5531450000000  0.4903130000000  0.4610080000000 1.0
C      1  0.5207590000000  0.4545000000000  0.4984810000000 1.0
END
