TITL C-3289326-3776-153 -0.000146279884105868 125000 -611.484016532837 0 0 112 (C1) n - 1
REM
REM in /nfs/bkarasulu/CARBON/AIRSS/Generating-Clusters/AIREBO/with-SteepDescent/Higher-Symm/SD-CG/HFTN-CG
REM
REM
REM
REM
REM
REM ./C.cell (b20cbc046b6831c77cfcea5457e17084)
REM
REM compiler GCC version 9.2.1 20190827 (Red Hat 9.2.1-1)
REM options -cpp -mtune=generic -march=x86-64 -g -O0 -fpre-include=/usr/include/finclude/math-vector-fortran.h
REM seed 1540422935 -465382657 -1099895541 -2105613356 -1763957554 -1071076127 1560100449 -996749060 -1506017840 -27596556 -912079309 783590827 -605281483 -794757634 836725241 -346577611 1914757209 138018206 1683401116 1287430959 281094052 -1045559489 -371360950 1687506456 21173116 350548218 -284241528 1605772681 -77738269 -1488431178 1294627346 1231434210 -453110921
REM
CELL 1.54180   50.00000   50.00000   50.00000   90.00000   90.00000   90.00000
LATT -1
SFAC C  
C      1  0.5515060000000  0.5628860000000  0.5298950000000 1.0
C      1  0.5503540000000  0.4288390000000  0.4678050000000 1.0
C      1  0.4172030000000  0.4892510000000  0.5430650000000 1.0
C      1  0.4138810000000  0.5128330000000  0.4483710000000 1.0
C      1  0.4809800000000  0.4278830000000  0.5415370000000 1.0
C      1  0.4781320000000  0.5753980000000  0.4567070000000 1.0
C      1  0.5286940000000  0.5770200000000  0.5002810000000 1.0
C      1  0.5307800000000  0.4185150000000  0.5010440000000 1.0
C      1  0.5319500000000  0.5411400000000  0.5398440000000 1.0
C      1  0.5304830000000  0.4504670000000  0.4578390000000 1.0
C      1  0.4551150000000  0.5765840000000  0.5038690000000 1.0
C      1  0.4574050000000  0.4250960000000  0.4953590000000 1.0
C      1  0.5276100000000  0.4608710000000  0.5597990000000 1.0
C      1  0.5234900000000  0.5478270000000  0.4438410000000 1.0
C      1  0.4986640000000  0.4758880000000  0.5077380000000 1.0
C      1  0.4849140000000  0.5270750000000  0.4909270000000 1.0
C      1  0.4973110000000  0.4438220000000  0.5184270000000 1.0
C      1  0.4920400000000  0.5583850000000  0.4797490000000 1.0
C      1  0.5123080000000  0.5083940000000  0.5512030000000 1.0
C      1  0.5113530000000  0.4883260000000  0.4384460000000 1.0
C      1  0.5114070000000  0.4493010000000  0.4299760000000 1.0
C      1  0.5130560000000  0.5470560000000  0.5641090000000 1.0
C      1  0.4220910000000  0.5546070000000  0.4998780000000 1.0
C      1  0.4156130000000  0.4577410000000  0.4945360000000 1.0
C      1  0.5217520000000  0.4635110000000  0.5292430000000 1.0
C      1  0.5103130000000  0.5295260000000  0.4684520000000 1.0
C      1  0.4411270000000  0.4528370000000  0.4480370000000 1.0
C      1  0.4353100000000  0.5505270000000  0.5592840000000 1.0
C      1  0.4435780000000  0.4861310000000  0.4467970000000 1.0
C      1  0.4411780000000  0.5170380000000  0.5596000000000 1.0
C      1  0.5365340000000  0.4592310000000  0.4122130000000 1.0
C      1  0.5311030000000  0.5341410000000  0.5879010000000 1.0
C      1  0.5485170000000  0.5659880000000  0.4533650000000 1.0
C      1  0.5516150000000  0.4420170000000  0.5447730000000 1.0
C      1  0.4585460000000  0.4910540000000  0.4953740000000 1.0
C      1  0.4690770000000  0.5145050000000  0.5156180000000 1.0
C      1  0.5271790000000  0.4510350000000  0.4916740000000 1.0
C      1  0.5235330000000  0.5443490000000  0.5081860000000 1.0
C      1  0.5324740000000  0.4042060000000  0.4718610000000 1.0
C      1  0.5357090000000  0.5896150000000  0.5296380000000 1.0
C      1  0.5427450000000  0.5127450000000  0.5451490000000 1.0
C      1  0.5376660000000  0.4780390000000  0.4484690000000 1.0
C      1  0.4678230000000  0.5607540000000  0.5547010000000 1.0
C      1  0.4734280000000  0.4433230000000  0.4409020000000 1.0
C      1  0.4110650000000  0.5096330000000  0.4815450000000 1.0
C      1  0.4192210000000  0.4929030000000  0.5090210000000 1.0
C      1  0.5438460000000  0.5067730000000  0.5786040000000 1.0
C      1  0.5454520000000  0.4898050000000  0.4177370000000 1.0
C      1  0.4583040000000  0.4679250000000  0.4229580000000 1.0
C      1  0.4627300000000  0.5361310000000  0.5748910000000 1.0
C      1  0.4755240000000  0.5035710000000  0.4309950000000 1.0
C      1  0.4696060000000  0.4973500000000  0.5808380000000 1.0
C      1  0.4895850000000  0.4735830000000  0.4203710000000 1.0
C      1  0.4914510000000  0.5222160000000  0.5729220000000 1.0
C      1  0.5267190000000  0.5117060000000  0.4090650000000 1.0
C      1  0.5298550000000  0.4813060000000  0.5870100000000 1.0
C      1  0.5753740000000  0.5484120000000  0.4535070000000 1.0
C      1  0.5761300000000  0.4619440000000  0.5466960000000 1.0
C      1  0.4551470000000  0.4393010000000  0.5231280000000 1.0
C      1  0.4525890000000  0.5630890000000  0.4754990000000 1.0
C      1  0.5583620000000  0.5010610000000  0.5205630000000 1.0
C      1  0.5546100000000  0.4970220000000  0.4715470000000 1.0
C      1  0.4958380000000  0.5715290000000  0.5570860000000 1.0
C      1  0.4957240000000  0.4219840000000  0.4382060000000 1.0
C      1  0.5764070000000  0.5227230000000  0.4669480000000 1.0
C      1  0.5754280000000  0.4889830000000  0.5447300000000 1.0
C      1  0.4420970000000  0.4678530000000  0.5114690000000 1.0
C      1  0.4331250000000  0.5353270000000  0.4784810000000 1.0
C      1  0.4763450000000  0.4414530000000  0.5691600000000 1.0
C      1  0.4759410000000  0.5591450000000  0.4296880000000 1.0
C      1  0.4391900000000  0.5589990000000  0.5270640000000 1.0
C      1  0.4408000000000  0.4455420000000  0.4783190000000 1.0
C      1  0.4917400000000  0.4973660000000  0.5281800000000 1.0
C      1  0.4839730000000  0.4810120000000  0.4812350000000 1.0
C      1  0.5342100000000  0.5197490000000  0.4872130000000 1.0
C      1  0.5411070000000  0.4777720000000  0.5075450000000 1.0
C      1  0.4988010000000  0.5454630000000  0.4229910000000 1.0
C      1  0.4987190000000  0.4591710000000  0.5764190000000 1.0
C      1  0.4447740000000  0.4833180000000  0.5621600000000 1.0
C      1  0.4455320000000  0.5184250000000  0.4371660000000 1.0
C      1  0.4935440000000  0.5012580000000  0.4597420000000 1.0
C      1  0.4904830000000  0.4851530000000  0.5580330000000 1.0
C      1  0.5740630000000  0.5033160000000  0.5679560000000 1.0
C      1  0.5689400000000  0.4984930000000  0.4407370000000 1.0
C      1  0.4733190000000  0.4530430000000  0.4716320000000 1.0
C      1  0.4705490000000  0.5464470000000  0.5250690000000 1.0
C      1  0.5444320000000  0.4669960000000  0.6100920000000 1.0
C      1  0.5372380000000  0.5368990000000  0.4161600000000 1.0
C      1  0.5259090000000  0.5876470000000  0.4435200000000 1.0
C      1  0.5289080000000  0.4211620000000  0.5576780000000 1.0
C      1  0.4983930000000  0.5185280000000  0.4133260000000 1.0
C      1  0.4976140000000  0.4861310000000  0.5967540000000 1.0
C      1  0.5656710000000  0.4405820000000  0.4889850000000 1.0
C      1  0.5643730000000  0.5548970000000  0.5061910000000 1.0
C      1  0.4532480000000  0.5464530000000  0.4458010000000 1.0
C      1  0.4552920000000  0.4563020000000  0.5525800000000 1.0
C      1  0.5042420000000  0.5915750000000  0.4596810000000 1.0
C      1  0.5076790000000  0.4122370000000  0.5429270000000 1.0
C      1  0.5015120000000  0.4112970000000  0.4669650000000 1.0
C      1  0.5032880000000  0.5855040000000  0.5299890000000 1.0
C      1  0.5145560000000  0.4007430000000  0.5195930000000 1.0
C      1  0.5105320000000  0.5968920000000  0.4854440000000 1.0
C      1  0.4413980000000  0.5085680000000  0.5294860000000 1.0
C      1  0.4426290000000  0.5028760000000  0.4738100000000 1.0
C      1  0.5650930000000  0.5242570000000  0.4988590000000 1.0
C      1  0.5650220000000  0.4689860000000  0.4878140000000 1.0
C      1  0.4945670000000  0.5596730000000  0.5117350000000 1.0
C      1  0.4966040000000  0.4376130000000  0.4862600000000 1.0
C      1  0.5572190000000  0.4303040000000  0.5157800000000 1.0
C      1  0.5550260000000  0.5711730000000  0.4832650000000 1.0
C      1  0.4746960000000  0.5941560000000  0.5137270000000 1.0
C      1  0.4730880000000  0.4055140000000  0.4839660000000 1.0
END
