TITL C-3289327-5623-315 -0.000117788461146405 125000 -886.220809292765 0 0 164 (C1) n - 1
REM
REM in /nfs/bkarasulu/CARBON/AIRSS/Generating-Clusters/AIREBO/with-SteepDescent/Higher-Symm/SD-CG/HFTN-CG
REM
REM
REM
REM
REM
REM ./C.cell (b20cbc046b6831c77cfcea5457e17084)
REM
REM compiler GCC version 9.2.1 20190827 (Red Hat 9.2.1-1)
REM options -cpp -mtune=generic -march=x86-64 -g -O0 -fpre-include=/usr/include/finclude/math-vector-fortran.h
REM seed -2087530719 1236397874 -2047405709 -677018389 -431215588 792155684 1853782173 1793360389 -374606781 1265024036 -1302917865 -964447838 1242396942 -2078736425 92788515 -1654202808 -317967079 1588106265 1173338921 2066894724 -283149431 -73464283 -1302646532 529277692 684883171 -256394489 -1289385977 512371162 1873694534 -548304338 2110385442 -332705561 1468058935
REM
CELL 1.54180   50.00000   50.00000   50.00000   90.00000   90.00000   90.00000
LATT -1
SFAC C  
C      1  0.4956250000000  0.4657410000000  0.4844790000000 1.0
C      1  0.4777400000000  0.4901390000000  0.4936690000000 1.0
C      1  0.4655630000000  0.5149340000000  0.4775830000000 1.0
C      1  0.4884790000000  0.5283780000000  0.4957020000000 1.0
C      1  0.5191210000000  0.5252080000000  0.4812240000000 1.0
C      1  0.5299860000000  0.4981550000000  0.4955340000000 1.0
C      1  0.5294090000000  0.4681590000000  0.4874820000000 1.0
C      1  0.4258650000000  0.5304220000000  0.5879480000000 1.0
C      1  0.4835060000000  0.5701040000000  0.5735850000000 1.0
C      1  0.5475330000000  0.5565640000000  0.5808770000000 1.0
C      1  0.5762930000000  0.4901630000000  0.5726470000000 1.0
C      1  0.5421630000000  0.4345270000000  0.5820600000000 1.0
C      1  0.4803500000000  0.4210320000000  0.5791940000000 1.0
C      1  0.4338000000000  0.4684610000000  0.5762650000000 1.0
C      1  0.5259590000000  0.5396430000000  0.5112420000000 1.0
C      1  0.5566800000000  0.5002000000000  0.5142120000000 1.0
C      1  0.5310400000000  0.4586730000000  0.5168520000000 1.0
C      1  0.4864250000000  0.4442180000000  0.5049480000000 1.0
C      1  0.4566040000000  0.4772070000000  0.5144570000000 1.0
C      1  0.4400240000000  0.5267110000000  0.5134650000000 1.0
C      1  0.4758720000000  0.5521530000000  0.5164890000000 1.0
C      1  0.5056980000000  0.4683880000000  0.5784950000000 1.0
C      1  0.4778760000000  0.4783690000000  0.5864090000000 1.0
C      1  0.4674680000000  0.5046720000000  0.5876040000000 1.0
C      1  0.4790520000000  0.5304780000000  0.5750240000000 1.0
C      1  0.5043770000000  0.5368500000000  0.5918800000000 1.0
C      1  0.5422240000000  0.5102370000000  0.5769240000000 1.0
C      1  0.5288490000000  0.4838820000000  0.5939860000000 1.0
C      1  0.5667080000000  0.4299700000000  0.5406710000000 1.0
C      1  0.5014770000000  0.4084620000000  0.5479850000000 1.0
C      1  0.4177860000000  0.4394940000000  0.5478150000000 1.0
C      1  0.4163020000000  0.5245890000000  0.5377310000000 1.0
C      1  0.4635340000000  0.5772790000000  0.5400110000000 1.0
C      1  0.5469280000000  0.5787650000000  0.5417480000000 1.0
C      1  0.5926320000000  0.5259920000000  0.5417630000000 1.0
C      1  0.5494110000000  0.4022580000000  0.4690230000000 1.0
C      1  0.4728570000000  0.4126060000000  0.4679420000000 1.0
C      1  0.3957360000000  0.4700150000000  0.4769460000000 1.0
C      1  0.4230500000000  0.5563100000000  0.4748080000000 1.0
C      1  0.4864030000000  0.6010600000000  0.4726630000000 1.0
C      1  0.5670500000000  0.5698530000000  0.4737150000000 1.0
C      1  0.5973350000000  0.4919710000000  0.4757570000000 1.0
C      1  0.4237230000000  0.4859230000000  0.5147800000000 1.0
C      1  0.4434630000000  0.5593230000000  0.5090510000000 1.0
C      1  0.5007770000000  0.5752470000000  0.5147390000000 1.0
C      1  0.5558960000000  0.5343320000000  0.5203190000000 1.0
C      1  0.5818380000000  0.4774810000000  0.5169720000000 1.0
C      1  0.5212890000000  0.4297400000000  0.5175480000000 1.0
C      1  0.4607720000000  0.4286140000000  0.5143640000000 1.0
C      1  0.6071940000000  0.5105350000000  0.4963480000000 1.0
C      1  0.5611030000000  0.4227570000000  0.4909840000000 1.0
C      1  0.4916980000000  0.3844230000000  0.5258250000000 1.0
C      1  0.4108840000000  0.4508900000000  0.5009780000000 1.0
C      1  0.4045280000000  0.5462440000000  0.4941300000000 1.0
C      1  0.4805450000000  0.6130690000000  0.5042240000000 1.0
C      1  0.5562040000000  0.5818200000000  0.5029620000000 1.0
C      1  0.5687800000000  0.5151740000000  0.4152400000000 1.0
C      1  0.5546330000000  0.4540440000000  0.4128880000000 1.0
C      1  0.4978980000000  0.4232260000000  0.4026710000000 1.0
C      1  0.4511580000000  0.4621140000000  0.4164600000000 1.0
C      1  0.4285130000000  0.5178400000000  0.4025920000000 1.0
C      1  0.4707610000000  0.5673270000000  0.4124000000000 1.0
C      1  0.5328700000000  0.5670870000000  0.4010130000000 1.0
C      1  0.5507480000000  0.5910330000000  0.4504730000000 1.0
C      1  0.6039800000000  0.5339440000000  0.4569120000000 1.0
C      1  0.5710260000000  0.4210080000000  0.4526690000000 1.0
C      1  0.4879670000000  0.3893660000000  0.4733390000000 1.0
C      1  0.4146530000000  0.4514950000000  0.4614810000000 1.0
C      1  0.4005240000000  0.5265190000000  0.4523270000000 1.0
C      1  0.4538920000000  0.5986920000000  0.4595930000000 1.0
C      1  0.4508130000000  0.4235450000000  0.4849860000000 1.0
C      1  0.4092120000000  0.4953060000000  0.4889750000000 1.0
C      1  0.4397330000000  0.5800290000000  0.4843900000000 1.0
C      1  0.5101640000000  0.5880560000000  0.4874840000000 1.0
C      1  0.5745840000000  0.5473110000000  0.4950380000000 1.0
C      1  0.5863770000000  0.4660780000000  0.4879770000000 1.0
C      1  0.5216040000000  0.3961270000000  0.4768720000000 1.0
C      1  0.4589360000000  0.4592830000000  0.5790560000000 1.0
C      1  0.4394830000000  0.5069930000000  0.5846930000000 1.0
C      1  0.4576850000000  0.5550590000000  0.5651400000000 1.0
C      1  0.5202960000000  0.5569730000000  0.5815060000000 1.0
C      1  0.5728950000000  0.5213290000000  0.5672990000000 1.0
C      1  0.5392890000000  0.4540700000000  0.5973160000000 1.0
C      1  0.5052930000000  0.4363420000000  0.5670970000000 1.0
C      1  0.4430850000000  0.4561310000000  0.4913810000000 1.0
C      1  0.4348240000000  0.5158140000000  0.4854670000000 1.0
C      1  0.4759550000000  0.5634010000000  0.4844030000000 1.0
C      1  0.5315180000000  0.5624230000000  0.4898680000000 1.0
C      1  0.5679290000000  0.5166370000000  0.4866510000000 1.0
C      1  0.5570470000000  0.4545180000000  0.4793300000000 1.0
C      1  0.5056990000000  0.4232200000000  0.4879780000000 1.0
C      1  0.5792880000000  0.4543050000000  0.5384150000000 1.0
C      1  0.5291640000000  0.3949630000000  0.5346110000000 1.0
C      1  0.4420500000000  0.4259700000000  0.5424430000000 1.0
C      1  0.4044480000000  0.4929030000000  0.5412740000000 1.0
C      1  0.4311870000000  0.5751490000000  0.5435410000000 1.0
C      1  0.5182090000000  0.5900450000000  0.5392690000000 1.0
C      1  0.5920780000000  0.5571440000000  0.5394570000000 1.0
C      1  0.5571520000000  0.4512950000000  0.4466840000000 1.0
C      1  0.4942460000000  0.4349940000000  0.4581480000000 1.0
C      1  0.4422110000000  0.4661830000000  0.4585340000000 1.0
C      1  0.4341380000000  0.5309610000000  0.4550240000000 1.0
C      1  0.4765540000000  0.5737690000000  0.4549130000000 1.0
C      1  0.5397470000000  0.5593790000000  0.4563450000000 1.0
C      1  0.5787040000000  0.5112840000000  0.4548470000000 1.0
C      1  0.5021480000000  0.5639280000000  0.4124590000000 1.0
C      1  0.5493780000000  0.5422170000000  0.4092150000000 1.0
C      1  0.5696580000000  0.4835690000000  0.4052250000000 1.0
C      1  0.5250640000000  0.4385060000000  0.4091650000000 1.0
C      1  0.4769760000000  0.4404310000000  0.4120570000000 1.0
C      1  0.4375890000000  0.4933340000000  0.4156060000000 1.0
C      1  0.4501420000000  0.5407190000000  0.4076120000000 1.0
C      1  0.5656750000000  0.4748750000000  0.5534380000000 1.0
C      1  0.5338430000000  0.4317440000000  0.5492070000000 1.0
C      1  0.4674130000000  0.4415480000000  0.5553660000000 1.0
C      1  0.4324590000000  0.4938950000000  0.5571800000000 1.0
C      1  0.4255980000000  0.5464750000000  0.5609370000000 1.0
C      1  0.5086470000000  0.5644130000000  0.5542900000000 1.0
C      1  0.5610820000000  0.5487870000000  0.5506730000000 1.0
C      1  0.4691730000000  0.4900580000000  0.4066500000000 1.0
C      1  0.4736170000000  0.5194270000000  0.4149590000000 1.0
C      1  0.5012270000000  0.5314410000000  0.4052050000000 1.0
C      1  0.5281210000000  0.5199580000000  0.4181370000000 1.0
C      1  0.5376670000000  0.4902030000000  0.4124960000000 1.0
C      1  0.5176400000000  0.4696980000000  0.4050210000000 1.0
C      1  0.4901450000000  0.4700340000000  0.4191710000000 1.0
C      1  0.5237610000000  0.4413060000000  0.4424460000000 1.0
C      1  0.4656480000000  0.4465490000000  0.4435280000000 1.0
C      1  0.4378930000000  0.4980290000000  0.4472580000000 1.0
C      1  0.4539610000000  0.5536500000000  0.4388270000000 1.0
C      1  0.5081180000000  0.5655500000000  0.4450660000000 1.0
C      1  0.5586020000000  0.5351050000000  0.4411610000000 1.0
C      1  0.5676030000000  0.4832320000000  0.4391630000000 1.0
C      1  0.5085130000000  0.4708490000000  0.5473170000000 1.0
C      1  0.4797320000000  0.4594740000000  0.5330840000000 1.0
C      1  0.4529130000000  0.5043800000000  0.5346020000000 1.0
C      1  0.4758030000000  0.5287610000000  0.5411820000000 1.0
C      1  0.5081380000000  0.5385620000000  0.5373230000000 1.0
C      1  0.5275090000000  0.5136720000000  0.5500560000000 1.0
C      1  0.5389350000000  0.4839000000000  0.5382350000000 1.0
C      1  0.5376270000000  0.4924630000000  0.4451540000000 1.0
C      1  0.5232310000000  0.4702120000000  0.4561670000000 1.0
C      1  0.4931550000000  0.4741450000000  0.4514880000000 1.0
C      1  0.4693450000000  0.4902070000000  0.4465850000000 1.0
C      1  0.4739450000000  0.5208550000000  0.4484230000000 1.0
C      1  0.4993700000000  0.5356860000000  0.4405840000000 1.0
C      1  0.5236480000000  0.5198760000000  0.4518770000000 1.0
C      1  0.4132060000000  0.5541590000000  0.5237380000000 1.0
C      1  0.4858930000000  0.5992650000000  0.5323290000000 1.0
C      1  0.5745020000000  0.5783650000000  0.5274780000000 1.0
C      1  0.5967790000000  0.5060900000000  0.5228920000000 1.0
C      1  0.5512860000000  0.4140750000000  0.5181650000000 1.0
C      1  0.4694480000000  0.4063090000000  0.5368420000000 1.0
C      1  0.4080580000000  0.4603990000000  0.5308810000000 1.0
C      1  0.4523230000000  0.6097470000000  0.4915890000000 1.0
C      1  0.5401500000000  0.5996780000000  0.4793680000000 1.0
C      1  0.6029810000000  0.5363320000000  0.4855940000000 1.0
C      1  0.5905670000000  0.4339470000000  0.4773010000000 1.0
C      1  0.5015260000000  0.3822830000000  0.5005680000000 1.0
C      1  0.4195930000000  0.4266430000000  0.4787890000000 1.0
C      1  0.3957140000000  0.5227210000000  0.4807260000000 1.0
C      1  0.5196060000000  0.5149050000000  0.6002510000000 1.0
C      1  0.5023460000000  0.4992840000000  0.5372330000000 1.0
C      1  0.5021300000000  0.5027710000000  0.5092100000000 1.0
END
