TITL C-3289332-8317-318 0.00143414281867366 125000 -809.787967527705 0 0 144 (C1) n - 1
REM
REM in /nfs/bkarasulu/CARBON/AIRSS/Generating-Clusters/AIREBO/with-SteepDescent/Higher-Symm/SD-CG/HFTN-CG
REM
REM
REM
REM
REM
REM ./C.cell (b20cbc046b6831c77cfcea5457e17084)
REM
REM compiler GCC version 9.2.1 20190827 (Red Hat 9.2.1-1)
REM options -cpp -mtune=generic -march=x86-64 -g -O0 -fpre-include=/usr/include/finclude/math-vector-fortran.h
REM seed 1906386248 663749610 -2143547486 141427310 -1786685893 1337278036 -1881956287 -710197334 894566583 -1285585323 -910276346 -1834099674 -745106310 -2040366226 1972919539 -781197015 833312530 -1577175344 1442769136 -1812802986 632792767 -197278416 -1438255572 1053439857 1569856436 -1465959184 -1994931353 -2013119690 416330371 1609304868 1368769827 -397862839 15001713
REM
CELL 1.54180   50.00000   50.00000   50.00000   90.00000   90.00000   90.00000
LATT -1
SFAC C  
C      1  0.5196530000000  0.4527750000000  0.5085770000000 1.0
C      1  0.5143710000000  0.4539110000000  0.4767210000000 1.0
C      1  0.4703410000000  0.4526490000000  0.4966420000000 1.0
C      1  0.4899550000000  0.4481750000000  0.5236650000000 1.0
C      1  0.5192020000000  0.5439870000000  0.5101480000000 1.0
C      1  0.5126070000000  0.5527370000000  0.4779460000000 1.0
C      1  0.4818520000000  0.5465690000000  0.4892030000000 1.0
C      1  0.4873450000000  0.5464390000000  0.5221040000000 1.0
C      1  0.5907420000000  0.5273160000000  0.4923280000000 1.0
C      1  0.4883880000000  0.5192940000000  0.3941070000000 1.0
C      1  0.4102900000000  0.5257520000000  0.5063530000000 1.0
C      1  0.5084290000000  0.5160560000000  0.6036330000000 1.0
C      1  0.5957110000000  0.4752260000000  0.4942930000000 1.0
C      1  0.4923440000000  0.4859830000000  0.4017970000000 1.0
C      1  0.4057120000000  0.4736270000000  0.5043990000000 1.0
C      1  0.5119580000000  0.4844750000000  0.5911010000000 1.0
C      1  0.4364910000000  0.4828770000000  0.4941660000000 1.0
C      1  0.4932890000000  0.4783720000000  0.5644210000000 1.0
C      1  0.5645160000000  0.4844950000000  0.5041860000000 1.0
C      1  0.5034100000000  0.4806150000000  0.4335470000000 1.0
C      1  0.4393960000000  0.5127690000000  0.4945010000000 1.0
C      1  0.4953290000000  0.5112190000000  0.5665310000000 1.0
C      1  0.5623130000000  0.5143670000000  0.5040740000000 1.0
C      1  0.4949670000000  0.5115010000000  0.4322800000000 1.0
C      1  0.4357090000000  0.4318900000000  0.4319090000000 1.0
C      1  0.4297670000000  0.4373940000000  0.5647050000000 1.0
C      1  0.5642180000000  0.4308030000000  0.5667300000000 1.0
C      1  0.5708620000000  0.4353940000000  0.4395240000000 1.0
C      1  0.4446420000000  0.5667490000000  0.4339110000000 1.0
C      1  0.4346070000000  0.5678450000000  0.5562690000000 1.0
C      1  0.5573140000000  0.5680840000000  0.5686610000000 1.0
C      1  0.5654710000000  0.5667340000000  0.4398390000000 1.0
C      1  0.5306210000000  0.5725890000000  0.5233260000000 1.0
C      1  0.5264060000000  0.5771100000000  0.4648600000000 1.0
C      1  0.4692500000000  0.5731680000000  0.4750900000000 1.0
C      1  0.4747960000000  0.5733260000000  0.5335440000000 1.0
C      1  0.5355880000000  0.4281360000000  0.5242870000000 1.0
C      1  0.5236780000000  0.4269560000000  0.4632880000000 1.0
C      1  0.4617380000000  0.4281360000000  0.4774970000000 1.0
C      1  0.4712370000000  0.4265380000000  0.5407970000000 1.0
C      1  0.3944490000000  0.5162330000000  0.4389620000000 1.0
C      1  0.4380960000000  0.5166800000000  0.6073560000000 1.0
C      1  0.6051900000000  0.5142690000000  0.5614910000000 1.0
C      1  0.5616430000000  0.5168600000000  0.3942270000000 1.0
C      1  0.3929670000000  0.4910940000000  0.4377810000000 1.0
C      1  0.4401060000000  0.4915580000000  0.6079510000000 1.0
C      1  0.6075010000000  0.4891560000000  0.5615130000000 1.0
C      1  0.5647910000000  0.4918120000000  0.3943930000000 1.0
C      1  0.4008730000000  0.4872850000000  0.4767990000000 1.0
C      1  0.4795230000000  0.4893730000000  0.6000690000000 1.0
C      1  0.5999170000000  0.4874150000000  0.5223020000000 1.0
C      1  0.5257990000000  0.4859200000000  0.4008940000000 1.0
C      1  0.4032390000000  0.5155220000000  0.4779570000000 1.0
C      1  0.4774600000000  0.5203430000000  0.6016270000000 1.0
C      1  0.5976370000000  0.5158480000000  0.5222570000000 1.0
C      1  0.5189700000000  0.5157180000000  0.4003610000000 1.0
C      1  0.4573540000000  0.4112720000000  0.4224310000000 1.0
C      1  0.4238790000000  0.4149780000000  0.5189990000000 1.0
C      1  0.5429210000000  0.4111400000000  0.5789480000000 1.0
C      1  0.5800720000000  0.4173870000000  0.4634530000000 1.0
C      1  0.4960910000000  0.5770640000000  0.4273090000000 1.0
C      1  0.4301620000000  0.5764900000000  0.5033580000000 1.0
C      1  0.5036480000000  0.5793420000000  0.5716420000000 1.0
C      1  0.5739840000000  0.5835260000000  0.4876590000000 1.0
C      1  0.4542080000000  0.4733780000000  0.5852920000000 1.0
C      1  0.5860940000000  0.4702600000000  0.5466790000000 1.0
C      1  0.5501760000000  0.4729850000000  0.4162740000000 1.0
C      1  0.4147000000000  0.4717470000000  0.4513410000000 1.0
C      1  0.4536150000000  0.5337110000000  0.5847730000000 1.0
C      1  0.5803040000000  0.5294310000000  0.5475920000000 1.0
C      1  0.5426560000000  0.5324380000000  0.4147960000000 1.0
C      1  0.4189300000000  0.5310840000000  0.4536830000000 1.0
C      1  0.5326630000000  0.4336220000000  0.5553900000000 1.0
C      1  0.5538170000000  0.4387280000000  0.4683210000000 1.0
C      1  0.4658070000000  0.4338830000000  0.4466030000000 1.0
C      1  0.4406110000000  0.4357750000000  0.5340280000000 1.0
C      1  0.5279320000000  0.5684110000000  0.5563280000000 1.0
C      1  0.5561730000000  0.5653600000000  0.4706760000000 1.0
C      1  0.4746700000000  0.5630820000000  0.4439990000000 1.0
C      1  0.4447760000000  0.5616510000000  0.5260690000000 1.0
C      1  0.5737140000000  0.5589830000000  0.5478780000000 1.0
C      1  0.5440360000000  0.5619230000000  0.4229070000000 1.0
C      1  0.4272310000000  0.5604920000000  0.4548260000000 1.0
C      1  0.4546670000000  0.5626360000000  0.5749800000000 1.0
C      1  0.5802900000000  0.4400730000000  0.5456570000000 1.0
C      1  0.5501960000000  0.4431820000000  0.4217850000000 1.0
C      1  0.4185960000000  0.4414110000000  0.4521770000000 1.0
C      1  0.4509680000000  0.4434860000000  0.5817590000000 1.0
C      1  0.4185280000000  0.4828440000000  0.5345470000000 1.0
C      1  0.5419380000000  0.4749000000000  0.5833940000000 1.0
C      1  0.5786190000000  0.4851430000000  0.4668640000000 1.0
C      1  0.4654120000000  0.4797140000000  0.4211390000000 1.0
C      1  0.4244390000000  0.5132380000000  0.5347370000000 1.0
C      1  0.5271430000000  0.5183340000000  0.5761950000000 1.0
C      1  0.5727340000000  0.5158640000000  0.4655020000000 1.0
C      1  0.4656660000000  0.5133050000000  0.4187090000000 1.0
C      1  0.5466020000000  0.5205790000000  0.4435770000000 1.0
C      1  0.4459060000000  0.5160850000000  0.4459870000000 1.0
C      1  0.4490840000000  0.5187110000000  0.5575890000000 1.0
C      1  0.5530510000000  0.5124990000000  0.5549630000000 1.0
C      1  0.5537350000000  0.4878750000000  0.4442220000000 1.0
C      1  0.4438750000000  0.4829710000000  0.4465830000000 1.0
C      1  0.4453890000000  0.4850730000000  0.5553440000000 1.0
C      1  0.5564920000000  0.4810040000000  0.5532700000000 1.0
C      1  0.4413780000000  0.4636700000000  0.5217990000000 1.0
C      1  0.5220120000000  0.4608630000000  0.5606810000000 1.0
C      1  0.5544080000000  0.4659730000000  0.4786420000000 1.0
C      1  0.4788190000000  0.4594140000000  0.4425660000000 1.0
C      1  0.4470510000000  0.5323860000000  0.5201180000000 1.0
C      1  0.5236350000000  0.5386480000000  0.5494930000000 1.0
C      1  0.5524200000000  0.5367790000000  0.4804970000000 1.0
C      1  0.4817700000000  0.5341120000000  0.4513000000000 1.0
C      1  0.5149250000000  0.5994200000000  0.4812410000000 1.0
C      1  0.4842840000000  0.5966990000000  0.4869230000000 1.0
C      1  0.4851810000000  0.5965360000000  0.5179750000000 1.0
C      1  0.5152490000000  0.5958060000000  0.5117820000000 1.0
C      1  0.5115440000000  0.4059870000000  0.4804990000000 1.0
C      1  0.4817900000000  0.4079920000000  0.4892020000000 1.0
C      1  0.4853610000000  0.4086610000000  0.5197370000000 1.0
C      1  0.5148410000000  0.4086220000000  0.5112720000000 1.0
C      1  0.5207370000000  0.4819060000000  0.5356740000000 1.0
C      1  0.5299290000000  0.4887170000000  0.4850850000000 1.0
C      1  0.4891130000000  0.4759210000000  0.4704520000000 1.0
C      1  0.4698490000000  0.4811650000000  0.5154800000000 1.0
C      1  0.5129560000000  0.5075880000000  0.5405550000000 1.0
C      1  0.5259150000000  0.5170320000000  0.4885220000000 1.0
C      1  0.4955070000000  0.5050550000000  0.4650250000000 1.0
C      1  0.4724890000000  0.5101120000000  0.5163960000000 1.0
C      1  0.4383670000000  0.5724830000000  0.4780470000000 1.0
C      1  0.4784210000000  0.5736470000000  0.5641050000000 1.0
C      1  0.5636400000000  0.5711310000000  0.5250670000000 1.0
C      1  0.5218370000000  0.5748660000000  0.4344050000000 1.0
C      1  0.4285630000000  0.4293900000000  0.4755330000000 1.0
C      1  0.4723290000000  0.4281670000000  0.5724010000000 1.0
C      1  0.5681230000000  0.4296660000000  0.5226430000000 1.0
C      1  0.5272140000000  0.4299580000000  0.4304870000000 1.0
C      1  0.4733640000000  0.4685490000000  0.5452710000000 1.0
C      1  0.5462090000000  0.4681610000000  0.5233420000000 1.0
C      1  0.5252290000000  0.4764900000000  0.4537080000000 1.0
C      1  0.4563530000000  0.4725520000000  0.4728880000000 1.0
C      1  0.4771800000000  0.5246370000000  0.5449390000000 1.0
C      1  0.5440860000000  0.5263580000000  0.5252370000000 1.0
C      1  0.5204330000000  0.5272920000000  0.4586720000000 1.0
C      1  0.4612540000000  0.5233930000000  0.4752070000000 1.0
END
