TITL C-3289324-3781-372 0.000431554779670305 125000 -636.370085276593 0 0 124 (C1) n - 1
REM
REM in /nfs/bkarasulu/CARBON/AIRSS/Generating-Clusters/AIREBO/with-SteepDescent/Higher-Symm/SD-CG/HFTN-CG
REM
REM
REM
REM
REM
REM ./C.cell (b20cbc046b6831c77cfcea5457e17084)
REM
REM compiler GCC version 9.2.1 20190827 (Red Hat 9.2.1-1)
REM options -cpp -mtune=generic -march=x86-64 -g -O0 -fpre-include=/usr/include/finclude/math-vector-fortran.h
REM seed 2143240735 -446402471 686286292 613414022 -1865720299 2004860259 -1289579323 1995264552 -959952913 -1434544535 -17889013 -1392987470 204245087 2140356767 528401236 836948609 -947083629 -848020099 -1933130999 348394391 1340532083 -1377513072 -17771573 2130261296 1570279354 -1176118640 -1632732617 942825815 -509546185 -1663797195 891845390 -11425241 -175050098
REM
CELL 1.54180   50.00000   50.00000   50.00000   90.00000   90.00000   90.00000
LATT -1
SFAC C  
C      1  0.4727510000000  0.4428800000000  0.4651500000000 1.0
C      1  0.5026700000000  0.5389170000000  0.4797910000000 1.0
C      1  0.5280810000000  0.4525380000000  0.4729770000000 1.0
C      1  0.5385450000000  0.5410130000000  0.5007980000000 1.0
C      1  0.5257380000000  0.4561680000000  0.5122120000000 1.0
C      1  0.5216820000000  0.5525530000000  0.5416250000000 1.0
C      1  0.4988370000000  0.4520430000000  0.5409160000000 1.0
C      1  0.4780970000000  0.5453950000000  0.5271010000000 1.0
C      1  0.4654380000000  0.4476630000000  0.5099440000000 1.0
C      1  0.4621270000000  0.5582980000000  0.4932250000000 1.0
C      1  0.4627040000000  0.5318440000000  0.5693700000000 1.0
C      1  0.4262030000000  0.4696990000000  0.5324390000000 1.0
C      1  0.4143790000000  0.5357720000000  0.4838530000000 1.0
C      1  0.4415990000000  0.4714440000000  0.4429970000000 1.0
C      1  0.4894100000000  0.5306520000000  0.4195940000000 1.0
C      1  0.5372580000000  0.4672930000000  0.4306910000000 1.0
C      1  0.5753550000000  0.5330990000000  0.4652150000000 1.0
C      1  0.5827510000000  0.4706390000000  0.5167460000000 1.0
C      1  0.5580390000000  0.5300180000000  0.5581470000000 1.0
C      1  0.5082200000000  0.4735090000000  0.5803710000000 1.0
C      1  0.5020660000000  0.5720800000000  0.5702100000000 1.0
C      1  0.4636640000000  0.4317240000000  0.5517920000000 1.0
C      1  0.4389140000000  0.5672730000000  0.5147110000000 1.0
C      1  0.4396700000000  0.4362680000000  0.4659010000000 1.0
C      1  0.4705040000000  0.5693170000000  0.4382080000000 1.0
C      1  0.5008560000000  0.4311270000000  0.4396310000000 1.0
C      1  0.5353390000000  0.5649770000000  0.4510800000000 1.0
C      1  0.5616880000000  0.4316940000000  0.4829030000000 1.0
C      1  0.5657420000000  0.5644410000000  0.5213740000000 1.0
C      1  0.5375420000000  0.4333380000000  0.5530170000000 1.0
C      1  0.5282130000000  0.5736600000000  0.5801960000000 1.0
C      1  0.4730000000000  0.4323690000000  0.5812310000000 1.0
C      1  0.4411250000000  0.5786010000000  0.5468410000000 1.0
C      1  0.4444630000000  0.4232130000000  0.4969290000000 1.0
C      1  0.4489880000000  0.5720480000000  0.4593140000000 1.0
C      1  0.4750100000000  0.4275400000000  0.4265920000000 1.0
C      1  0.5213750000000  0.5701400000000  0.4251640000000 1.0
C      1  0.5661800000000  0.4282460000000  0.4542170000000 1.0
C      1  0.5769310000000  0.5758200000000  0.4933410000000 1.0
C      1  0.5671400000000  0.4297610000000  0.5486720000000 1.0
C      1  0.5848730000000  0.4960210000000  0.4479580000000 1.0
C      1  0.6026140000000  0.4974960000000  0.5105610000000 1.0
C      1  0.5751180000000  0.5022310000000  0.5677530000000 1.0
C      1  0.5211520000000  0.5002450000000  0.5969250000000 1.0
C      1  0.4568100000000  0.5051770000000  0.5892610000000 1.0
C      1  0.4121820000000  0.4969330000000  0.5472210000000 1.0
C      1  0.4036870000000  0.5038580000000  0.4863060000000 1.0
C      1  0.4262590000000  0.5007830000000  0.4337630000000 1.0
C      1  0.4742090000000  0.4960590000000  0.4047600000000 1.0
C      1  0.5342330000000  0.5042970000000  0.4118400000000 1.0
C      1  0.5366610000000  0.5181710000000  0.4791170000000 1.0
C      1  0.5432750000000  0.4802080000000  0.4987370000000 1.0
C      1  0.5173320000000  0.5137130000000  0.5279040000000 1.0
C      1  0.5090520000000  0.4838900000000  0.5347430000000 1.0
C      1  0.4840840000000  0.5125350000000  0.5223550000000 1.0
C      1  0.4625270000000  0.4791310000000  0.5179680000000 1.0
C      1  0.4657950000000  0.5245590000000  0.4953370000000 1.0
C      1  0.4740610000000  0.4782790000000  0.4861380000000 1.0
C      1  0.4827840000000  0.5188010000000  0.4664240000000 1.0
C      1  0.5082530000000  0.4808060000000  0.4601760000000 1.0
C      1  0.4447900000000  0.4615110000000  0.4867510000000 1.0
C      1  0.4536310000000  0.5241200000000  0.4506800000000 1.0
C      1  0.4812010000000  0.4697840000000  0.4477350000000 1.0
C      1  0.5200000000000  0.5281210000000  0.4534650000000 1.0
C      1  0.5519250000000  0.4725350000000  0.4674400000000 1.0
C      1  0.5661830000000  0.5285390000000  0.5038610000000 1.0
C      1  0.5399770000000  0.4698970000000  0.5372190000000 1.0
C      1  0.5180280000000  0.5312660000000  0.5636710000000 1.0
C      1  0.4738850000000  0.4699130000000  0.5463480000000 1.0
C      1  0.4481660000000  0.5295930000000  0.5239810000000 1.0
C      1  0.5429260000000  0.5028480000000  0.5443730000000 1.0
C      1  0.5013660000000  0.5016410000000  0.5625280000000 1.0
C      1  0.4692330000000  0.5032010000000  0.5514850000000 1.0
C      1  0.4408480000000  0.4985760000000  0.5220210000000 1.0
C      1  0.4369950000000  0.5111860000000  0.4843880000000 1.0
C      1  0.4529160000000  0.4927750000000  0.4637930000000 1.0
C      1  0.4838280000000  0.5018950000000  0.4368550000000 1.0
C      1  0.5303590000000  0.4973950000000  0.4449130000000 1.0
C      1  0.5632280000000  0.5034130000000  0.4730900000000 1.0
C      1  0.5635900000000  0.4987220000000  0.5176720000000 1.0
C      1  0.5005100000000  0.5769360000000  0.5365860000000 1.0
C      1  0.4886490000000  0.4226410000000  0.5304720000000 1.0
C      1  0.4688450000000  0.5761600000000  0.5281780000000 1.0
C      1  0.4782500000000  0.4195290000000  0.4988010000000 1.0
C      1  0.4814890000000  0.5739540000000  0.4700640000000 1.0
C      1  0.5000600000000  0.4242050000000  0.4729990000000 1.0
C      1  0.5145010000000  0.5707230000000  0.4776670000000 1.0
C      1  0.5295250000000  0.4231290000000  0.4899870000000 1.0
C      1  0.5433070000000  0.5724660000000  0.4957070000000 1.0
C      1  0.5216480000000  0.4270120000000  0.5234720000000 1.0
C      1  0.4518010000000  0.5174690000000  0.4187550000000 1.0
C      1  0.5054630000000  0.4863450000000  0.4156970000000 1.0
C      1  0.5586560000000  0.5133010000000  0.4347540000000 1.0
C      1  0.5909280000000  0.4851930000000  0.4806460000000 1.0
C      1  0.5874230000000  0.5127010000000  0.5374930000000 1.0
C      1  0.5447360000000  0.4882510000000  0.5750490000000 1.0
C      1  0.4899030000000  0.5137360000000  0.5921670000000 1.0
C      1  0.4410890000000  0.4887490000000  0.5639680000000 1.0
C      1  0.4115370000000  0.5149920000000  0.5179040000000 1.0
C      1  0.4094550000000  0.4883850000000  0.4587780000000 1.0
C      1  0.5126560000000  0.5416490000000  0.4279690000000 1.0
C      1  0.5596400000000  0.4531800000000  0.4422880000000 1.0
C      1  0.5850530000000  0.5469440000000  0.4889360000000 1.0
C      1  0.5671100000000  0.4558700000000  0.5371110000000 1.0
C      1  0.5417390000000  0.5496900000000  0.5760880000000 1.0
C      1  0.4823260000000  0.4588630000000  0.5762600000000 1.0
C      1  0.4457130000000  0.5471070000000  0.5503190000000 1.0
C      1  0.4257430000000  0.4490040000000  0.5104950000000 1.0
C      1  0.4365160000000  0.5461830000000  0.4633490000000 1.0
C      1  0.4606520000000  0.4513870000000  0.4282250000000 1.0
C      1  0.5118410000000  0.4540200000000  0.4241610000000 1.0
C      1  0.5557110000000  0.5450700000000  0.4467040000000 1.0
C      1  0.5796790000000  0.4543610000000  0.4896690000000 1.0
C      1  0.5773310000000  0.5452440000000  0.5381800000000 1.0
C      1  0.5350840000000  0.4556350000000  0.5739360000000 1.0
C      1  0.4887630000000  0.5458420000000  0.5809750000000 1.0
C      1  0.4399120000000  0.4552100000000  0.5582720000000 1.0
C      1  0.4149740000000  0.5484250000000  0.5126650000000 1.0
C      1  0.4150840000000  0.4574260000000  0.4580160000000 1.0
C      1  0.4662550000000  0.5482510000000  0.4206040000000 1.0
C      1  0.5085690000000  0.5423450000000  0.5123150000000 1.0
C      1  0.5043170000000  0.4700580000000  0.4898390000000 1.0
C      1  0.5336800000000  0.3930350000000  0.4877200000000 1.0
C      1  0.4969260000000  0.5841260000000  0.5035200000000 1.0
END
