TITL C-3289325-7307-706 -0.000660531197292046 125000 -177.991821705148 0 0 34 (C1) n - 1
REM
REM in /nfs/bkarasulu/CARBON/AIRSS/Generating-Clusters/AIREBO/with-SteepDescent/Higher-Symm/SD-CG/HFTN-CG
REM
REM
REM
REM
REM
REM ./C.cell (b20cbc046b6831c77cfcea5457e17084)
REM
REM compiler GCC version 9.2.1 20190827 (Red Hat 9.2.1-1)
REM options -cpp -mtune=generic -march=x86-64 -g -O0 -fpre-include=/usr/include/finclude/math-vector-fortran.h
REM seed 1212466575 1898136662 1701071255 993630765 2043620871 -1704826613 1324350448 -1805920592 1505763486 -1659554762 1702584898 1340517367 -1716907614 1000589755 1709929941 -423030285 1278015498 1156942827 218690993 -1920268385 1068282323 1388807574 -1759000799 -116321350 1275931874 -61849105 771859691 1265193583 -946137237 -373716611 -1025221874 1965055880 1739235812
REM
CELL 1.54180   50.00000   50.00000   50.00000   90.00000   90.00000   90.00000
LATT -1
SFAC C  
C      1  0.5573420000000  0.5601040000000  0.4744460000000 1.0
C      1  0.5217790000000  0.4549120000000  0.4582530000000 1.0
C      1  0.4146750000000  0.5035290000000  0.4741900000000 1.0
C      1  0.5248100000000  0.5209040000000  0.5010420000000 1.0
C      1  0.5108120000000  0.4587220000000  0.5085000000000 1.0
C      1  0.4671610000000  0.5053550000000  0.4972520000000 1.0
C      1  0.5440040000000  0.5422490000000  0.4868840000000 1.0
C      1  0.5198050000000  0.4482630000000  0.4844840000000 1.0
C      1  0.4377730000000  0.5055820000000  0.4848470000000 1.0
C      1  0.4502180000000  0.4954090000000  0.5664240000000 1.0
C      1  0.5155570000000  0.5539540000000  0.5647480000000 1.0
C      1  0.5219970000000  0.4701440000000  0.5788450000000 1.0
C      1  0.5232030000000  0.5139420000000  0.4677720000000 1.0
C      1  0.5070900000000  0.4739580000000  0.4438360000000 1.0
C      1  0.4744630000000  0.5014360000000  0.4668890000000 1.0
C      1  0.5423610000000  0.4961810000000  0.5140820000000 1.0
C      1  0.4811240000000  0.4564050000000  0.5142420000000 1.0
C      1  0.4752740000000  0.5330430000000  0.5079100000000 1.0
C      1  0.5250480000000  0.4710860000000  0.5528280000000 1.0
C      1  0.4585910000000  0.4894080000000  0.5423250000000 1.0
C      1  0.5099060000000  0.5443440000000  0.5410290000000 1.0
C      1  0.4994310000000  0.4705510000000  0.4182700000000 1.0
C      1  0.4540880000000  0.5028190000000  0.4484450000000 1.0
C      1  0.5302240000000  0.5344130000000  0.4501730000000 1.0
C      1  0.4694670000000  0.4842260000000  0.5185240000000 1.0
C      1  0.5037940000000  0.5323090000000  0.5181920000000 1.0
C      1  0.5261820000000  0.4738300000000  0.5254640000000 1.0
C      1  0.4577970000000  0.5394190000000  0.5297580000000 1.0
C      1  0.5648970000000  0.5031780000000  0.5291190000000 1.0
C      1  0.4775230000000  0.4410050000000  0.5381300000000 1.0
C      1  0.4729400000000  0.5524560000000  0.4870940000000 1.0
C      1  0.5466370000000  0.4945590000000  0.4812840000000 1.0
C      1  0.4678840000000  0.4437880000000  0.4922750000000 1.0
C      1  0.5003520000000  0.4968450000000  0.4589630000000 1.0
END
