TITL C-3289326-3776-683 -0.00197531661318186 125000 -926.272199530454 0 0 172 (C1) n - 1
REM
REM in /nfs/bkarasulu/CARBON/AIRSS/Generating-Clusters/AIREBO/with-SteepDescent/Higher-Symm/SD-CG/HFTN-CG
REM
REM
REM
REM
REM
REM ./C.cell (b20cbc046b6831c77cfcea5457e17084)
REM
REM compiler GCC version 9.2.1 20190827 (Red Hat 9.2.1-1)
REM options -cpp -mtune=generic -march=x86-64 -g -O0 -fpre-include=/usr/include/finclude/math-vector-fortran.h
REM seed 1018749174 1338577591 909391070 1024414776 -572638461 -553985591 -1515321984 -364833744 273362130 1146013797 2053764343 -1412479543 359598034 -1260107456 -840950543 298090384 1636891899 -1618550244 1009205898 -1662144883 1885221818 416997813 1887483772 -691051128 675946882 572033030 1755942276 -16220508 -388371101 -811695562 1935030164 1028521941 -1319433556
REM
CELL 1.54180   50.00000   50.00000   50.00000   90.00000   90.00000   90.00000
LATT -1
SFAC C  
C      1  0.4300800000000  0.4095400000000  0.5307840000000 1.0
C      1  0.4292790000000  0.5763110000000  0.5684370000000 1.0
C      1  0.4228190000000  0.5151620000000  0.4029530000000 1.0
C      1  0.4900290000000  0.5478620000000  0.5310510000000 1.0
C      1  0.4959360000000  0.5160990000000  0.4332890000000 1.0
C      1  0.4967740000000  0.4445200000000  0.5250590000000 1.0
C      1  0.5385740000000  0.5719870000000  0.5047100000000 1.0
C      1  0.5369140000000  0.4642810000000  0.4204950000000 1.0
C      1  0.5304340000000  0.4522770000000  0.5679300000000 1.0
C      1  0.4165370000000  0.4859520000000  0.5855200000000 1.0
C      1  0.4216300000000  0.5754610000000  0.4754700000000 1.0
C      1  0.4178890000000  0.4327800000000  0.4432540000000 1.0
C      1  0.4079800000000  0.5174430000000  0.5759090000000 1.0
C      1  0.4111520000000  0.5531110000000  0.4520750000000 1.0
C      1  0.4212480000000  0.4317650000000  0.4702520000000 1.0
C      1  0.5840530000000  0.4839160000000  0.4336420000000 1.0
C      1  0.5782460000000  0.4535150000000  0.5507790000000 1.0
C      1  0.5866190000000  0.5750190000000  0.5143170000000 1.0
C      1  0.4679750000000  0.3989770000000  0.4861410000000 1.0
C      1  0.4614780000000  0.5374320000000  0.5962130000000 1.0
C      1  0.4643310000000  0.5704980000000  0.4214490000000 1.0
C      1  0.4557850000000  0.4283480000000  0.5085260000000 1.0
C      1  0.4416940000000  0.5399190000000  0.5630190000000 1.0
C      1  0.4405710000000  0.5394970000000  0.4286610000000 1.0
C      1  0.4446480000000  0.3963700000000  0.5053680000000 1.0
C      1  0.4362420000000  0.5553450000000  0.5928230000000 1.0
C      1  0.4406950000000  0.5611720000000  0.4084820000000 1.0
C      1  0.5516910000000  0.4480950000000  0.4929670000000 1.0
C      1  0.5443580000000  0.5228680000000  0.5512880000000 1.0
C      1  0.5511950000000  0.5278150000000  0.4497670000000 1.0
C      1  0.4454860000000  0.4510370000000  0.4777200000000 1.0
C      1  0.4335430000000  0.5010200000000  0.5604780000000 1.0
C      1  0.4378540000000  0.5457350000000  0.4723850000000 1.0
C      1  0.4472640000000  0.4578650000000  0.5362040000000 1.0
C      1  0.4480090000000  0.5447730000000  0.5245140000000 1.0
C      1  0.4486790000000  0.4979390000000  0.4476480000000 1.0
C      1  0.5118600000000  0.4950790000000  0.5778730000000 1.0
C      1  0.5120050000000  0.5620120000000  0.4682630000000 1.0
C      1  0.5152880000000  0.4400030000000  0.4557500000000 1.0
C      1  0.5335330000000  0.5317520000000  0.5822770000000 1.0
C      1  0.5422060000000  0.5528430000000  0.4285720000000 1.0
C      1  0.5353940000000  0.4197200000000  0.4836510000000 1.0
C      1  0.5627550000000  0.5349730000000  0.4086910000000 1.0
C      1  0.5629200000000  0.4102870000000  0.5108020000000 1.0
C      1  0.5606920000000  0.5509220000000  0.5745310000000 1.0
C      1  0.4768170000000  0.5908520000000  0.4533660000000 1.0
C      1  0.4835300000000  0.4184380000000  0.4456690000000 1.0
C      1  0.4803250000000  0.4984850000000  0.6018650000000 1.0
C      1  0.5584400000000  0.4883430000000  0.4784910000000 1.0
C      1  0.5504740000000  0.4849890000000  0.5120610000000 1.0
C      1  0.5626780000000  0.5143630000000  0.4999860000000 1.0
C      1  0.5228980000000  0.4012160000000  0.5063020000000 1.0
C      1  0.5170570000000  0.5603030000000  0.5906090000000 1.0
C      1  0.5188370000000  0.5500220000000  0.4071500000000 1.0
C      1  0.4174610000000  0.5433340000000  0.4987380000000 1.0
C      1  0.4016200000000  0.4759680000000  0.4437660000000 1.0
C      1  0.4139420000000  0.4771010000000  0.5466120000000 1.0
C      1  0.5380320000000  0.5842610000000  0.5328200000000 1.0
C      1  0.5288400000000  0.4807860000000  0.3988930000000 1.0
C      1  0.5267380000000  0.4232300000000  0.5566180000000 1.0
C      1  0.5824370000000  0.4836730000000  0.5236130000000 1.0
C      1  0.5937220000000  0.5279070000000  0.5033200000000 1.0
C      1  0.5917960000000  0.4879700000000  0.4736770000000 1.0
C      1  0.5121970000000  0.5879040000000  0.4903120000000 1.0
C      1  0.5189350000000  0.4399070000000  0.4233470000000 1.0
C      1  0.4989810000000  0.4653770000000  0.5676780000000 1.0
C      1  0.5125040000000  0.5042240000000  0.4703010000000 1.0
C      1  0.5168340000000  0.4814470000000  0.5086060000000 1.0
C      1  0.5162650000000  0.5195540000000  0.5205970000000 1.0
C      1  0.3967150000000  0.4751460000000  0.5198460000000 1.0
C      1  0.3991880000000  0.5207350000000  0.5099820000000 1.0
C      1  0.3992410000000  0.4895450000000  0.4739990000000 1.0
C      1  0.4408790000000  0.5120520000000  0.5305920000000 1.0
C      1  0.4472920000000  0.5152900000000  0.4768590000000 1.0
C      1  0.4425750000000  0.4659070000000  0.5059080000000 1.0
C      1  0.5332970000000  0.5656750000000  0.5612240000000 1.0
C      1  0.5325540000000  0.5190150000000  0.4097170000000 1.0
C      1  0.5377920000000  0.4204050000000  0.5278460000000 1.0
C      1  0.5266320000000  0.5080740000000  0.4413670000000 1.0
C      1  0.5287630000000  0.4516230000000  0.5178400000000 1.0
C      1  0.5209650000000  0.5423970000000  0.5413050000000 1.0
C      1  0.5641220000000  0.5800600000000  0.4891370000000 1.0
C      1  0.5666500000000  0.4557160000000  0.4276430000000 1.0
C      1  0.5604920000000  0.4650420000000  0.5774320000000 1.0
C      1  0.6127360000000  0.4782530000000  0.5282670000000 1.0
C      1  0.6198150000000  0.5167950000000  0.5093480000000 1.0
C      1  0.6220320000000  0.4878760000000  0.4703000000000 1.0
C      1  0.5438300000000  0.4507490000000  0.4599900000000 1.0
C      1  0.5381770000000  0.4934730000000  0.5602540000000 1.0
C      1  0.5410560000000  0.5523860000000  0.4684520000000 1.0
C      1  0.5922620000000  0.4565970000000  0.4493440000000 1.0
C      1  0.5850160000000  0.4828300000000  0.5632650000000 1.0
C      1  0.5959270000000  0.5724950000000  0.4844020000000 1.0
C      1  0.4628120000000  0.4727590000000  0.4607280000000 1.0
C      1  0.4797610000000  0.4639570000000  0.5441580000000 1.0
C      1  0.4852140000000  0.5356550000000  0.5013060000000 1.0
C      1  0.5050680000000  0.5039150000000  0.3965700000000 1.0
C      1  0.5004090000000  0.4137990000000  0.5610400000000 1.0
C      1  0.5082470000000  0.5852880000000  0.5492050000000 1.0
C      1  0.5616060000000  0.5750050000000  0.4556010000000 1.0
C      1  0.5652610000000  0.4277650000000  0.4469760000000 1.0
C      1  0.5568820000000  0.4973530000000  0.5874180000000 1.0
C      1  0.4683440000000  0.5327880000000  0.5490200000000 1.0
C      1  0.4676070000000  0.5259940000000  0.4442660000000 1.0
C      1  0.4775990000000  0.4470030000000  0.5019700000000 1.0
C      1  0.5868920000000  0.4301910000000  0.4991200000000 1.0
C      1  0.5817910000000  0.5366060000000  0.5530070000000 1.0
C      1  0.5908400000000  0.5368190000000  0.4525880000000 1.0
C      1  0.4111370000000  0.5279150000000  0.4322330000000 1.0
C      1  0.4223100000000  0.4292140000000  0.5039790000000 1.0
C      1  0.4097140000000  0.5483540000000  0.5621570000000 1.0
C      1  0.4974740000000  0.5705390000000  0.4420100000000 1.0
C      1  0.5029330000000  0.4142850000000  0.4742570000000 1.0
C      1  0.5030480000000  0.5232280000000  0.5948120000000 1.0
C      1  0.4769980000000  0.5207730000000  0.4058110000000 1.0
C      1  0.4822550000000  0.4160740000000  0.5358670000000 1.0
C      1  0.4830050000000  0.5685780000000  0.5571420000000 1.0
C      1  0.4488930000000  0.5043030000000  0.4060360000000 1.0
C      1  0.4517140000000  0.4199470000000  0.5474340000000 1.0
C      1  0.4531010000000  0.5794640000000  0.5511120000000 1.0
C      1  0.5876300000000  0.5494920000000  0.5267410000000 1.0
C      1  0.5784580000000  0.5090360000000  0.4510040000000 1.0
C      1  0.5728430000000  0.4526510000000  0.5196060000000 1.0
C      1  0.4894160000000  0.4747020000000  0.3963070000000 1.0
C      1  0.4869950000000  0.4214090000000  0.5849270000000 1.0
C      1  0.5019680000000  0.5973930000000  0.5217780000000 1.0
C      1  0.5330730000000  0.4144690000000  0.4133260000000 1.0
C      1  0.5309500000000  0.4530360000000  0.6019280000000 1.0
C      1  0.5313630000000  0.6102360000000  0.4753250000000 1.0
C      1  0.4762880000000  0.5944230000000  0.5066710000000 1.0
C      1  0.4743010000000  0.4598280000000  0.4138340000000 1.0
C      1  0.4712470000000  0.4449450000000  0.5878610000000 1.0
C      1  0.5431180000000  0.4699360000000  0.5417730000000 1.0
C      1  0.5426190000000  0.5387990000000  0.4974920000000 1.0
C      1  0.5446180000000  0.4810950000000  0.4490960000000 1.0
C      1  0.4514120000000  0.5781870000000  0.5187510000000 1.0
C      1  0.4481300000000  0.4755820000000  0.4220190000000 1.0
C      1  0.4469190000000  0.4462270000000  0.5681940000000 1.0
C      1  0.4869900000000  0.5519810000000  0.5855630000000 1.0
C      1  0.4894410000000  0.5510140000000  0.4152950000000 1.0
C      1  0.4924650000000  0.4051010000000  0.5053240000000 1.0
C      1  0.4825590000000  0.5995610000000  0.4784000000000 1.0
C      1  0.4880090000000  0.4390140000000  0.4265520000000 1.0
C      1  0.4846600000000  0.4708840000000  0.5962980000000 1.0
C      1  0.4598900000000  0.5638160000000  0.4538360000000 1.0
C      1  0.4648250000000  0.4250030000000  0.4697120000000 1.0
C      1  0.4594270000000  0.5088510000000  0.5797960000000 1.0
C      1  0.5984640000000  0.5455930000000  0.4775330000000 1.0
C      1  0.5817400000000  0.4559880000000  0.4791300000000 1.0
C      1  0.5732320000000  0.5063440000000  0.5459950000000 1.0
C      1  0.4679500000000  0.4922750000000  0.5294320000000 1.0
C      1  0.4667220000000  0.5105290000000  0.5007510000000 1.0
C      1  0.4704070000000  0.4787560000000  0.4921450000000 1.0
C      1  0.5015910000000  0.4954060000000  0.5333340000000 1.0
C      1  0.5136960000000  0.5263970000000  0.4895710000000 1.0
C      1  0.5025140000000  0.4793920000000  0.4827710000000 1.0
C      1  0.5665180000000  0.4148360000000  0.4766430000000 1.0
C      1  0.5746040000000  0.5211590000000  0.5830270000000 1.0
C      1  0.5757880000000  0.5547810000000  0.4335290000000 1.0
C      1  0.4200530000000  0.4585980000000  0.4311680000000 1.0
C      1  0.4216370000000  0.4591150000000  0.5845160000000 1.0
C      1  0.4270820000000  0.5873860000000  0.4991030000000 1.0
C      1  0.4828820000000  0.5444110000000  0.4685200000000 1.0
C      1  0.4872290000000  0.4507490000000  0.4694380000000 1.0
C      1  0.4862600000000  0.5089610000000  0.5603070000000 1.0
C      1  0.4148660000000  0.5419900000000  0.5316070000000 1.0
C      1  0.4156290000000  0.5038360000000  0.4492070000000 1.0
C      1  0.4153480000000  0.4486310000000  0.5289470000000 1.0
C      1  0.5509360000000  0.6047380000000  0.4605860000000 1.0
C      1  0.5545230000000  0.4079130000000  0.4251760000000 1.0
C      1  0.5306400000000  0.4820720000000  0.6030580000000 1.0
C      1  0.3960850000000  0.4949330000000  0.5006030000000 1.0
END
