TITL C-3289332-8317-73 0.00309402442498142 125000 -727.624627484394 0 0 129 (C1) n - 1
REM
REM in /nfs/bkarasulu/CARBON/AIRSS/Generating-Clusters/AIREBO/with-SteepDescent/Higher-Symm/SD-CG/HFTN-CG
REM
REM
REM
REM
REM
REM ./C.cell (b20cbc046b6831c77cfcea5457e17084)
REM
REM compiler GCC version 9.2.1 20190827 (Red Hat 9.2.1-1)
REM options -cpp -mtune=generic -march=x86-64 -g -O0 -fpre-include=/usr/include/finclude/math-vector-fortran.h
REM seed 364542756 68593397 1582354275 -1591194251 -1684308574 1488673501 1637797832 -816210984 597566103 -809605810 -686255063 -764805485 -1223907268 1954313629 -1745073240 -2105098493 -325438387 1305097894 131831489 1535341784 -2113406426 -1153422046 1755102170 -99117327 -1860851683 229326376 22673103 -899960926 -120968369 -1103229383 953463 -1226566346 2086269009
REM
CELL 1.54180   50.00000   50.00000   50.00000   90.00000   90.00000   90.00000
LATT -1
SFAC C  
C      1  0.5654610000000  0.4790920000000  0.5717060000000 1.0
C      1  0.5648800000000  0.4478890000000  0.4504090000000 1.0
C      1  0.5671090000000  0.5651080000000  0.4779550000000 1.0
C      1  0.5727580000000  0.4696180000000  0.4336130000000 1.0
C      1  0.5776040000000  0.4543920000000  0.5621250000000 1.0
C      1  0.5702780000000  0.5704460000000  0.5080350000000 1.0
C      1  0.4529770000000  0.4270640000000  0.4828000000000 1.0
C      1  0.4436390000000  0.5494320000000  0.4428160000000 1.0
C      1  0.4567830000000  0.5185840000000  0.5680770000000 1.0
C      1  0.4545110000000  0.4304140000000  0.5132010000000 1.0
C      1  0.4520700000000  0.5513170000000  0.5601380000000 1.0
C      1  0.4474050000000  0.5231050000000  0.4281340000000 1.0
C      1  0.5331620000000  0.5601820000000  0.4245550000000 1.0
C      1  0.5368400000000  0.5293780000000  0.5909400000000 1.0
C      1  0.5377880000000  0.4030880000000  0.4878340000000 1.0
C      1  0.5390000000000  0.5595950000000  0.5781670000000 1.0
C      1  0.5425740000000  0.5316950000000  0.4099130000000 1.0
C      1  0.5353160000000  0.4055220000000  0.5212210000000 1.0
C      1  0.5075160000000  0.5351320000000  0.5772780000000 1.0
C      1  0.5062570000000  0.4045170000000  0.4797410000000 1.0
C      1  0.5001590000000  0.5539610000000  0.4298960000000 1.0
C      1  0.5118980000000  0.5311460000000  0.4089850000000 1.0
C      1  0.5064030000000  0.4057530000000  0.5116300000000 1.0
C      1  0.5078090000000  0.5664060000000  0.5728820000000 1.0
C      1  0.4214420000000  0.5505170000000  0.4682460000000 1.0
C      1  0.4301190000000  0.4984130000000  0.5586720000000 1.0
C      1  0.4316180000000  0.4428080000000  0.4679840000000 1.0
C      1  0.4343890000000  0.5601680000000  0.5360860000000 1.0
C      1  0.4297720000000  0.4996700000000  0.4394150000000 1.0
C      1  0.4303840000000  0.4414560000000  0.5294100000000 1.0
C      1  0.4493150000000  0.4847860000000  0.4802740000000 1.0
C      1  0.4372200000000  0.5274160000000  0.4962120000000 1.0
C      1  0.4423810000000  0.5103450000000  0.5318160000000 1.0
C      1  0.4413960000000  0.4857730000000  0.5120990000000 1.0
C      1  0.4248130000000  0.5359440000000  0.5244650000000 1.0
C      1  0.4451650000000  0.5126950000000  0.4665770000000 1.0
C      1  0.4209850000000  0.4679200000000  0.4829780000000 1.0
C      1  0.4085590000000  0.5215420000000  0.4806800000000 1.0
C      1  0.4078590000000  0.4908080000000  0.5331300000000 1.0
C      1  0.4167770000000  0.4646290000000  0.5156760000000 1.0
C      1  0.4043100000000  0.5136840000000  0.5139050000000 1.0
C      1  0.4099060000000  0.4945000000000  0.4651650000000 1.0
C      1  0.4738380000000  0.4034730000000  0.4693040000000 1.0
C      1  0.4738810000000  0.5656510000000  0.4441870000000 1.0
C      1  0.4828870000000  0.5215090000000  0.5902300000000 1.0
C      1  0.4837310000000  0.4180220000000  0.5255060000000 1.0
C      1  0.4749020000000  0.5742360000000  0.5706000000000 1.0
C      1  0.4689480000000  0.5145510000000  0.4036500000000 1.0
C      1  0.5498780000000  0.5942700000000  0.5181480000000 1.0
C      1  0.5564470000000  0.4371570000000  0.5760660000000 1.0
C      1  0.5520970000000  0.4746650000000  0.4097050000000 1.0
C      1  0.5445150000000  0.5895380000000  0.4841770000000 1.0
C      1  0.5438780000000  0.4349530000000  0.4370010000000 1.0
C      1  0.5423090000000  0.4728400000000  0.5871470000000 1.0
C      1  0.4799570000000  0.5532650000000  0.5430420000000 1.0
C      1  0.4798040000000  0.4510890000000  0.5199200000000 1.0
C      1  0.4806400000000  0.5193340000000  0.4331470000000 1.0
C      1  0.4631470000000  0.5480050000000  0.4693550000000 1.0
C      1  0.4829490000000  0.4360260000000  0.4729680000000 1.0
C      1  0.4841510000000  0.5031600000000  0.5549480000000 1.0
C      1  0.4930320000000  0.4732800000000  0.4131240000000 1.0
C      1  0.4990070000000  0.5758570000000  0.5126060000000 1.0
C      1  0.4879200000000  0.4447120000000  0.5584010000000 1.0
C      1  0.4899660000000  0.4749050000000  0.5729590000000 1.0
C      1  0.4905090000000  0.5749470000000  0.4793590000000 1.0
C      1  0.4945390000000  0.4489620000000  0.4370630000000 1.0
C      1  0.4362330000000  0.4456230000000  0.5566170000000 1.0
C      1  0.4365740000000  0.4742390000000  0.4263230000000 1.0
C      1  0.4399300000000  0.5784140000000  0.5157640000000 1.0
C      1  0.4374680000000  0.4471010000000  0.4411090000000 1.0
C      1  0.4372870000000  0.4707000000000  0.5694940000000 1.0
C      1  0.4285320000000  0.5719560000000  0.4865450000000 1.0
C      1  0.4637650000000  0.4646080000000  0.4168720000000 1.0
C      1  0.4678980000000  0.5895670000000  0.5132250000000 1.0
C      1  0.4579220000000  0.4304530000000  0.5655130000000 1.0
C      1  0.4588230000000  0.4717430000000  0.5862350000000 1.0
C      1  0.4582900000000  0.5856590000000  0.4812240000000 1.0
C      1  0.4639780000000  0.4361150000000  0.4294920000000 1.0
C      1  0.5078710000000  0.5554130000000  0.4627660000000 1.0
C      1  0.5099690000000  0.5242560000000  0.5479460000000 1.0
C      1  0.4993000000000  0.4620190000000  0.4685900000000 1.0
C      1  0.5143110000000  0.5474670000000  0.5234590000000 1.0
C      1  0.5023850000000  0.5226100000000  0.4562260000000 1.0
C      1  0.5101120000000  0.4485400000000  0.5329050000000 1.0
C      1  0.5365500000000  0.4859760000000  0.4377540000000 1.0
C      1  0.5436260000000  0.5618980000000  0.5273450000000 1.0
C      1  0.5340690000000  0.4442700000000  0.5549510000000 1.0
C      1  0.5210200000000  0.4744500000000  0.5627950000000 1.0
C      1  0.5360480000000  0.5640890000000  0.4641400000000 1.0
C      1  0.5256520000000  0.4543800000000  0.4314200000000 1.0
C      1  0.5786840000000  0.4721650000000  0.4901040000000 1.0
C      1  0.5823760000000  0.5190170000000  0.4870500000000 1.0
C      1  0.5798540000000  0.4991050000000  0.5297340000000 1.0
C      1  0.5820410000000  0.4735460000000  0.5178730000000 1.0
C      1  0.5849660000000  0.5221590000000  0.5150380000000 1.0
C      1  0.5851050000000  0.4943840000000  0.4741010000000 1.0
C      1  0.5563640000000  0.5133320000000  0.4331480000000 1.0
C      1  0.5588540000000  0.5520900000000  0.5524790000000 1.0
C      1  0.5511420000000  0.4340360000000  0.5273530000000 1.0
C      1  0.5574940000000  0.5258500000000  0.5687360000000 1.0
C      1  0.5561740000000  0.5449870000000  0.4444920000000 1.0
C      1  0.5527890000000  0.4291330000000  0.4951670000000 1.0
C      1  0.5763140000000  0.4512350000000  0.5341110000000 1.0
C      1  0.5782200000000  0.4942330000000  0.4466380000000 1.0
C      1  0.5806510000000  0.5471530000000  0.5274230000000 1.0
C      1  0.5562890000000  0.4546090000000  0.4793830000000 1.0
C      1  0.5592990000000  0.5009220000000  0.5516030000000 1.0
C      1  0.5596140000000  0.5338940000000  0.4752720000000 1.0
C      1  0.4834280000000  0.5338960000000  0.5191640000000 1.0
C      1  0.4743170000000  0.4777690000000  0.5104470000000 1.0
C      1  0.4786110000000  0.5105240000000  0.4718740000000 1.0
C      1  0.4682960000000  0.5306040000000  0.4937490000000 1.0
C      1  0.4814610000000  0.4815220000000  0.4806320000000 1.0
C      1  0.4728820000000  0.5052970000000  0.5265840000000 1.0
C      1  0.5277530000000  0.4693850000000  0.4833900000000 1.0
C      1  0.5346110000000  0.5191310000000  0.4826400000000 1.0
C      1  0.5284540000000  0.4966570000000  0.5378440000000 1.0
C      1  0.5214870000000  0.4727200000000  0.5146730000000 1.0
C      1  0.5269010000000  0.5182020000000  0.5115780000000 1.0
C      1  0.5231560000000  0.4967410000000  0.4638370000000 1.0
C      1  0.4809670000000  0.4112360000000  0.5561160000000 1.0
C      1  0.4999310000000  0.5040740000000  0.4019710000000 1.0
C      1  0.4963020000000  0.5831230000000  0.5457140000000 1.0
C      1  0.4984900000000  0.4174680000000  0.4492760000000 1.0
C      1  0.4913460000000  0.4959810000000  0.5996040000000 1.0
C      1  0.4774870000000  0.5962110000000  0.4561410000000 1.0
C      1  0.5204930000000  0.5983360000000  0.5051400000000 1.0
C      1  0.5237840000000  0.4802250000000  0.4003610000000 1.0
C      1  0.5464480000000  0.4471840000000  0.6033950000000 1.0
END
