TITL C-3289328-6581-505 -0.000863481427862665 125000 -904.190192447601 0 0 168 (C1) n - 1
REM
REM in /nfs/bkarasulu/CARBON/AIRSS/Generating-Clusters/AIREBO/with-SteepDescent/Higher-Symm/SD-CG/HFTN-CG
REM
REM
REM
REM
REM
REM ./C.cell (b20cbc046b6831c77cfcea5457e17084)
REM
REM compiler GCC version 9.2.1 20190827 (Red Hat 9.2.1-1)
REM options -cpp -mtune=generic -march=x86-64 -g -O0 -fpre-include=/usr/include/finclude/math-vector-fortran.h
REM seed 1795064906 1276254343 -1566434630 -1575399689 -1365056278 -2116297424 307226091 -532836845 194265427 -1792725095 1514527206 1667056906 -735992458 -1563139842 -481043741 -593191258 -328032585 271484151 401421337 -1444744260 -1932391991 2125079469 -918094320 -1558405561 -1139498086 773546160 -1779700314 -1263962510 -528661571 -708635702 668118054 1320341994 347605484
REM
CELL 1.54180   50.00000   50.00000   50.00000   90.00000   90.00000   90.00000
LATT -1
SFAC C  
C      1  0.5368420000000  0.4635780000000  0.5469390000000 1.0
C      1  0.5445000000000  0.4388010000000  0.5029640000000 1.0
C      1  0.5444920000000  0.4646990000000  0.4520480000000 1.0
C      1  0.5355990000000  0.5018760000000  0.4371870000000 1.0
C      1  0.5483530000000  0.5610790000000  0.4847400000000 1.0
C      1  0.5360580000000  0.5514990000000  0.5321750000000 1.0
C      1  0.5303800000000  0.5139080000000  0.5667210000000 1.0
C      1  0.4952480000000  0.4520530000000  0.5273640000000 1.0
C      1  0.4902850000000  0.4463580000000  0.4864520000000 1.0
C      1  0.4907100000000  0.4771700000000  0.4611210000000 1.0
C      1  0.5167750000000  0.5323840000000  0.4563350000000 1.0
C      1  0.4954660000000  0.5647600000000  0.4869910000000 1.0
C      1  0.4967490000000  0.5419290000000  0.5364400000000 1.0
C      1  0.4899040000000  0.4971580000000  0.5481110000000 1.0
C      1  0.4293610000000  0.5658690000000  0.5576450000000 1.0
C      1  0.4102340000000  0.5101540000000  0.5596140000000 1.0
C      1  0.4183100000000  0.4415770000000  0.5403610000000 1.0
C      1  0.4085990000000  0.4337850000000  0.4903650000000 1.0
C      1  0.4242900000000  0.4745530000000  0.4148140000000 1.0
C      1  0.4101100000000  0.5223010000000  0.4355560000000 1.0
C      1  0.4268990000000  0.5799010000000  0.4873490000000 1.0
C      1  0.4687000000000  0.5633400000000  0.5639770000000 1.0
C      1  0.4577440000000  0.4854790000000  0.5783740000000 1.0
C      1  0.4720700000000  0.4241850000000  0.5503170000000 1.0
C      1  0.4614550000000  0.4151620000000  0.4640010000000 1.0
C      1  0.4633640000000  0.4733920000000  0.4068020000000 1.0
C      1  0.4569320000000  0.5525510000000  0.4226890000000 1.0
C      1  0.4667760000000  0.5939880000000  0.4952500000000 1.0
C      1  0.5323160000000  0.4228300000000  0.4281770000000 1.0
C      1  0.5074570000000  0.5074230000000  0.3892190000000 1.0
C      1  0.5293260000000  0.5850790000000  0.4479590000000 1.0
C      1  0.5337670000000  0.6029180000000  0.5418390000000 1.0
C      1  0.5143580000000  0.5268840000000  0.6111790000000 1.0
C      1  0.5387580000000  0.4457280000000  0.5911190000000 1.0
C      1  0.5348460000000  0.3921700000000  0.5146520000000 1.0
C      1  0.4553630000000  0.4438730000000  0.5846640000000 1.0
C      1  0.4619650000000  0.4049910000000  0.5118800000000 1.0
C      1  0.4486490000000  0.4267260000000  0.4194110000000 1.0
C      1  0.4565980000000  0.5172150000000  0.3917810000000 1.0
C      1  0.4721640000000  0.5823400000000  0.4485490000000 1.0
C      1  0.4683950000000  0.5904720000000  0.5349380000000 1.0
C      1  0.4638610000000  0.5227160000000  0.5908750000000 1.0
C      1  0.4494210000000  0.4076190000000  0.4406680000000 1.0
C      1  0.4525690000000  0.4895490000000  0.3883350000000 1.0
C      1  0.4862860000000  0.5720690000000  0.4193600000000 1.0
C      1  0.4845140000000  0.6118990000000  0.5196680000000 1.0
C      1  0.4794560000000  0.5504120000000  0.5919150000000 1.0
C      1  0.4837460000000  0.4536250000000  0.6013740000000 1.0
C      1  0.4837990000000  0.3975700000000  0.5369180000000 1.0
C      1  0.5811120000000  0.4516060000000  0.4436310000000 1.0
C      1  0.5660490000000  0.5034830000000  0.4116020000000 1.0
C      1  0.5764520000000  0.5891500000000  0.4809150000000 1.0
C      1  0.5728400000000  0.5768400000000  0.5399990000000 1.0
C      1  0.5682250000000  0.5248790000000  0.5722010000000 1.0
C      1  0.5744410000000  0.4582890000000  0.5615170000000 1.0
C      1  0.5821730000000  0.4257700000000  0.5053820000000 1.0
C      1  0.5220890000000  0.5445730000000  0.4857010000000 1.0
C      1  0.5255760000000  0.5234750000000  0.5056970000000 1.0
C      1  0.5161620000000  0.5138340000000  0.5358320000000 1.0
C      1  0.5209180000000  0.4824860000000  0.5256790000000 1.0
C      1  0.5170710000000  0.4588750000000  0.5020630000000 1.0
C      1  0.5270160000000  0.4747520000000  0.4771000000000 1.0
C      1  0.5130410000000  0.5013900000000  0.4698270000000 1.0
C      1  0.5172180000000  0.4053270000000  0.5404720000000 1.0
C      1  0.5235200000000  0.4170110000000  0.4573590000000 1.0
C      1  0.5148090000000  0.4768300000000  0.3921450000000 1.0
C      1  0.5194910000000  0.5690030000000  0.4267470000000 1.0
C      1  0.5170980000000  0.6025850000000  0.5132310000000 1.0
C      1  0.5132550000000  0.5520490000000  0.5885850000000 1.0
C      1  0.5158590000000  0.4687480000000  0.5981120000000 1.0
C      1  0.5387630000000  0.4315440000000  0.5356930000000 1.0
C      1  0.5457890000000  0.4353560000000  0.4691970000000 1.0
C      1  0.5282810000000  0.4712380000000  0.4228690000000 1.0
C      1  0.5346230000000  0.5438120000000  0.4297420000000 1.0
C      1  0.5400750000000  0.5773800000000  0.5118300000000 1.0
C      1  0.5359530000000  0.5474170000000  0.5651910000000 1.0
C      1  0.5370530000000  0.4820350000000  0.5747450000000 1.0
C      1  0.4190900000000  0.5297510000000  0.4811220000000 1.0
C      1  0.4184360000000  0.5292680000000  0.5105060000000 1.0
C      1  0.4123060000000  0.5062600000000  0.5297440000000 1.0
C      1  0.4154350000000  0.4731820000000  0.5222840000000 1.0
C      1  0.4126630000000  0.4622280000000  0.4933390000000 1.0
C      1  0.4245020000000  0.4832520000000  0.4701760000000 1.0
C      1  0.4127190000000  0.5106120000000  0.4614260000000 1.0
C      1  0.4433010000000  0.5792220000000  0.4600980000000 1.0
C      1  0.4385170000000  0.5824430000000  0.5354760000000 1.0
C      1  0.4306800000000  0.5170300000000  0.5858950000000 1.0
C      1  0.4326220000000  0.4504860000000  0.5699000000000 1.0
C      1  0.4293490000000  0.4103680000000  0.5036870000000 1.0
C      1  0.4300150000000  0.4485220000000  0.4253870000000 1.0
C      1  0.4328280000000  0.5311540000000  0.4117560000000 1.0
C      1  0.4472850000000  0.4367040000000  0.4808860000000 1.0
C      1  0.4564360000000  0.4751410000000  0.4383290000000 1.0
C      1  0.4532360000000  0.5273770000000  0.4452590000000 1.0
C      1  0.4618420000000  0.5607210000000  0.4901200000000 1.0
C      1  0.4574630000000  0.5473450000000  0.5361410000000 1.0
C      1  0.4488760000000  0.5018350000000  0.5543150000000 1.0
C      1  0.4578330000000  0.4461190000000  0.5396410000000 1.0
C      1  0.4943910000000  0.4116930000000  0.4670050000000 1.0
C      1  0.4922260000000  0.4609150000000  0.4091150000000 1.0
C      1  0.4878290000000  0.5384230000000  0.4240510000000 1.0
C      1  0.4954370000000  0.6109540000000  0.4883660000000 1.0
C      1  0.5004560000000  0.5744920000000  0.5688330000000 1.0
C      1  0.4878620000000  0.4834700000000  0.5856140000000 1.0
C      1  0.5004860000000  0.4190040000000  0.5656770000000 1.0
C      1  0.5729180000000  0.4801510000000  0.4267100000000 1.0
C      1  0.5599590000000  0.5332610000000  0.4217190000000 1.0
C      1  0.5726660000000  0.5818080000000  0.5086570000000 1.0
C      1  0.5682010000000  0.5527920000000  0.5558530000000 1.0
C      1  0.5682210000000  0.4915750000000  0.5650610000000 1.0
C      1  0.5719900000000  0.4387550000000  0.5352720000000 1.0
C      1  0.5778510000000  0.4438120000000  0.4767340000000 1.0
C      1  0.5091600000000  0.3974710000000  0.5021260000000 1.0
C      1  0.5025400000000  0.4338620000000  0.4269490000000 1.0
C      1  0.5040620000000  0.5134000000000  0.4318350000000 1.0
C      1  0.5082640000000  0.5892790000000  0.4671970000000 1.0
C      1  0.5161450000000  0.5765890000000  0.5435770000000 1.0
C      1  0.5019620000000  0.5142310000000  0.5821450000000 1.0
C      1  0.5173200000000  0.4441310000000  0.5668760000000 1.0
C      1  0.5462810000000  0.5086730000000  0.4687540000000 1.0
C      1  0.5605000000000  0.5311490000000  0.4879270000000 1.0
C      1  0.5543790000000  0.5260700000000  0.5210430000000 1.0
C      1  0.5716560000000  0.5062470000000  0.5350420000000 1.0
C      1  0.5623840000000  0.4768210000000  0.5288170000000 1.0
C      1  0.5681560000000  0.4625760000000  0.5034760000000 1.0
C      1  0.5680130000000  0.4865480000000  0.4575810000000 1.0
C      1  0.4803690000000  0.5253940000000  0.5612330000000 1.0
C      1  0.4984820000000  0.4686620000000  0.5568830000000 1.0
C      1  0.4898900000000  0.4242020000000  0.5086020000000 1.0
C      1  0.4937710000000  0.4436770000000  0.4554790000000 1.0
C      1  0.5002210000000  0.4836810000000  0.4332630000000 1.0
C      1  0.4912380000000  0.5547690000000  0.4545930000000 1.0
C      1  0.4926780000000  0.5713840000000  0.5203600000000 1.0
C      1  0.4799480000000  0.4232440000000  0.5890590000000 1.0
C      1  0.4806660000000  0.3912890000000  0.4882730000000 1.0
C      1  0.4742460000000  0.4310190000000  0.4082900000000 1.0
C      1  0.4839710000000  0.5238630000000  0.3952610000000 1.0
C      1  0.4840540000000  0.6116230000000  0.4563310000000 1.0
C      1  0.4755980000000  0.5966140000000  0.5663860000000 1.0
C      1  0.4858510000000  0.5064040000000  0.6110530000000 1.0
C      1  0.6041870000000  0.5336760000000  0.5122430000000 1.0
C      1  0.6005380000000  0.5098900000000  0.5271140000000 1.0
C      1  0.6111870000000  0.4862550000000  0.5153390000000 1.0
C      1  0.5958930000000  0.4748470000000  0.4943080000000 1.0
C      1  0.5939300000000  0.4886460000000  0.4707780000000 1.0
C      1  0.6041180000000  0.5146690000000  0.4690280000000 1.0
C      1  0.5918940000000  0.5326400000000  0.4867680000000 1.0
C      1  0.4421800000000  0.5014980000000  0.4255180000000 1.0
C      1  0.4398450000000  0.5477870000000  0.4676370000000 1.0
C      1  0.4360580000000  0.5585570000000  0.5122060000000 1.0
C      1  0.4414460000000  0.5345150000000  0.5600810000000 1.0
C      1  0.4386130000000  0.4735320000000  0.5456220000000 1.0
C      1  0.4396510000000  0.4404410000000  0.5138570000000 1.0
C      1  0.4360470000000  0.4551260000000  0.4567750000000 1.0
C      1  0.4589350000000  0.4847660000000  0.4704710000000 1.0
C      1  0.4617580000000  0.5147250000000  0.4725250000000 1.0
C      1  0.4674140000000  0.5291350000000  0.4926690000000 1.0
C      1  0.4733190000000  0.5244960000000  0.5205320000000 1.0
C      1  0.4664390000000  0.4961900000000  0.5281510000000 1.0
C      1  0.4678200000000  0.4687970000000  0.5187850000000 1.0
C      1  0.4640550000000  0.4619520000000  0.4907080000000 1.0
C      1  0.5541420000000  0.4406370000000  0.4300370000000 1.0
C      1  0.5341620000000  0.5090530000000  0.4039780000000 1.0
C      1  0.5537020000000  0.5809260000000  0.4612200000000 1.0
C      1  0.5592360000000  0.6005090000000  0.5499740000000 1.0
C      1  0.5449350000000  0.5235160000000  0.5959320000000 1.0
C      1  0.5649770000000  0.4450110000000  0.5853620000000 1.0
C      1  0.5570120000000  0.4078730000000  0.5095710000000 1.0
END
