TITL C-3289331-6719-694 -0.0010668325298769 125000 -599.236863510514 0 0 113 (C1) n - 1
REM
REM in /nfs/bkarasulu/CARBON/AIRSS/Generating-Clusters/AIREBO/with-SteepDescent/Higher-Symm/SD-CG/HFTN-CG
REM
REM
REM
REM
REM
REM ./C.cell (b20cbc046b6831c77cfcea5457e17084)
REM
REM compiler GCC version 9.2.1 20190827 (Red Hat 9.2.1-1)
REM options -cpp -mtune=generic -march=x86-64 -g -O0 -fpre-include=/usr/include/finclude/math-vector-fortran.h
REM seed 1179195334 -1406119432 1768387674 -1619698927 1705001338 -267127625 -172837822 -415911140 867486889 -1831091536 1497556429 -564963909 1010171464 -1554796057 1629441830 -2145259577 -581915700 -1665015669 14553672 -1763775549 -1962076517 -563071978 1295805330 -103088304 -1519276258 700129016 1517975949 2070159240 -1120013080 174958981 -1141366559 1721885354 -1284214006
REM
CELL 1.54180   50.00000   50.00000   50.00000   90.00000   90.00000   90.00000
LATT -1
SFAC C  
C      1  0.4479410000000  0.5628510000000  0.5160880000000 1.0
C      1  0.5528940000000  0.5615930000000  0.4899010000000 1.0
C      1  0.4466600000000  0.4378830000000  0.5108360000000 1.0
C      1  0.5582290000000  0.4331150000000  0.4835180000000 1.0
C      1  0.5660440000000  0.5584400000000  0.5146900000000 1.0
C      1  0.4497410000000  0.5672190000000  0.4859610000000 1.0
C      1  0.5499220000000  0.4323440000000  0.5147020000000 1.0
C      1  0.4361410000000  0.4372510000000  0.4843640000000 1.0
C      1  0.4689440000000  0.4553710000000  0.5536270000000 1.0
C      1  0.5233030000000  0.4380890000000  0.4444230000000 1.0
C      1  0.4650160000000  0.5438860000000  0.5520660000000 1.0
C      1  0.5115120000000  0.5781610000000  0.4389960000000 1.0
C      1  0.5232360000000  0.4487440000000  0.5394160000000 1.0
C      1  0.4902590000000  0.4383870000000  0.4527790000000 1.0
C      1  0.5250510000000  0.5469410000000  0.5440070000000 1.0
C      1  0.4812540000000  0.5624090000000  0.4394870000000 1.0
C      1  0.5302030000000  0.5246910000000  0.4309370000000 1.0
C      1  0.4611910000000  0.5071940000000  0.5725290000000 1.0
C      1  0.5287910000000  0.4924340000000  0.4317550000000 1.0
C      1  0.4594000000000  0.4794510000000  0.5838590000000 1.0
C      1  0.4597650000000  0.5165950000000  0.4382380000000 1.0
C      1  0.5332250000000  0.5138360000000  0.5838230000000 1.0
C      1  0.4633870000000  0.4848740000000  0.4363690000000 1.0
C      1  0.5329250000000  0.4836750000000  0.5716420000000 1.0
C      1  0.4220060000000  0.4784490000000  0.4814310000000 1.0
C      1  0.5863860000000  0.4762370000000  0.5356650000000 1.0
C      1  0.4237960000000  0.5227290000000  0.4875640000000 1.0
C      1  0.5974360000000  0.4996470000000  0.5135850000000 1.0
C      1  0.5784120000000  0.4747200000000  0.4685650000000 1.0
C      1  0.4160980000000  0.4794690000000  0.5115030000000 1.0
C      1  0.5841780000000  0.5056060000000  0.4836970000000 1.0
C      1  0.4204460000000  0.5118160000000  0.5196700000000 1.0
C      1  0.4515480000000  0.5052200000000  0.4823210000000 1.0
C      1  0.5694570000000  0.5188220000000  0.5183590000000 1.0
C      1  0.4550900000000  0.4718480000000  0.4788070000000 1.0
C      1  0.5599560000000  0.4869210000000  0.5171230000000 1.0
C      1  0.5519710000000  0.5146650000000  0.4897740000000 1.0
C      1  0.4531780000000  0.5165690000000  0.5138180000000 1.0
C      1  0.5530350000000  0.4814270000000  0.4871540000000 1.0
C      1  0.4493890000000  0.4845520000000  0.5162450000000 1.0
C      1  0.5263240000000  0.5307410000000  0.4826760000000 1.0
C      1  0.4794640000000  0.5329090000000  0.5160980000000 1.0
C      1  0.5263570000000  0.4694290000000  0.4809450000000 1.0
C      1  0.4743980000000  0.4665950000000  0.5132820000000 1.0
C      1  0.4777260000000  0.5238720000000  0.4832780000000 1.0
C      1  0.5180470000000  0.5229500000000  0.5129100000000 1.0
C      1  0.4863100000000  0.4782340000000  0.4871710000000 1.0
C      1  0.5195100000000  0.4835270000000  0.5086420000000 1.0
C      1  0.5728490000000  0.5098940000000  0.4519120000000 1.0
C      1  0.4362910000000  0.5118600000000  0.5497660000000 1.0
C      1  0.5559670000000  0.4815890000000  0.4439670000000 1.0
C      1  0.4224820000000  0.4810270000000  0.5448680000000 1.0
C      1  0.4294500000000  0.5212170000000  0.4531960000000 1.0
C      1  0.5548280000000  0.5159510000000  0.5631050000000 1.0
C      1  0.4329330000000  0.4888640000000  0.4509550000000 1.0
C      1  0.5640800000000  0.4877900000000  0.5575450000000 1.0
C      1  0.5092250000000  0.5668830000000  0.4113450000000 1.0
C      1  0.4844610000000  0.5575510000000  0.5764590000000 1.0
C      1  0.5202570000000  0.4446630000000  0.4133210000000 1.0
C      1  0.4821040000000  0.4339010000000  0.5767000000000 1.0
C      1  0.4772650000000  0.5594650000000  0.4058490000000 1.0
C      1  0.5163450000000  0.5555770000000  0.5720690000000 1.0
C      1  0.4884850000000  0.4441860000000  0.4193210000000 1.0
C      1  0.5119170000000  0.4384560000000  0.5843660000000 1.0
C      1  0.4820960000000  0.4738170000000  0.4144470000000 1.0
C      1  0.5147610000000  0.4674120000000  0.5912560000000 1.0
C      1  0.4788520000000  0.5284710000000  0.4147130000000 1.0
C      1  0.5114800000000  0.5302710000000  0.5871290000000 1.0
C      1  0.5130190000000  0.4747030000000  0.4118760000000 1.0
C      1  0.4832480000000  0.4655520000000  0.5894770000000 1.0
C      1  0.5090370000000  0.5365520000000  0.4125690000000 1.0
C      1  0.4805640000000  0.5261850000000  0.5884800000000 1.0
C      1  0.5612590000000  0.5563540000000  0.4623860000000 1.0
C      1  0.4228490000000  0.5722860000000  0.5351920000000 1.0
C      1  0.5840920000000  0.4447820000000  0.4682740000000 1.0
C      1  0.4347900000000  0.4515100000000  0.5329630000000 1.0
C      1  0.4247590000000  0.5506960000000  0.4694840000000 1.0
C      1  0.5878760000000  0.5740860000000  0.5208640000000 1.0
C      1  0.4255650000000  0.4557350000000  0.4572140000000 1.0
C      1  0.5774030000000  0.4432290000000  0.5322780000000 1.0
C      1  0.5551330000000  0.5382170000000  0.5388250000000 1.0
C      1  0.4533310000000  0.5552830000000  0.4552340000000 1.0
C      1  0.5499280000000  0.4616760000000  0.5308730000000 1.0
C      1  0.4575630000000  0.4450980000000  0.4592720000000 1.0
C      1  0.4349510000000  0.5427930000000  0.5403730000000 1.0
C      1  0.5578250000000  0.5333400000000  0.4454010000000 1.0
C      1  0.4392410000000  0.4617120000000  0.5650920000000 1.0
C      1  0.5499860000000  0.4500580000000  0.4551920000000 1.0
C      1  0.4823150000000  0.4207030000000  0.4807600000000 1.0
C      1  0.5143420000000  0.4344170000000  0.5134330000000 1.0
C      1  0.4860590000000  0.5736560000000  0.4889110000000 1.0
C      1  0.5150220000000  0.5668710000000  0.5236880000000 1.0
C      1  0.5252710000000  0.4383900000000  0.4842680000000 1.0
C      1  0.4803080000000  0.4331240000000  0.5123980000000 1.0
C      1  0.5189220000000  0.5630930000000  0.4901200000000 1.0
C      1  0.4811680000000  0.5661410000000  0.5206010000000 1.0
C      1  0.5184340000000  0.4131370000000  0.4656850000000 1.0
C      1  0.4766860000000  0.4244940000000  0.5444790000000 1.0
C      1  0.5233020000000  0.5823110000000  0.4624130000000 1.0
C      1  0.4746100000000  0.5765050000000  0.5518730000000 1.0
C      1  0.4802940000000  0.3944590000000  0.4781120000000 1.0
C      1  0.5279480000000  0.4312810000000  0.5639280000000 1.0
C      1  0.4778070000000  0.5855540000000  0.4641530000000 1.0
C      1  0.5240730000000  0.5955760000000  0.5309370000000 1.0
C      1  0.5174140000000  0.4821910000000  0.5414910000000 1.0
C      1  0.4864770000000  0.4721460000000  0.4543970000000 1.0
C      1  0.5126840000000  0.5161710000000  0.5427780000000 1.0
C      1  0.4855910000000  0.5319080000000  0.4538980000000 1.0
C      1  0.4836590000000  0.4803280000000  0.5409090000000 1.0
C      1  0.5135220000000  0.4854170000000  0.4589240000000 1.0
C      1  0.4788910000000  0.5138340000000  0.5442560000000 1.0
C      1  0.5136300000000  0.5187170000000  0.4577900000000 1.0
C      1  0.4985370000000  0.5048780000000  0.4952610000000 1.0
END
