TITL C-3289324-3781-83 -1.2920174588346e-07 125000 -95.5938031399019 0 0 18 (C3) n - 1
REM
REM in /nfs/bkarasulu/CARBON/AIRSS/Generating-Clusters/AIREBO/with-SteepDescent/Higher-Symm/SD-CG/HFTN-CG
REM
REM
REM
REM
REM
REM ./C.cell (b20cbc046b6831c77cfcea5457e17084)
REM
REM compiler GCC version 9.2.1 20190827 (Red Hat 9.2.1-1)
REM options -cpp -mtune=generic -march=x86-64 -g -O0 -fpre-include=/usr/include/finclude/math-vector-fortran.h
REM seed -673095133 1547053904 553148433 -1470439884 -1718236276 -786194330 505683211 1078641942 648636045 -1838912794 1850980857 -829667255 -548802219 -116199779 -1015655250 1784422550 17365720 -1536739685 1790958070 -1720447136 1064022173 2026675864 -772462681 1172955101 2107575817 -1959568469 1019992828 -1046142300 1977248280 -385906938 -1089433478 1973414445 -1234632027
REM
CELL 1.54180   50.00000   50.00000   50.00000   90.00000   90.00000   90.00000
LATT -1
SFAC C  
C      1  0.4684160000000  0.4851660000000  0.5114830000000 1.0
C      1  0.4685300000000  0.4974800000000  0.4812180000000 1.0
C      1  0.4684910000000  0.5175340000000  0.5070150000000 1.0
C      1  0.5303730000000  0.5181410000000  0.5035390000000 1.0
C      1  0.5302830000000  0.4878570000000  0.5141280000000 1.0
C      1  0.5303890000000  0.4938290000000  0.4826070000000 1.0
C      1  0.4909300000000  0.4848630000000  0.4599920000000 1.0
C      1  0.4908980000000  0.5422190000000  0.5068390000000 1.0
C      1  0.4906870000000  0.4729700000000  0.5330870000000 1.0
C      1  0.5321370000000  0.4782190000000  0.4377180000000 1.0
C      1  0.5320780000000  0.5648200000000  0.5124750000000 1.0
C      1  0.5317590000000  0.4567780000000  0.5500950000000 1.0
C      1  0.4606960000000  0.5503960000000  0.5037080000000 1.0
C      1  0.4604320000000  0.4716010000000  0.5415480000000 1.0
C      1  0.4607070000000  0.4782280000000  0.4543890000000 1.0
C      1  0.5175790000000  0.4721770000000  0.5331020000000 1.0
C      1  0.5178250000000  0.4852400000000  0.4594630000000 1.0
C      1  0.5177890000000  0.5424820000000  0.5075950000000 1.0
END
