TITL C-3289325-7307-167 -0.000518633348844066 125000 -380.814473283584 0 0 64 (C1) n - 1
REM
REM in /nfs/bkarasulu/CARBON/AIRSS/Generating-Clusters/AIREBO/with-SteepDescent/Higher-Symm/SD-CG/HFTN-CG
REM
REM
REM
REM
REM
REM ./C.cell (b20cbc046b6831c77cfcea5457e17084)
REM
REM compiler GCC version 9.2.1 20190827 (Red Hat 9.2.1-1)
REM options -cpp -mtune=generic -march=x86-64 -g -O0 -fpre-include=/usr/include/finclude/math-vector-fortran.h
REM seed -699015379 -1971663280 15218138 -370650957 1061972305 174759120 412470852 -1641400984 -1279123043 -723834634 -1927280576 336639204 -1502157277 -1447913818 -690431175 196848311 -317627191 -1263473988 794311462 569632924 632128966 -1006752574 -1390247126 387575908 -748483351 1971744040 1169802402 -999114430 2083805741 -1311940904 -1496708707 110633999 588205671
REM
CELL 1.54180   50.00000   50.00000   50.00000   90.00000   90.00000   90.00000
LATT -1
SFAC C  
C      1  0.5588950000000  0.5019790000000  0.5471090000000 1.0
C      1  0.5745070000000  0.4946990000000  0.4822920000000 1.0
C      1  0.5238880000000  0.5006450000000  0.4408110000000 1.0
C      1  0.4702250000000  0.5007540000000  0.4243750000000 1.0
C      1  0.4356520000000  0.5043000000000  0.4797170000000 1.0
C      1  0.4333250000000  0.5051220000000  0.5491360000000 1.0
C      1  0.4972940000000  0.5017050000000  0.5848380000000 1.0
C      1  0.4600440000000  0.4980670000000  0.5016800000000 1.0
C      1  0.4986550000000  0.4854810000000  0.5344790000000 1.0
C      1  0.5126590000000  0.4822110000000  0.5639290000000 1.0
C      1  0.5371420000000  0.4865840000000  0.4939470000000 1.0
C      1  0.5503070000000  0.4818710000000  0.4642520000000 1.0
C      1  0.4949550000000  0.4948450000000  0.4577910000000 1.0
C      1  0.4855240000000  0.4839820000000  0.4861930000000 1.0
C      1  0.4660600000000  0.5260520000000  0.5186250000000 1.0
C      1  0.4873550000000  0.5156360000000  0.5386610000000 1.0
C      1  0.5181760000000  0.5276220000000  0.5321020000000 1.0
C      1  0.5307310000000  0.5190730000000  0.5016940000000 1.0
C      1  0.5212620000000  0.5360040000000  0.4756660000000 1.0
C      1  0.4950160000000  0.5275950000000  0.4571490000000 1.0
C      1  0.4680860000000  0.5390300000000  0.4663620000000 1.0
C      1  0.4776270000000  0.4738450000000  0.4390600000000 1.0
C      1  0.4383010000000  0.4726260000000  0.4799830000000 1.0
C      1  0.4472280000000  0.4832810000000  0.5298060000000 1.0
C      1  0.4751020000000  0.4773940000000  0.5763550000000 1.0
C      1  0.5556440000000  0.4736290000000  0.5432420000000 1.0
C      1  0.5816750000000  0.4707950000000  0.5007640000000 1.0
C      1  0.5319670000000  0.4699260000000  0.4381110000000 1.0
C      1  0.5331610000000  0.4543310000000  0.5039650000000 1.0
C      1  0.5289920000000  0.4387420000000  0.4780020000000 1.0
C      1  0.5035940000000  0.4402580000000  0.4657600000000 1.0
C      1  0.4808980000000  0.4517210000000  0.4807920000000 1.0
C      1  0.4678820000000  0.4460810000000  0.5076340000000 1.0
C      1  0.4852850000000  0.4544130000000  0.5309010000000 1.0
C      1  0.5168910000000  0.4501750000000  0.5299770000000 1.0
C      1  0.4883860000000  0.5671040000000  0.5299390000000 1.0
C      1  0.5154790000000  0.5585320000000  0.5296750000000 1.0
C      1  0.5306400000000  0.5703160000000  0.5087860000000 1.0
C      1  0.5203670000000  0.5652660000000  0.4827890000000 1.0
C      1  0.4949800000000  0.5767110000000  0.4770200000000 1.0
C      1  0.4726160000000  0.5603820000000  0.4842460000000 1.0
C      1  0.4712820000000  0.5542280000000  0.5114620000000 1.0
C      1  0.5670090000000  0.5178690000000  0.4602860000000 1.0
C      1  0.5162360000000  0.5137250000000  0.4116690000000 1.0
C      1  0.4459270000000  0.5125740000000  0.4326020000000 1.0
C      1  0.4199170000000  0.5179810000000  0.5029730000000 1.0
C      1  0.4489910000000  0.5142560000000  0.5706530000000 1.0
C      1  0.5259020000000  0.5158810000000  0.5807010000000 1.0
C      1  0.5739810000000  0.5154420000000  0.5274260000000 1.0
C      1  0.5303030000000  0.4630660000000  0.5516280000000 1.0
C      1  0.5617930000000  0.4627990000000  0.5174320000000 1.0
C      1  0.5483250000000  0.4490770000000  0.4588050000000 1.0
C      1  0.5041320000000  0.4550190000000  0.4405500000000 1.0
C      1  0.4574470000000  0.4623880000000  0.4610270000000 1.0
C      1  0.4431910000000  0.4621340000000  0.5062640000000 1.0
C      1  0.4662030000000  0.4699050000000  0.5516560000000 1.0
C      1  0.4758100000000  0.5163830000000  0.5674900000000 1.0
C      1  0.5362100000000  0.5167330000000  0.5554880000000 1.0
C      1  0.5630520000000  0.5157820000000  0.5025650000000 1.0
C      1  0.5400900000000  0.5208380000000  0.4558460000000 1.0
C      1  0.4916650000000  0.5190180000000  0.4261340000000 1.0
C      1  0.4461680000000  0.5227120000000  0.4589510000000 1.0
C      1  0.4353750000000  0.5211130000000  0.5249290000000 1.0
C      1  0.5080130000000  0.4864400000000  0.5057040000000 1.0
END
