TITL C-3289321-8710-21 12.4839100924676 125000 -223.942837005661 0 0 41 (D3) n - 1
REM
REM in /nfs/bkarasulu/CARBON/AIRSS/Generating-Clusters/AIREBO/with-SteepDescent/Higher-Symm/SD-CG/HFTN-CG
REM
REM
REM
REM
REM
REM ./C.cell (b20cbc046b6831c77cfcea5457e17084)
REM
REM compiler GCC version 9.2.1 20190827 (Red Hat 9.2.1-1)
REM options -cpp -mtune=generic -march=x86-64 -g -O0 -fpre-include=/usr/include/finclude/math-vector-fortran.h
REM seed 1567115035 -1137251408 539173582 -605216633 823466855 1130694261 651670341 -1767770880 1005457467 56857970 -1112271097 653302169 860233235 -1781709865 497548536 -1802265530 1562126017 1224246851 -1411676752 1203589747 -1499639528 -1569415091 1613474487 1637160350 -249152996 -899475747 1657868423 -257288002 1262630192 -386140640 -1664917072 -15937222 331386768
REM
CELL 1.54180   50.00000   50.00000   50.00000   90.00000   90.00000   90.00000
LATT -1
SFAC C  
C      1  0.5596340000000  0.5402240000000  0.4847400000000 1.0
C      1  0.4840110000000  0.5402680000000  0.5590600000000 1.0
C      1  0.4574610000000  0.5402950000000  0.4564090000000 1.0
C      1  0.4410490000000  0.4541360000000  0.4847170000000 1.0
C      1  0.5166520000000  0.4540780000000  0.5590570000000 1.0
C      1  0.5432300000000  0.4540690000000  0.4564140000000 1.0
C      1  0.4890710000000  0.5153330000000  0.4840530000000 1.0
C      1  0.5198620000000  0.5153100000000  0.4983060000000 1.0
C      1  0.4921230000000  0.5153280000000  0.5178450000000 1.0
C      1  0.5116120000000  0.4790270000000  0.4840530000000 1.0
C      1  0.4808170000000  0.4790470000000  0.4982970000000 1.0
C      1  0.5085510000000  0.4790260000000  0.5178440000000 1.0
C      1  0.4443610000000  0.5224730000000  0.4690130000000 1.0
C      1  0.5552490000000  0.5223980000000  0.4671020000000 1.0
C      1  0.5014600000000  0.5224260000000  0.5640890000000 1.0
C      1  0.5563260000000  0.4718890000000  0.4690240000000 1.0
C      1  0.4454390000000  0.4719650000000  0.4670830000000 1.0
C      1  0.4992020000000  0.4719200000000  0.5640850000000 1.0
C      1  0.5001020000000  0.4310640000000  0.4718760000000 1.0
C      1  0.5248000000000  0.4310440000000  0.5139860000000 1.0
C      1  0.4759820000000  0.4310770000000  0.5143200000000 1.0
C      1  0.5005860000000  0.5632970000000  0.4718870000000 1.0
C      1  0.4758760000000  0.5633100000000  0.5139900000000 1.0
C      1  0.5246930000000  0.5632770000000  0.5143380000000 1.0
C      1  0.4884530000000  0.5374290000000  0.4598220000000 1.0
C      1  0.5411800000000  0.5373890000000  0.5098750000000 1.0
C      1  0.4714680000000  0.5374340000000  0.5305120000000 1.0
C      1  0.5122380000000  0.4569340000000  0.4598180000000 1.0
C      1  0.4594960000000  0.4569660000000  0.5098570000000 1.0
C      1  0.5292030000000  0.4569170000000  0.5305130000000 1.0
C      1  0.4540630000000  0.5094610000000  0.5285850000000 1.0
C      1  0.4987930000000  0.5094380000000  0.4457250000000 1.0
C      1  0.5481860000000  0.5093970000000  0.5258900000000 1.0
C      1  0.5466080000000  0.4848900000000  0.5285950000000 1.0
C      1  0.5019020000000  0.4849280000000  0.4457250000000 1.0
C      1  0.4524860000000  0.4849550000000  0.5258750000000 1.0
C      1  0.4613450000000  0.4972070000000  0.4775460000000 1.0
C      1  0.5003330000000  0.4971740000000  0.5450970000000 1.0
C      1  0.5393400000000  0.4971540000000  0.4775560000000 1.0
C      1  0.5002920000000  0.4271260000000  0.5000600000000 1.0
C      1  0.5003870000000  0.5672300000000  0.5000720000000 1.0
END
