TITL C-3289333-7213-209 0.00164932596556276 125000 -896.402305876345 0 0 165 (C1) n - 1
REM
REM in /nfs/bkarasulu/CARBON/AIRSS/Generating-Clusters/AIREBO/with-SteepDescent/Higher-Symm/SD-CG/HFTN-CG
REM
REM
REM
REM
REM
REM ./C.cell (b20cbc046b6831c77cfcea5457e17084)
REM
REM compiler GCC version 9.2.1 20190827 (Red Hat 9.2.1-1)
REM options -cpp -mtune=generic -march=x86-64 -g -O0 -fpre-include=/usr/include/finclude/math-vector-fortran.h
REM seed 1420477434 1310657792 1777178213 2028465693 -1218725822 2114778901 -2056085242 1156380831 367293449 -1284825295 -1998371377 1827639809 491974478 803499806 -1945550846 1102936771 -1553369557 -673126015 -1682806746 1518267899 88718158 292147149 946816936 -455856542 -614077902 -1028905105 564635133 -642299062 -1216344686 789232633 1819072731 146217200 -1723204749
REM
CELL 1.54180   50.00000   50.00000   50.00000   90.00000   90.00000   90.00000
LATT -1
SFAC C  
C      1  0.5503540000000  0.4420470000000  0.4839070000000 1.0
C      1  0.4452070000000  0.5646840000000  0.5224690000000 1.0
C      1  0.4488910000000  0.4618330000000  0.4977690000000 1.0
C      1  0.5311770000000  0.5426240000000  0.5033020000000 1.0
C      1  0.4743290000000  0.5021950000000  0.4733240000000 1.0
C      1  0.5215530000000  0.4946770000000  0.5322520000000 1.0
C      1  0.5134440000000  0.5374500000000  0.5428050000000 1.0
C      1  0.4879720000000  0.4630460000000  0.4546970000000 1.0
C      1  0.5214200000000  0.4340870000000  0.4699600000000 1.0
C      1  0.4757660000000  0.5654700000000  0.5274410000000 1.0
C      1  0.5287410000000  0.5466090000000  0.4543110000000 1.0
C      1  0.4669860000000  0.4596080000000  0.5477680000000 1.0
C      1  0.4319970000000  0.4539670000000  0.4693020000000 1.0
C      1  0.5666730000000  0.5451330000000  0.5409050000000 1.0
C      1  0.5035070000000  0.4266970000000  0.5805390000000 1.0
C      1  0.4977580000000  0.5658130000000  0.4167330000000 1.0
C      1  0.4691630000000  0.4063610000000  0.5017640000000 1.0
C      1  0.5315210000000  0.5900600000000  0.5073460000000 1.0
C      1  0.5748150000000  0.5553610000000  0.4793530000000 1.0
C      1  0.4121380000000  0.4484580000000  0.5312510000000 1.0
C      1  0.5456500000000  0.4966080000000  0.4299110000000 1.0
C      1  0.4554770000000  0.5077360000000  0.5648580000000 1.0
C      1  0.4586430000000  0.5250540000000  0.4930330000000 1.0
C      1  0.5388810000000  0.4808900000000  0.5079620000000 1.0
C      1  0.4893700000000  0.5369980000000  0.4846900000000 1.0
C      1  0.5081050000000  0.4560530000000  0.5138590000000 1.0
C      1  0.5860920000000  0.5054880000000  0.5635330000000 1.0
C      1  0.4147570000000  0.4899580000000  0.4365310000000 1.0
C      1  0.4865790000000  0.5534990000000  0.5564330000000 1.0
C      1  0.5145090000000  0.4479710000000  0.4397000000000 1.0
C      1  0.4368550000000  0.5336280000000  0.5180710000000 1.0
C      1  0.5534320000000  0.4750090000000  0.4777930000000 1.0
C      1  0.4725510000000  0.4836670000000  0.5714130000000 1.0
C      1  0.5280000000000  0.5227660000000  0.4300760000000 1.0
C      1  0.4066940000000  0.5215990000000  0.4461460000000 1.0
C      1  0.5911700000000  0.4754370000000  0.5487940000000 1.0
C      1  0.5134940000000  0.4622990000000  0.5946550000000 1.0
C      1  0.4808600000000  0.5365160000000  0.4005960000000 1.0
C      1  0.5958980000000  0.5411530000000  0.5239850000000 1.0
C      1  0.4000970000000  0.4577910000000  0.4798620000000 1.0
C      1  0.5719120000000  0.4306950000000  0.5580510000000 1.0
C      1  0.4300280000000  0.5670900000000  0.4330700000000 1.0
C      1  0.5561370000000  0.5046000000000  0.4612650000000 1.0
C      1  0.4491940000000  0.5070840000000  0.5324180000000 1.0
C      1  0.4330890000000  0.4230830000000  0.5057860000000 1.0
C      1  0.5746540000000  0.5772310000000  0.5019700000000 1.0
C      1  0.4907480000000  0.5669920000000  0.6010950000000 1.0
C      1  0.5093570000000  0.4340120000000  0.4012540000000 1.0
C      1  0.4042240000000  0.4935210000000  0.5110200000000 1.0
C      1  0.5948170000000  0.5084550000000  0.4850090000000 1.0
C      1  0.4383790000000  0.4524930000000  0.5647390000000 1.0
C      1  0.5712060000000  0.5641670000000  0.4363640000000 1.0
C      1  0.5448670000000  0.4077540000000  0.5036910000000 1.0
C      1  0.4591070000000  0.5931520000000  0.4907930000000 1.0
C      1  0.4663170000000  0.5515420000000  0.4643160000000 1.0
C      1  0.5258800000000  0.4379420000000  0.5365110000000 1.0
C      1  0.4436960000000  0.4486970000000  0.5254810000000 1.0
C      1  0.5427340000000  0.5555870000000  0.4790870000000 1.0
C      1  0.4357760000000  0.5399140000000  0.4758480000000 1.0
C      1  0.5482380000000  0.4523000000000  0.5177010000000 1.0
C      1  0.4597190000000  0.4586120000000  0.5870530000000 1.0
C      1  0.5494300000000  0.5473650000000  0.4204130000000 1.0
C      1  0.4898560000000  0.5366140000000  0.5183240000000 1.0
C      1  0.5102750000000  0.4642850000000  0.4809100000000 1.0
C      1  0.5362990000000  0.4073670000000  0.5340140000000 1.0
C      1  0.4671060000000  0.5847030000000  0.4618560000000 1.0
C      1  0.5838670000000  0.4659340000000  0.4646070000000 1.0
C      1  0.4094630000000  0.5374320000000  0.5385740000000 1.0
C      1  0.5763180000000  0.5046790000000  0.4270150000000 1.0
C      1  0.4252900000000  0.5004340000000  0.5688590000000 1.0
C      1  0.5212310000000  0.5700580000000  0.4369680000000 1.0
C      1  0.4792680000000  0.4334270000000  0.5620240000000 1.0
C      1  0.4487200000000  0.4093450000000  0.5290590000000 1.0
C      1  0.5519620000000  0.5878940000000  0.4802470000000 1.0
C      1  0.5664760000000  0.4398240000000  0.4540510000000 1.0
C      1  0.4292250000000  0.5593970000000  0.5476730000000 1.0
C      1  0.5096160000000  0.3903330000000  0.5283990000000 1.0
C      1  0.4971730000000  0.5978530000000  0.4686360000000 1.0
C      1  0.4653570000000  0.5357600000000  0.5744050000000 1.0
C      1  0.5360150000000  0.4680370000000  0.4235070000000 1.0
C      1  0.5075010000000  0.4929500000000  0.6088420000000 1.0
C      1  0.4928710000000  0.5064830000000  0.3920800000000 1.0
C      1  0.5272820000000  0.4432540000000  0.5700890000000 1.0
C      1  0.4748290000000  0.5496080000000  0.4313970000000 1.0
C      1  0.4539350000000  0.4598870000000  0.4057570000000 1.0
C      1  0.5468970000000  0.5399620000000  0.5977530000000 1.0
C      1  0.4246090000000  0.5015840000000  0.4756460000000 1.0
C      1  0.5733700000000  0.4996960000000  0.5228600000000 1.0
C      1  0.5563470000000  0.4465270000000  0.5753500000000 1.0
C      1  0.4458270000000  0.5480730000000  0.4204960000000 1.0
C      1  0.4771150000000  0.4361330000000  0.4643530000000 1.0
C      1  0.5431340000000  0.5629230000000  0.5574900000000 1.0
C      1  0.4144090000000  0.5239240000000  0.4969400000000 1.0
C      1  0.5906310000000  0.4763730000000  0.4955320000000 1.0
C      1  0.4196730000000  0.4620510000000  0.4386440000000 1.0
C      1  0.5824770000000  0.5328850000000  0.5672410000000 1.0
C      1  0.5915580000000  0.4854890000000  0.4395310000000 1.0
C      1  0.4078670000000  0.5203750000000  0.5642940000000 1.0
C      1  0.5617940000000  0.4062640000000  0.5515140000000 1.0
C      1  0.4439470000000  0.5895830000000  0.4408850000000 1.0
C      1  0.5723370000000  0.4202130000000  0.4974360000000 1.0
C      1  0.4357280000000  0.5806460000000  0.4990270000000 1.0
C      1  0.4765230000000  0.4355050000000  0.5950760000000 1.0
C      1  0.5287990000000  0.5661930000000  0.4051370000000 1.0
C      1  0.5282400000000  0.5111930000000  0.4967710000000 1.0
C      1  0.4784980000000  0.4714630000000  0.5037090000000 1.0
C      1  0.5667060000000  0.5766930000000  0.5282390000000 1.0
C      1  0.4337100000000  0.4209960000000  0.4774730000000 1.0
C      1  0.4809390000000  0.5898400000000  0.5090030000000 1.0
C      1  0.5205410000000  0.4093930000000  0.4887100000000 1.0
C      1  0.4016970000000  0.4748410000000  0.5358110000000 1.0
C      1  0.5859790000000  0.5333080000000  0.4664790000000 1.0
C      1  0.5704960000000  0.5852620000000  0.4531670000000 1.0
C      1  0.4424090000000  0.4205450000000  0.5536790000000 1.0
C      1  0.3853250000000  0.5460500000000  0.5275170000000 1.0
C      1  0.6109570000000  0.4499070000000  0.4646650000000 1.0
C      1  0.5010650000000  0.4867420000000  0.5778300000000 1.0
C      1  0.4983920000000  0.5183070000000  0.4233450000000 1.0
C      1  0.6064510000000  0.5192800000000  0.5121020000000 1.0
C      1  0.3911260000000  0.4823320000000  0.4866770000000 1.0
C      1  0.5792240000000  0.5324020000000  0.4367200000000 1.0
C      1  0.4179770000000  0.4751680000000  0.5604210000000 1.0
C      1  0.4570160000000  0.4755450000000  0.4612160000000 1.0
C      1  0.5425030000000  0.5212500000000  0.5357710000000 1.0
C      1  0.5043340000000  0.5962270000000  0.4955710000000 1.0
C      1  0.4988610000000  0.3982830000000  0.5039550000000 1.0
C      1  0.5244970000000  0.5314230000000  0.5743930000000 1.0
C      1  0.4763390000000  0.4742900000000  0.4251260000000 1.0
C      1  0.4145220000000  0.5528750000000  0.4550560000000 1.0
C      1  0.5768420000000  0.4515430000000  0.5361220000000 1.0
C      1  0.4370630000000  0.5225490000000  0.4201490000000 1.0
C      1  0.5629310000000  0.4726250000000  0.5768680000000 1.0
C      1  0.5210620000000  0.5854730000000  0.5581610000000 1.0
C      1  0.4779660000000  0.4131620000000  0.4462090000000 1.0
C      1  0.4416590000000  0.5564720000000  0.5717230000000 1.0
C      1  0.5552230000000  0.4431350000000  0.4296170000000 1.0
C      1  0.4873880000000  0.5176550000000  0.6158560000000 1.0
C      1  0.5117970000000  0.4817710000000  0.3832250000000 1.0
C      1  0.5860720000000  0.4473700000000  0.5061240000000 1.0
C      1  0.4154770000000  0.5735700000000  0.4820420000000 1.0
C      1  0.4305500000000  0.4498230000000  0.4158830000000 1.0
C      1  0.5735950000000  0.5435130000000  0.5915900000000 1.0
C      1  0.5561560000000  0.4945020000000  0.5517330000000 1.0
C      1  0.4437340000000  0.5037900000000  0.4477130000000 1.0
C      1  0.5293240000000  0.5626540000000  0.5264160000000 1.0
C      1  0.4686720000000  0.4352930000000  0.4900010000000 1.0
C      1  0.4730850000000  0.4813460000000  0.3925030000000 1.0
C      1  0.5292920000000  0.5144630000000  0.6036820000000 1.0
C      1  0.4794790000000  0.5090680000000  0.5300890000000 1.0
C      1  0.5258830000000  0.4891000000000  0.4636730000000 1.0
C      1  0.4996060000000  0.5755810000000  0.5745430000000 1.0
C      1  0.4967360000000  0.4222450000000  0.4262510000000 1.0
C      1  0.5449020000000  0.5972380000000  0.5378400000000 1.0
C      1  0.4564460000000  0.4026940000000  0.4703630000000 1.0
C      1  0.4795970000000  0.5398740000000  0.6022600000000 1.0
C      1  0.5197440000000  0.4605390000000  0.3979920000000 1.0
C      1  0.6049790000000  0.4956260000000  0.5296890000000 1.0
C      1  0.3919410000000  0.5030390000000  0.4663090000000 1.0
C      1  0.5621450000000  0.5103320000000  0.4942370000000 1.0
C      1  0.4360400000000  0.4917860000000  0.5061880000000 1.0
C      1  0.5239120000000  0.5007610000000  0.5643270000000 1.0
C      1  0.4766230000000  0.5024710000000  0.4391580000000 1.0
C      1  0.5142110000000  0.5213460000000  0.4675100000000 1.0
C      1  0.4917910000000  0.4782690000000  0.5337900000000 1.0
C      1  0.4990750000000  0.4942190000000  0.4925120000000 1.0
END
