TITL C-3289324-3781-12 0.000928771697967525 125000 -948.717020718041 0 0 179 (C1) n - 1
REM
REM in /nfs/bkarasulu/CARBON/AIRSS/Generating-Clusters/AIREBO/with-SteepDescent/Higher-Symm/SD-CG/HFTN-CG
REM
REM
REM
REM
REM
REM ./C.cell (b20cbc046b6831c77cfcea5457e17084)
REM
REM compiler GCC version 9.2.1 20190827 (Red Hat 9.2.1-1)
REM options -cpp -mtune=generic -march=x86-64 -g -O0 -fpre-include=/usr/include/finclude/math-vector-fortran.h
REM seed 1303235318 311380305 -36156929 1557748901 2069452959 1185359135 -220826919 -1441772461 -153241143 -526568752 -163035074 42798195 1420771348 203837508 478647355 9800847 1892751006 -950012159 -257955740 -189501406 1151246455 818086274 -553254084 -253651869 1351180951 1266150751 -1828516232 -115014730 1952175796 -696036050 373436967 1990832327 -362410504
REM
CELL 1.54180   50.00000   50.00000   50.00000   90.00000   90.00000   90.00000
LATT -1
SFAC C  
C      1  0.5935270000000  0.4648040000000  0.5321400000000 1.0
C      1  0.5991060000000  0.5101390000000  0.5702570000000 1.0
C      1  0.5987320000000  0.5584600000000  0.4825910000000 1.0
C      1  0.5953920000000  0.5110680000000  0.4475100000000 1.0
C      1  0.6002880000000  0.4547960000000  0.4660510000000 1.0
C      1  0.4031240000000  0.4598320000000  0.5299490000000 1.0
C      1  0.3933280000000  0.5000250000000  0.5660580000000 1.0
C      1  0.3919430000000  0.5487420000000  0.4992510000000 1.0
C      1  0.4091920000000  0.5113370000000  0.4597000000000 1.0
C      1  0.4087290000000  0.4478260000000  0.4660700000000 1.0
C      1  0.5913210000000  0.5136550000000  0.5177490000000 1.0
C      1  0.6044890000000  0.5310620000000  0.4734740000000 1.0
C      1  0.5884610000000  0.4863730000000  0.4663940000000 1.0
C      1  0.5921960000000  0.4625120000000  0.4982260000000 1.0
C      1  0.5931200000000  0.4947690000000  0.5421200000000 1.0
C      1  0.4137480000000  0.5105470000000  0.5132480000000 1.0
C      1  0.3919220000000  0.5247020000000  0.4828660000000 1.0
C      1  0.4152060000000  0.4799990000000  0.4683760000000 1.0
C      1  0.4112020000000  0.4618550000000  0.4969700000000 1.0
C      1  0.4088690000000  0.4919020000000  0.5400030000000 1.0
C      1  0.5613490000000  0.4536530000000  0.5115550000000 1.0
C      1  0.5634230000000  0.5054680000000  0.5533890000000 1.0
C      1  0.5722340000000  0.5371080000000  0.5174560000000 1.0
C      1  0.5471830000000  0.5174550000000  0.4481870000000 1.0
C      1  0.5619390000000  0.4647890000000  0.4698380000000 1.0
C      1  0.4388830000000  0.4676400000000  0.5158690000000 1.0
C      1  0.4368180000000  0.5104290000000  0.5457730000000 1.0
C      1  0.4295050000000  0.5404680000000  0.5096680000000 1.0
C      1  0.4478690000000  0.5136190000000  0.4498990000000 1.0
C      1  0.4459780000000  0.4656040000000  0.4666690000000 1.0
C      1  0.4140650000000  0.4286670000000  0.5376800000000 1.0
C      1  0.4019590000000  0.5156190000000  0.5838700000000 1.0
C      1  0.4025100000000  0.5505160000000  0.5275580000000 1.0
C      1  0.4136680000000  0.5358980000000  0.4365760000000 1.0
C      1  0.4206540000000  0.4390150000000  0.4354100000000 1.0
C      1  0.5907260000000  0.4363280000000  0.5447530000000 1.0
C      1  0.5788070000000  0.5046810000000  0.5914540000000 1.0
C      1  0.5846620000000  0.5644180000000  0.5062140000000 1.0
C      1  0.6194020000000  0.5105770000000  0.4282400000000 1.0
C      1  0.5765040000000  0.4546290000000  0.4408410000000 1.0
C      1  0.4937890000000  0.4554890000000  0.4001350000000 1.0
C      1  0.4890630000000  0.3948840000000  0.5137290000000 1.0
C      1  0.4893790000000  0.4730020000000  0.6125030000000 1.0
C      1  0.4982960000000  0.6094270000000  0.5583130000000 1.0
C      1  0.4873050000000  0.5847560000000  0.4299820000000 1.0
C      1  0.5176980000000  0.4572270000000  0.3832110000000 1.0
C      1  0.5155010000000  0.4018810000000  0.5093150000000 1.0
C      1  0.5161510000000  0.4664940000000  0.6094130000000 1.0
C      1  0.5250310000000  0.6026520000000  0.5569630000000 1.0
C      1  0.5145590000000  0.5835430000000  0.4336680000000 1.0
C      1  0.4843980000000  0.5196280000000  0.4743830000000 1.0
C      1  0.4842780000000  0.4768670000000  0.4645200000000 1.0
C      1  0.4758520000000  0.4566790000000  0.5063850000000 1.0
C      1  0.4748560000000  0.5021270000000  0.5379430000000 1.0
C      1  0.4817300000000  0.5434590000000  0.5116550000000 1.0
C      1  0.5164480000000  0.5232160000000  0.4851950000000 1.0
C      1  0.5228910000000  0.4812420000000  0.4590910000000 1.0
C      1  0.5040860000000  0.4746240000000  0.5124550000000 1.0
C      1  0.5067520000000  0.5000870000000  0.5430590000000 1.0
C      1  0.5331970000000  0.5426230000000  0.5229300000000 1.0
C      1  0.4224800000000  0.4217200000000  0.4709830000000 1.0
C      1  0.4340320000000  0.4618100000000  0.5464380000000 1.0
C      1  0.4183300000000  0.5375090000000  0.5547890000000 1.0
C      1  0.4349870000000  0.5748270000000  0.4663530000000 1.0
C      1  0.4248160000000  0.4964390000000  0.4334080000000 1.0
C      1  0.5761550000000  0.4343230000000  0.4752240000000 1.0
C      1  0.5616890000000  0.4632930000000  0.5441730000000 1.0
C      1  0.5765850000000  0.5339330000000  0.5642690000000 1.0
C      1  0.5750630000000  0.5899400000000  0.4690550000000 1.0
C      1  0.5678510000000  0.5013890000000  0.4299940000000 1.0
C      1  0.5145860000000  0.4189610000000  0.4598950000000 1.0
C      1  0.5141400000000  0.4317130000000  0.5729040000000 1.0
C      1  0.5123480000000  0.5639980000000  0.5844000000000 1.0
C      1  0.5155260000000  0.5942260000000  0.4719680000000 1.0
C      1  0.5121650000000  0.5072710000000  0.4015790000000 1.0
C      1  0.4854430000000  0.4162350000000  0.4714290000000 1.0
C      1  0.4856600000000  0.4390150000000  0.5821370000000 1.0
C      1  0.4848460000000  0.5648150000000  0.5746820000000 1.0
C      1  0.4875240000000  0.6055890000000  0.4798840000000 1.0
C      1  0.4790210000000  0.5080020000000  0.3938690000000 1.0
C      1  0.5749340000000  0.4648050000000  0.5927590000000 1.0
C      1  0.5563190000000  0.5668480000000  0.5718090000000 1.0
C      1  0.5701110000000  0.5676440000000  0.4534890000000 1.0
C      1  0.5764620000000  0.4700710000000  0.3893840000000 1.0
C      1  0.5589220000000  0.4069710000000  0.4812940000000 1.0
C      1  0.4473660000000  0.4393080000000  0.5934730000000 1.0
C      1  0.4529030000000  0.5715630000000  0.5650140000000 1.0
C      1  0.4454390000000  0.5941980000000  0.4488870000000 1.0
C      1  0.4523930000000  0.4878980000000  0.4059280000000 1.0
C      1  0.4378880000000  0.3944810000000  0.4764200000000 1.0
C      1  0.4423530000000  0.5843410000000  0.5223830000000 1.0
C      1  0.4442810000000  0.5469050000000  0.4284410000000 1.0
C      1  0.4530610000000  0.4363260000000  0.4252350000000 1.0
C      1  0.4439110000000  0.4165270000000  0.5334250000000 1.0
C      1  0.4507080000000  0.5006160000000  0.5892930000000 1.0
C      1  0.5658880000000  0.5870640000000  0.5234430000000 1.0
C      1  0.5355450000000  0.5394220000000  0.4043050000000 1.0
C      1  0.5512810000000  0.4386650000000  0.4225100000000 1.0
C      1  0.5387090000000  0.4064670000000  0.5313110000000 1.0
C      1  0.5448560000000  0.5053640000000  0.5933060000000 1.0
C      1  0.5147680000000  0.5059890000000  0.6059950000000 1.0
C      1  0.5338950000000  0.5996310000000  0.5277170000000 1.0
C      1  0.5016040000000  0.5392900000000  0.4064340000000 1.0
C      1  0.5193390000000  0.4257430000000  0.4266340000000 1.0
C      1  0.5092650000000  0.4109520000000  0.5477110000000 1.0
C      1  0.4821320000000  0.5006260000000  0.5980700000000 1.0
C      1  0.5045910000000  0.6033340000000  0.5092240000000 1.0
C      1  0.4756480000000  0.5569250000000  0.4209700000000 1.0
C      1  0.4860300000000  0.4294470000000  0.4176180000000 1.0
C      1  0.4762700000000  0.4074420000000  0.5402210000000 1.0
C      1  0.4673850000000  0.5913710000000  0.5009550000000 1.0
C      1  0.4705300000000  0.5174990000000  0.4248480000000 1.0
C      1  0.4684450000000  0.4405940000000  0.4614510000000 1.0
C      1  0.4718460000000  0.4582180000000  0.5587680000000 1.0
C      1  0.4612420000000  0.5403550000000  0.5755320000000 1.0
C      1  0.5343530000000  0.5840000000000  0.4911690000000 1.0
C      1  0.5203690000000  0.5160670000000  0.4330080000000 1.0
C      1  0.5373120000000  0.4439370000000  0.4594940000000 1.0
C      1  0.5297540000000  0.4422660000000  0.5456060000000 1.0
C      1  0.5237740000000  0.5387400000000  0.5875280000000 1.0
C      1  0.5102230000000  0.4443180000000  0.5221290000000 1.0
C      1  0.5108580000000  0.5142160000000  0.5738030000000 1.0
C      1  0.5225820000000  0.5694430000000  0.5172480000000 1.0
C      1  0.5086580000000  0.5437700000000  0.4387400000000 1.0
C      1  0.5189030000000  0.4582800000000  0.4347650000000 1.0
C      1  0.4804860000000  0.4389360000000  0.5331390000000 1.0
C      1  0.4799280000000  0.5164210000000  0.5677970000000 1.0
C      1  0.4892950000000  0.5752380000000  0.5211700000000 1.0
C      1  0.4801700000000  0.5369330000000  0.4481130000000 1.0
C      1  0.4860850000000  0.4538850000000  0.4400680000000 1.0
C      1  0.5596040000000  0.4710770000000  0.4163430000000 1.0
C      1  0.5483790000000  0.4266120000000  0.5051990000000 1.0
C      1  0.5537510000000  0.4794890000000  0.5730940000000 1.0
C      1  0.5702050000000  0.5595910000000  0.5428910000000 1.0
C      1  0.5489040000000  0.5462980000000  0.4634100000000 1.0
C      1  0.4448520000000  0.4684860000000  0.4327930000000 1.0
C      1  0.4464370000000  0.4153150000000  0.5019090000000 1.0
C      1  0.4493110000000  0.4840850000000  0.5628390000000 1.0
C      1  0.4406110000000  0.5565260000000  0.5375140000000 1.0
C      1  0.4430430000000  0.5453020000000  0.4617590000000 1.0
C      1  0.5469750000000  0.5347680000000  0.4948140000000 1.0
C      1  0.5374540000000  0.5023700000000  0.4736390000000 1.0
C      1  0.5496230000000  0.4818310000000  0.4965590000000 1.0
C      1  0.5290010000000  0.4908320000000  0.5190520000000 1.0
C      1  0.5429480000000  0.5140720000000  0.5337280000000 1.0
C      1  0.4570840000000  0.5334860000000  0.4904200000000 1.0
C      1  0.4604560000000  0.4954770000000  0.4741450000000 1.0
C      1  0.4474980000000  0.4460080000000  0.4944360000000 1.0
C      1  0.4645500000000  0.4868540000000  0.5160610000000 1.0
C      1  0.4612930000000  0.5321790000000  0.5363850000000 1.0
C      1  0.5251870000000  0.4632660000000  0.5791230000000 1.0
C      1  0.5323040000000  0.5812490000000  0.5738060000000 1.0
C      1  0.5212980000000  0.5629670000000  0.4598920000000 1.0
C      1  0.5272510000000  0.4774300000000  0.4078980000000 1.0
C      1  0.5174780000000  0.4308220000000  0.4916380000000 1.0
C      1  0.4727420000000  0.4507560000000  0.6061660000000 1.0
C      1  0.4803100000000  0.5852900000000  0.5500520000000 1.0
C      1  0.4732480000000  0.5985460000000  0.4497890000000 1.0
C      1  0.4840190000000  0.4811030000000  0.4114520000000 1.0
C      1  0.4733770000000  0.4020760000000  0.4921950000000 1.0
C      1  0.5603310000000  0.5927310000000  0.4925240000000 1.0
C      1  0.5552260000000  0.5254630000000  0.4099540000000 1.0
C      1  0.5591310000000  0.4197750000000  0.4496810000000 1.0
C      1  0.5607390000000  0.4293150000000  0.5431270000000 1.0
C      1  0.5559860000000  0.5374070000000  0.5890300000000 1.0
C      1  0.4365710000000  0.5833900000000  0.4918220000000 1.0
C      1  0.4386330000000  0.5182640000000  0.4112990000000 1.0
C      1  0.4485460000000  0.4164290000000  0.4524520000000 1.0
C      1  0.4459560000000  0.4362300000000  0.5605910000000 1.0
C      1  0.4325710000000  0.5269000000000  0.5838340000000 1.0
C      1  0.5019670000000  0.5532440000000  0.4861310000000 1.0
C      1  0.5071640000000  0.4617990000000  0.4821300000000 1.0
C      1  0.5029700000000  0.4719890000000  0.5586880000000 1.0
C      1  0.5064530000000  0.5297390000000  0.5293910000000 1.0
C      1  0.4980630000000  0.4919170000000  0.4376930000000 1.0
C      1  0.4431480000000  0.5041400000000  0.5004610000000 1.0
C      1  0.5806270000000  0.4940000000000  0.4973270000000 1.0
C      1  0.6135520000000  0.5165110000000  0.4951390000000 1.0
C      1  0.3823780000000  0.5043480000000  0.5016580000000 1.0
END
