TITL C-3289325-7307-481 -124.216316969486 125000 -941.445264208295 0 0 169 (C1) n - 1
REM
REM in /nfs/bkarasulu/CARBON/AIRSS/Generating-Clusters/AIREBO/with-SteepDescent/Higher-Symm/SD-CG/HFTN-CG
REM
REM
REM
REM
REM
REM ./C.cell (b20cbc046b6831c77cfcea5457e17084)
REM
REM compiler GCC version 9.2.1 20190827 (Red Hat 9.2.1-1)
REM options -cpp -mtune=generic -march=x86-64 -g -O0 -fpre-include=/usr/include/finclude/math-vector-fortran.h
REM seed -1866826068 -1217560311 -1943972158 -687450989 1435206436 -814374587 -967625800 -1377797805 69541185 -1931902588 -766232000 356274270 -687024544 -1731823936 1222215687 -873041200 1330954556 -1352127200 902488670 1631994508 1419450193 -1917786103 -1659427884 -1213653886 -1808565651 -655555986 -1205142404 1674548285 978449014 -1091041742 -1316150607 932922291 -367387338
REM
CELL 1.54180   50.00000   50.00000   50.00000   90.00000   90.00000   90.00000
LATT -1
SFAC C  
C      1  0.4666290000000  0.5066290000000  0.5455490000000 1.0
C      1  0.5276160000000  0.4899550000000  0.5010630000000 1.0
C      1  0.5203190000000  0.5494590000000  0.6056080000000 1.0
C      1  0.4938350000000  0.5488770000000  0.4420340000000 1.0
C      1  0.4627350000000  0.4640210000000  0.4338300000000 1.0
C      1  0.4886640000000  0.5877770000000  0.4877960000000 1.0
C      1  0.5294270000000  0.5564560000000  0.4722120000000 1.0
C      1  0.5011600000000  0.4967460000000  0.4143410000000 1.0
C      1  0.4674430000000  0.5587110000000  0.4610940000000 1.0
C      1  0.4802370000000  0.3987560000000  0.4673690000000 1.0
C      1  0.4203950000000  0.5152150000000  0.4073530000000 1.0
C      1  0.5523230000000  0.5284530000000  0.4857220000000 1.0
C      1  0.4072340000000  0.5119980000000  0.4284200000000 1.0
C      1  0.4495880000000  0.5757640000000  0.4166160000000 1.0
C      1  0.5786030000000  0.5489200000000  0.4926600000000 1.0
C      1  0.4823480000000  0.5200500000000  0.4003680000000 1.0
C      1  0.5768130000000  0.5768740000000  0.4765670000000 1.0
C      1  0.5034230000000  0.4359470000000  0.5127660000000 1.0
C      1  0.4452320000000  0.5578410000000  0.5235160000000 1.0
C      1  0.4658950000000  0.4769780000000  0.5933250000000 1.0
C      1  0.5343160000000  0.5185920000000  0.4566140000000 1.0
C      1  0.5793940000000  0.5410800000000  0.4320610000000 1.0
C      1  0.5157390000000  0.5562500000000  0.4094690000000 1.0
C      1  0.5674920000000  0.4673330000000  0.5810100000000 1.0
C      1  0.4515770000000  0.5098640000000  0.3997690000000 1.0
C      1  0.5182040000000  0.4195750000000  0.4384430000000 1.0
C      1  0.4131400000000  0.5427850000000  0.5615580000000 1.0
C      1  0.5084510000000  0.5765660000000  0.4317410000000 1.0
C      1  0.4672730000000  0.4886590000000  0.4559300000000 1.0
C      1  0.4947480000000  0.5569640000000  0.5008470000000 1.0
C      1  0.4480660000000  0.5119240000000  0.4485640000000 1.0
C      1  0.4834230000000  0.6056740000000  0.4598580000000 1.0
C      1  0.4576270000000  0.4191930000000  0.4927280000000 1.0
C      1  0.4459860000000  0.5182780000000  0.5134200000000 1.0
C      1  0.4307050000000  0.4846800000000  0.4714530000000 1.0
C      1  0.6020710000000  0.4939540000000  0.5298490000000 1.0
C      1  0.4772910000000  0.5040590000000  0.4914000000000 1.0
C      1  0.5575630000000  0.5892630000000  0.4930790000000 1.0
C      1  0.5568290000000  0.4317650000000  0.4622680000000 1.0
C      1  0.4846070000000  0.5807780000000  0.5504370000000 1.0
C      1  0.4747380000000  0.5171240000000  0.5725440000000 1.0
C      1  0.4938150000000  0.4448510000000  0.4045940000000 1.0
C      1  0.4785060000000  0.4046470000000  0.5666530000000 1.0
C      1  0.4951730000000  0.4806540000000  0.5996890000000 1.0
C      1  0.4116540000000  0.4693260000000  0.5246540000000 1.0
C      1  0.4631260000000  0.5820170000000  0.5736220000000 1.0
C      1  0.4530740000000  0.5280920000000  0.4264000000000 1.0
C      1  0.4382620000000  0.4283000000000  0.5632210000000 1.0
C      1  0.6105520000000  0.4721100000000  0.5120470000000 1.0
C      1  0.4164890000000  0.5088920000000  0.5274900000000 1.0
C      1  0.5320280000000  0.5398240000000  0.5562980000000 1.0
C      1  0.5366430000000  0.4049490000000  0.5219000000000 1.0
C      1  0.5498210000000  0.5678330000000  0.5144630000000 1.0
C      1  0.4347150000000  0.4278030000000  0.5385300000000 1.0
C      1  0.4797380000000  0.5378000000000  0.4816850000000 1.0
C      1  0.5928670000000  0.5000340000000  0.4613060000000 1.0
C      1  0.4013330000000  0.4628110000000  0.4562390000000 1.0
C      1  0.4034400000000  0.4900050000000  0.5024100000000 1.0
C      1  0.4748030000000  0.5979660000000  0.5239930000000 1.0
C      1  0.4335590000000  0.4773900000000  0.5707000000000 1.0
C      1  0.5495240000000  0.5062670000000  0.5681610000000 1.0
C      1  0.4228580000000  0.5422300000000  0.5064800000000 1.0
C      1  0.5613950000000  0.4043480000000  0.5339000000000 1.0
C      1  0.5644230000000  0.5771840000000  0.4507670000000 1.0
C      1  0.3972500000000  0.4199220000000  0.4946330000000 1.0
C      1  0.4464770000000  0.4921440000000  0.4945030000000 1.0
C      1  0.4381160000000  0.4312450000000  0.4676170000000 1.0
C      1  0.5238270000000  0.4539070000000  0.4580980000000 1.0
C      1  0.4791840000000  0.4459920000000  0.5286060000000 1.0
C      1  0.5664650000000  0.4428210000000  0.5081180000000 1.0
C      1  0.5296340000000  0.4690530000000  0.4283360000000 1.0
C      1  0.5561610000000  0.4572150000000  0.5438750000000 1.0
C      1  0.5854960000000  0.4676800000000  0.4648140000000 1.0
C      1  0.4739850000000  0.3902050000000  0.4996790000000 1.0
C      1  0.5333990000000  0.4510310000000  0.5072940000000 1.0
C      1  0.5350180000000  0.5990080000000  0.4791890000000 1.0
C      1  0.4551020000000  0.5845820000000  0.5092930000000 1.0
C      1  0.4180700000000  0.5112150000000  0.4576940000000 1.0
C      1  0.5106120000000  0.5727400000000  0.5630800000000 1.0
C      1  0.4321270000000  0.4488360000000  0.5156750000000 1.0
C      1  0.4725480000000  0.5503700000000  0.5733320000000 1.0
C      1  0.4677730000000  0.3818790000000  0.5691980000000 1.0
C      1  0.4875080000000  0.4147640000000  0.4426750000000 1.0
C      1  0.3938220000000  0.5515410000000  0.5173970000000 1.0
C      1  0.4082590000000  0.4710670000000  0.5518830000000 1.0
C      1  0.5546730000000  0.4643010000000  0.4605200000000 1.0
C      1  0.5823290000000  0.4886940000000  0.4309860000000 1.0
C      1  0.6011710000000  0.4611940000000  0.4376730000000 1.0
C      1  0.4958980000000  0.5427300000000  0.3948250000000 1.0
C      1  0.5502310000000  0.4774890000000  0.5187300000000 1.0
C      1  0.4204600000000  0.4318360000000  0.4931410000000 1.0
C      1  0.5549020000000  0.4887280000000  0.4191180000000 1.0
C      1  0.5308980000000  0.5819020000000  0.4514270000000 1.0
C      1  0.6053270000000  0.5359870000000  0.4492330000000 1.0
C      1  0.4386360000000  0.4963070000000  0.5459650000000 1.0
C      1  0.5761360000000  0.4921730000000  0.5100780000000 1.0
C      1  0.4870070000000  0.4715420000000  0.3964170000000 1.0
C      1  0.5408180000000  0.5084270000000  0.5964890000000 1.0
C      1  0.5230710000000  0.5381270000000  0.5001610000000 1.0
C      1  0.5706740000000  0.5019840000000  0.4834430000000 1.0
C      1  0.4564420000000  0.5828750000000  0.4780910000000 1.0
C      1  0.4346580000000  0.4573840000000  0.4520380000000 1.0
C      1  0.5053540000000  0.5422680000000  0.5772440000000 1.0
C      1  0.4554150000000  0.5542610000000  0.4324580000000 1.0
C      1  0.4971460000000  0.4140970000000  0.4930330000000 1.0
C      1  0.4425020000000  0.4996510000000  0.5926710000000 1.0
C      1  0.5418950000000  0.4924100000000  0.4722070000000 1.0
C      1  0.5269780000000  0.5892390000000  0.5217930000000 1.0
C      1  0.5641710000000  0.5123310000000  0.5321390000000 1.0
C      1  0.5081840000000  0.5118060000000  0.5157820000000 1.0
C      1  0.5595500000000  0.5442720000000  0.5751680000000 1.0
C      1  0.5190000000000  0.4404840000000  0.4184090000000 1.0
C      1  0.5787810000000  0.5574520000000  0.5258220000000 1.0
C      1  0.5340520000000  0.5796610000000  0.5491930000000 1.0
C      1  0.5346990000000  0.4152040000000  0.4605620000000 1.0
C      1  0.5761480000000  0.4270380000000  0.4818250000000 1.0
C      1  0.4012250000000  0.5321720000000  0.5385320000000 1.0
C      1  0.4714180000000  0.4468050000000  0.4833450000000 1.0
C      1  0.4914630000000  0.4437280000000  0.4558260000000 1.0
C      1  0.4585070000000  0.4799210000000  0.4040430000000 1.0
C      1  0.5719450000000  0.4296760000000  0.5356340000000 1.0
C      1  0.5922090000000  0.4579610000000  0.4939040000000 1.0
C      1  0.4609440000000  0.5261020000000  0.6023030000000 1.0
C      1  0.5605450000000  0.5673530000000  0.5528050000000 1.0
C      1  0.4517640000000  0.4036560000000  0.4566110000000 1.0
C      1  0.5201350000000  0.4265640000000  0.5376860000000 1.0
C      1  0.4441340000000  0.5523110000000  0.5547400000000 1.0
C      1  0.5029980000000  0.3751840000000  0.4902340000000 1.0
C      1  0.5801950000000  0.5209620000000  0.5674210000000 1.0
C      1  0.4612120000000  0.4656660000000  0.5097480000000 1.0
C      1  0.5267400000000  0.3996350000000  0.4897740000000 1.0
C      1  0.4726480000000  0.4337140000000  0.4220300000000 1.0
C      1  0.5082400000000  0.5180420000000  0.4401310000000 1.0
C      1  0.5282840000000  0.4849540000000  0.6026150000000 1.0
C      1  0.3916060000000  0.4753440000000  0.4761870000000 1.0
C      1  0.5971330000000  0.5159300000000  0.4250460000000 1.0
C      1  0.4903840000000  0.6008890000000  0.4361580000000 1.0
C      1  0.5423370000000  0.4620530000000  0.5936220000000 1.0
C      1  0.4862240000000  0.5140590000000  0.4601270000000 1.0
C      1  0.5446110000000  0.5362380000000  0.6027520000000 1.0
C      1  0.5288380000000  0.4947380000000  0.3981220000000 1.0
C      1  0.5988940000000  0.5295210000000  0.4775140000000 1.0
C      1  0.5498180000000  0.5470490000000  0.4464370000000 1.0
C      1  0.5053660000000  0.4228930000000  0.5663670000000 1.0
C      1  0.5380470000000  0.5420630000000  0.4162610000000 1.0
C      1  0.5287550000000  0.4535600000000  0.5569840000000 1.0
C      1  0.4374100000000  0.5298740000000  0.5791190000000 1.0
C      1  0.4146210000000  0.5168880000000  0.4884490000000 1.0
C      1  0.5252620000000  0.4374040000000  0.5866990000000 1.0
C      1  0.4860690000000  0.4748490000000  0.4798360000000 1.0
C      1  0.4784550000000  0.5585460000000  0.5284580000000 1.0
C      1  0.4372360000000  0.6008350000000  0.4634250000000 1.0
C      1  0.3747290000000  0.5690010000000  0.5104640000000 1.0
C      1  0.5138110000000  0.4667030000000  0.4843180000000 1.0
C      1  0.5470050000000  0.5188930000000  0.4054440000000 1.0
C      1  0.5152490000000  0.4813580000000  0.5621290000000 1.0
C      1  0.5995700000000  0.5113170000000  0.5515720000000 1.0
C      1  0.5036850000000  0.5074910000000  0.5805820000000 1.0
C      1  0.4961310000000  0.4704040000000  0.4352640000000 1.0
C      1  0.4830520000000  0.4896450000000  0.5216550000000 1.0
C      1  0.4550680000000  0.4528240000000  0.5753270000000 1.0
C      1  0.5689680000000  0.4856510000000  0.5527330000000 1.0
C      1  0.5148120000000  0.5992070000000  0.4988200000000 1.0
C      1  0.4766800000000  0.4372880000000  0.5572730000000 1.0
C      1  0.5237140000000  0.5093530000000  0.5460370000000 1.0
C      1  0.5044620000000  0.4549700000000  0.6135640000000 1.0
C      1  0.4508350000000  0.5987080000000  0.5885010000000 1.0
C      1  0.5444620000000  0.5373310000000  0.5265890000000 1.0
C      1  0.4771030000000  0.5285290000000  0.5227040000000 1.0
END
