TITL C-3289332-8317-259 -0.000177461883878938 125000 -293.791158313603 0 0 48 (C1) n - 1
REM
REM in /nfs/bkarasulu/CARBON/AIRSS/Generating-Clusters/AIREBO/with-SteepDescent/Higher-Symm/SD-CG/HFTN-CG
REM
REM
REM
REM
REM
REM ./C.cell (b20cbc046b6831c77cfcea5457e17084)
REM
REM compiler GCC version 9.2.1 20190827 (Red Hat 9.2.1-1)
REM options -cpp -mtune=generic -march=x86-64 -g -O0 -fpre-include=/usr/include/finclude/math-vector-fortran.h
REM seed 600519428 -521249881 746167026 -143465728 -1653135549 2127186502 714027413 118551180 132464166 -208523650 -1051953090 1487751432 534888575 520228739 1356446238 875991545 -354877170 -1518513366 -723830442 -1582453378 1590530510 549221470 551292962 -1588989725 1357436687 -675114088 1113335723 894001802 935924255 -544143079 1867774354 840754406 895145596
REM
CELL 1.54180   50.00000   50.00000   50.00000   90.00000   90.00000   90.00000
LATT -1
SFAC C  
C      1  0.4703350000000  0.4947830000000  0.5146090000000 1.0
C      1  0.5183490000000  0.4736740000000  0.5127370000000 1.0
C      1  0.5162620000000  0.5251530000000  0.5153210000000 1.0
C      1  0.5050700000000  0.4724020000000  0.4490130000000 1.0
C      1  0.5217320000000  0.5188560000000  0.4493110000000 1.0
C      1  0.4730380000000  0.5098310000000  0.4500470000000 1.0
C      1  0.4939740000000  0.5471860000000  0.4736360000000 1.0
C      1  0.4605010000000  0.4698180000000  0.4698580000000 1.0
C      1  0.5462610000000  0.4812400000000  0.4692920000000 1.0
C      1  0.5760570000000  0.5239480000000  0.5200360000000 1.0
C      1  0.4419040000000  0.5507670000000  0.5239570000000 1.0
C      1  0.4821750000000  0.4186060000000  0.5216960000000 1.0
C      1  0.5058030000000  0.4882160000000  0.5601030000000 1.0
C      1  0.5016890000000  0.5206270000000  0.5522230000000 1.0
C      1  0.4760850000000  0.5011040000000  0.5624870000000 1.0
C      1  0.4846200000000  0.5227640000000  0.5232010000000 1.0
C      1  0.4874630000000  0.4699710000000  0.5155380000000 1.0
C      1  0.5328180000000  0.5002690000000  0.5176260000000 1.0
C      1  0.4452430000000  0.5399710000000  0.4782730000000 1.0
C      1  0.4932650000000  0.4320990000000  0.4761860000000 1.0
C      1  0.5637330000000  0.5279970000000  0.4750680000000 1.0
C      1  0.4698290000000  0.5482120000000  0.5160460000000 1.0
C      1  0.4742460000000  0.4456930000000  0.5099950000000 1.0
C      1  0.5603920000000  0.5009030000000  0.5114350000000 1.0
C      1  0.5211570000000  0.5440340000000  0.5411710000000 1.0
C      1  0.4565450000000  0.4973440000000  0.5434170000000 1.0
C      1  0.5181780000000  0.4689740000000  0.5459790000000 1.0
C      1  0.5639010000000  0.4990080000000  0.4821650000000 1.0
C      1  0.4703510000000  0.5525290000000  0.4873360000000 1.0
C      1  0.4662330000000  0.4446900000000  0.4809770000000 1.0
C      1  0.5273750000000  0.4350060000000  0.5087020000000 1.0
C      1  0.5461530000000  0.5602530000000  0.5065260000000 1.0
C      1  0.4265910000000  0.5074950000000  0.5080460000000 1.0
C      1  0.5328800000000  0.4593590000000  0.4877640000000 1.0
C      1  0.5207620000000  0.5467800000000  0.4900840000000 1.0
C      1  0.4486390000000  0.4920840000000  0.4896840000000 1.0
C      1  0.5383980000000  0.5637620000000  0.5342410000000 1.0
C      1  0.4289830000000  0.4994560000000  0.5354570000000 1.0
C      1  0.5308280000000  0.4434450000000  0.5357170000000 1.0
C      1  0.5695700000000  0.5444560000000  0.4998990000000 1.0
C      1  0.4279910000000  0.5357620000000  0.5026030000000 1.0
C      1  0.5040520000000  0.4207100000000  0.5007720000000 1.0
C      1  0.5380750000000  0.5352340000000  0.4656000000000 1.0
C      1  0.4507260000000  0.5147360000000  0.4666970000000 1.0
C      1  0.5117530000000  0.4503030000000  0.4652960000000 1.0
C      1  0.5268700000000  0.4909920000000  0.4504300000000 1.0
C      1  0.4947650000000  0.5276910000000  0.4527970000000 1.0
C      1  0.4783800000000  0.4818030000000  0.4509470000000 1.0
END
