TITL C-3289331-6719-225 0.00125573101756983 125000 -551.357510632915 0 0 102 (C1) n - 1
REM
REM in /nfs/bkarasulu/CARBON/AIRSS/Generating-Clusters/AIREBO/with-SteepDescent/Higher-Symm/SD-CG/HFTN-CG
REM
REM
REM
REM
REM
REM ./C.cell (b20cbc046b6831c77cfcea5457e17084)
REM
REM compiler GCC version 9.2.1 20190827 (Red Hat 9.2.1-1)
REM options -cpp -mtune=generic -march=x86-64 -g -O0 -fpre-include=/usr/include/finclude/math-vector-fortran.h
REM seed 1471888897 -845903661 655520434 -839682205 -217304848 -1195232169 646743718 1435759578 -1489887523 -298027820 590613079 580043832 -1252736751 1351624017 -1204515222 74982003 -180494087 380845705 1165837474 171449405 1940044931 1690295958 211546935 -1252990077 -987220542 1119886034 -1334871978 -448365729 -836858487 1857899500 1398977240 -1236281891 1409897119
REM
CELL 1.54180   50.00000   50.00000   50.00000   90.00000   90.00000   90.00000
LATT -1
SFAC C  
C      1  0.5463420000000  0.5505880000000  0.5199240000000 1.0
C      1  0.4714590000000  0.5822820000000  0.5277210000000 1.0
C      1  0.4302860000000  0.4899650000000  0.5311920000000 1.0
C      1  0.4860300000000  0.4157540000000  0.5237980000000 1.0
C      1  0.5653390000000  0.4598810000000  0.5283270000000 1.0
C      1  0.4368680000000  0.5510050000000  0.4714380000000 1.0
C      1  0.5291990000000  0.5732630000000  0.4704680000000 1.0
C      1  0.5696790000000  0.4828670000000  0.4747860000000 1.0
C      1  0.5299430000000  0.4291570000000  0.4758860000000 1.0
C      1  0.4367750000000  0.4609930000000  0.4795490000000 1.0
C      1  0.5263630000000  0.5045090000000  0.4524500000000 1.0
C      1  0.5044120000000  0.5269030000000  0.4532050000000 1.0
C      1  0.4775970000000  0.5124850000000  0.4432970000000 1.0
C      1  0.4838000000000  0.4822480000000  0.4431030000000 1.0
C      1  0.5137830000000  0.4766500000000  0.4511300000000 1.0
C      1  0.4774860000000  0.4984770000000  0.5650160000000 1.0
C      1  0.4971780000000  0.5222610000000  0.5571440000000 1.0
C      1  0.5240830000000  0.5080300000000  0.5491260000000 1.0
C      1  0.5179990000000  0.4766080000000  0.5537350000000 1.0
C      1  0.4883530000000  0.4699200000000  0.5528280000000 1.0
C      1  0.4294370000000  0.5037390000000  0.4514680000000 1.0
C      1  0.4765230000000  0.4384370000000  0.4620300000000 1.0
C      1  0.5541840000000  0.4472960000000  0.4431570000000 1.0
C      1  0.5573480000000  0.5299430000000  0.4578360000000 1.0
C      1  0.4811840000000  0.5699940000000  0.4574860000000 1.0
C      1  0.5719910000000  0.5066680000000  0.5484090000000 1.0
C      1  0.5277530000000  0.4309440000000  0.5479360000000 1.0
C      1  0.4590170000000  0.4423160000000  0.5364800000000 1.0
C      1  0.4468620000000  0.5417020000000  0.5420900000000 1.0
C      1  0.5167810000000  0.5664170000000  0.5416110000000 1.0
C      1  0.5554390000000  0.4347810000000  0.5301210000000 1.0
C      1  0.5687490000000  0.5320170000000  0.5259390000000 1.0
C      1  0.4981390000000  0.5900950000000  0.5277550000000 1.0
C      1  0.4336600000000  0.5177080000000  0.5225440000000 1.0
C      1  0.4599250000000  0.4261400000000  0.5109860000000 1.0
C      1  0.4534480000000  0.4387970000000  0.4863470000000 1.0
C      1  0.4188360000000  0.5310280000000  0.4677750000000 1.0
C      1  0.5061070000000  0.5871570000000  0.4696530000000 1.0
C      1  0.5786330000000  0.5095100000000  0.4747540000000 1.0
C      1  0.5569100000000  0.4275150000000  0.4650130000000 1.0
C      1  0.5180100000000  0.5214730000000  0.4000460000000 1.0
C      1  0.4861910000000  0.5244570000000  0.3929470000000 1.0
C      1  0.4700270000000  0.4947600000000  0.3955090000000 1.0
C      1  0.4955450000000  0.4738910000000  0.3918270000000 1.0
C      1  0.5242900000000  0.4890010000000  0.3989050000000 1.0
C      1  0.4793700000000  0.5193430000000  0.6048520000000 1.0
C      1  0.5121410000000  0.5217070000000  0.6084090000000 1.0
C      1  0.5257320000000  0.4924890000000  0.6029730000000 1.0
C      1  0.5006350000000  0.4697770000000  0.6033450000000 1.0
C      1  0.4712150000000  0.4862400000000  0.6024150000000 1.0
C      1  0.5404970000000  0.5570130000000  0.4453000000000 1.0
C      1  0.4530800000000  0.5580830000000  0.4467210000000 1.0
C      1  0.4352040000000  0.4699000000000  0.4496670000000 1.0
C      1  0.5075110000000  0.4298250000000  0.4540790000000 1.0
C      1  0.5663870000000  0.4730640000000  0.4472700000000 1.0
C      1  0.4671870000000  0.5647570000000  0.5520960000000 1.0
C      1  0.5468680000000  0.5540520000000  0.5510750000000 1.0
C      1  0.5685670000000  0.4742340000000  0.5555140000000 1.0
C      1  0.4973210000000  0.4170420000000  0.5558750000000 1.0
C      1  0.4179840000000  0.5017230000000  0.5556150000000 1.0
C      1  0.4560220000000  0.4731150000000  0.5295260000000 1.0
C      1  0.5066470000000  0.4386220000000  0.5244850000000 1.0
C      1  0.5588720000000  0.4926760000000  0.5217550000000 1.0
C      1  0.5131520000000  0.5464800000000  0.5137560000000 1.0
C      1  0.4643140000000  0.5519880000000  0.5145800000000 1.0
C      1  0.5430440000000  0.4789540000000  0.4928720000000 1.0
C      1  0.4888110000000  0.4571860000000  0.4875970000000 1.0
C      1  0.4447500000000  0.4940600000000  0.4794090000000 1.0
C      1  0.4690470000000  0.5499440000000  0.4823850000000 1.0
C      1  0.5365790000000  0.5424870000000  0.4816800000000 1.0
C      1  0.4733900000000  0.5013210000000  0.5332500000000 1.0
C      1  0.4874790000000  0.4644810000000  0.5192750000000 1.0
C      1  0.5296490000000  0.4773990000000  0.5240960000000 1.0
C      1  0.5256060000000  0.5165300000000  0.5169220000000 1.0
C      1  0.4856450000000  0.5326930000000  0.5282320000000 1.0
C      1  0.5332370000000  0.5098440000000  0.4844620000000 1.0
C      1  0.5196000000000  0.4594810000000  0.4780130000000 1.0
C      1  0.4729430000000  0.4788450000000  0.4716560000000 1.0
C      1  0.4674500000000  0.5183520000000  0.4724350000000 1.0
C      1  0.5026540000000  0.5447940000000  0.4812490000000 1.0
C      1  0.4570450000000  0.4531660000000  0.4383410000000 1.0
C      1  0.5263480000000  0.4426410000000  0.4344890000000 1.0
C      1  0.5636600000000  0.5022960000000  0.4386680000000 1.0
C      1  0.5083280000000  0.5631860000000  0.4379400000000 1.0
C      1  0.4429100000000  0.5308090000000  0.4358330000000 1.0
C      1  0.5477160000000  0.4526500000000  0.5649980000000 1.0
C      1  0.4724410000000  0.4343680000000  0.5606340000000 1.0
C      1  0.4344570000000  0.5212540000000  0.5662640000000 1.0
C      1  0.4932710000000  0.5614890000000  0.5637380000000 1.0
C      1  0.5542450000000  0.5297210000000  0.5638960000000 1.0
C      1  0.5135850000000  0.4653050000000  0.4192660000000 1.0
C      1  0.5384480000000  0.5083430000000  0.4219320000000 1.0
C      1  0.4991280000000  0.5381560000000  0.4215330000000 1.0
C      1  0.4639680000000  0.5197790000000  0.4167190000000 1.0
C      1  0.4738270000000  0.4686150000000  0.4170520000000 1.0
C      1  0.4766490000000  0.4598720000000  0.5813990000000 1.0
C      1  0.4553340000000  0.5096840000000  0.5835830000000 1.0
C      1  0.4979010000000  0.5387130000000  0.5835510000000 1.0
C      1  0.5318150000000  0.5173690000000  0.5808960000000 1.0
C      1  0.5265960000000  0.4671490000000  0.5824470000000 1.0
C      1  0.5014380000000  0.4945100000000  0.5158540000000 1.0
C      1  0.4880830000000  0.5015280000000  0.4896610000000 1.0
END
