TITL C-3289323-3850-421 -0.00119399553500608 125000 -1120.61649106783 0 0 190 (C1) n - 1
REM
REM in /nfs/bkarasulu/CARBON/AIRSS/Generating-Clusters/AIREBO/with-SteepDescent/Higher-Symm/SD-CG/HFTN-CG
REM
REM
REM
REM
REM
REM ./C.cell (b20cbc046b6831c77cfcea5457e17084)
REM
REM compiler GCC version 9.2.1 20190827 (Red Hat 9.2.1-1)
REM options -cpp -mtune=generic -march=x86-64 -g -O0 -fpre-include=/usr/include/finclude/math-vector-fortran.h
REM seed -1537550229 -68415392 1022351761 -499755755 1023238106 796681752 2003028517 950408967 -2144865952 -239255573 -847540533 -41631431 795744721 1329137205 112384008 2050673193 535206288 392461725 -1425012547 1264855035 1284719478 1472345321 -71523636 -258967842 -955335686 -1258654430 -149342259 198870324 1964924814 851084378 -1106315749 1230651350 -2043974107
REM
CELL 1.54180   50.00000   50.00000   50.00000   90.00000   90.00000   90.00000
LATT -1
SFAC C  
C      1  0.4808360000000  0.5224820000000  0.5534120000000 1.0
C      1  0.5459450000000  0.5304620000000  0.5350010000000 1.0
C      1  0.5235730000000  0.5373360000000  0.4823630000000 1.0
C      1  0.4821920000000  0.5351700000000  0.4516210000000 1.0
C      1  0.4436520000000  0.5346970000000  0.5029610000000 1.0
C      1  0.5133390000000  0.5279900000000  0.5451350000000 1.0
C      1  0.4526330000000  0.5315710000000  0.5365150000000 1.0
C      1  0.4626520000000  0.5234150000000  0.4768970000000 1.0
C      1  0.5066300000000  0.5225560000000  0.4657300000000 1.0
C      1  0.5358320000000  0.5248150000000  0.5041130000000 1.0
C      1  0.4694270000000  0.4151740000000  0.4291440000000 1.0
C      1  0.4328930000000  0.4112060000000  0.5089720000000 1.0
C      1  0.4819350000000  0.4165120000000  0.5832740000000 1.0
C      1  0.5705600000000  0.4229340000000  0.5426390000000 1.0
C      1  0.5545290000000  0.4214570000000  0.4449440000000 1.0
C      1  0.5324890000000  0.4171040000000  0.4199080000000 1.0
C      1  0.5745510000000  0.4137040000000  0.5101970000000 1.0
C      1  0.5150060000000  0.4132580000000  0.5758850000000 1.0
C      1  0.4350420000000  0.4115700000000  0.5399740000000 1.0
C      1  0.4418600000000  0.4132300000000  0.4442200000000 1.0
C      1  0.4841170000000  0.4518670000000  0.4544090000000 1.0
C      1  0.4602420000000  0.4436300000000  0.4980280000000 1.0
C      1  0.4859720000000  0.4499850000000  0.5421060000000 1.0
C      1  0.5327290000000  0.4537600000000  0.5260680000000 1.0
C      1  0.5283130000000  0.4510160000000  0.4766090000000 1.0
C      1  0.5121930000000  0.4406740000000  0.4527410000000 1.0
C      1  0.5393580000000  0.4386270000000  0.4997730000000 1.0
C      1  0.5148080000000  0.4389520000000  0.5438710000000 1.0
C      1  0.4639080000000  0.4368380000000  0.5286720000000 1.0
C      1  0.4633290000000  0.4355100000000  0.4690910000000 1.0
C      1  0.5874350000000  0.4363240000000  0.4910820000000 1.0
C      1  0.5155770000000  0.4388600000000  0.4047600000000 1.0
C      1  0.4216390000000  0.4332670000000  0.4589790000000 1.0
C      1  0.4315080000000  0.4350530000000  0.5602890000000 1.0
C      1  0.5397040000000  0.4339550000000  0.5874740000000 1.0
C      1  0.4171780000000  0.4312480000000  0.4927540000000 1.0
C      1  0.4820030000000  0.4329580000000  0.4048480000000 1.0
C      1  0.5803580000000  0.4402700000000  0.4580510000000 1.0
C      1  0.5689980000000  0.4290860000000  0.5724800000000 1.0
C      1  0.4536850000000  0.4319100000000  0.5846120000000 1.0
C      1  0.4599440000000  0.4822480000000  0.6200910000000 1.0
C      1  0.5861970000000  0.4870740000000  0.5750470000000 1.0
C      1  0.5954980000000  0.4866360000000  0.4384470000000 1.0
C      1  0.4729120000000  0.4920390000000  0.3821190000000 1.0
C      1  0.3863350000000  0.4739690000000  0.4959820000000 1.0
C      1  0.5387700000000  0.4867770000000  0.6126920000000 1.0
C      1  0.4142280000000  0.4833610000000  0.5757410000000 1.0
C      1  0.3984040000000  0.4755500000000  0.4366710000000 1.0
C      1  0.5360390000000  0.4826960000000  0.3852900000000 1.0
C      1  0.6133190000000  0.4788870000000  0.4972950000000 1.0
C      1  0.3921110000000  0.5005720000000  0.4547620000000 1.0
C      1  0.4295450000000  0.5082360000000  0.5862150000000 1.0
C      1  0.5486540000000  0.5136570000000  0.6012230000000 1.0
C      1  0.5995720000000  0.5021300000000  0.4877120000000 1.0
C      1  0.5223220000000  0.5052110000000  0.3962660000000 1.0
C      1  0.5911710000000  0.5127760000000  0.4598210000000 1.0
C      1  0.5672840000000  0.5112200000000  0.5797710000000 1.0
C      1  0.4554650000000  0.5087020000000  0.6030030000000 1.0
C      1  0.3915710000000  0.5013730000000  0.4823430000000 1.0
C      1  0.4931370000000  0.5158380000000  0.3971860000000 1.0
C      1  0.4632940000000  0.5590030000000  0.4080210000000 1.0
C      1  0.3938370000000  0.5570020000000  0.5090150000000 1.0
C      1  0.4783020000000  0.5564840000000  0.6132750000000 1.0
C      1  0.5942640000000  0.5572760000000  0.5613560000000 1.0
C      1  0.5827270000000  0.5574380000000  0.4374580000000 1.0
C      1  0.5376380000000  0.5536210000000  0.4017050000000 1.0
C      1  0.6037530000000  0.5493810000000  0.5082500000000 1.0
C      1  0.5269940000000  0.5341400000000  0.6008850000000 1.0
C      1  0.4058530000000  0.5565600000000  0.5606980000000 1.0
C      1  0.4224000000000  0.5617270000000  0.4424790000000 1.0
C      1  0.4841640000000  0.5654730000000  0.4539450000000 1.0
C      1  0.4617930000000  0.5632320000000  0.4991520000000 1.0
C      1  0.4895990000000  0.5755870000000  0.5431480000000 1.0
C      1  0.5427400000000  0.5834690000000  0.5163260000000 1.0
C      1  0.5309780000000  0.5620120000000  0.4730850000000 1.0
C      1  0.5138800000000  0.5751340000000  0.4514220000000 1.0
C      1  0.5536430000000  0.5761130000000  0.4869520000000 1.0
C      1  0.5182520000000  0.5836330000000  0.5390510000000 1.0
C      1  0.4676190000000  0.5816180000000  0.5225720000000 1.0
C      1  0.4624470000000  0.5777510000000  0.4701430000000 1.0
C      1  0.4360990000000  0.4835490000000  0.4570010000000 1.0
C      1  0.4457150000000  0.4819790000000  0.5476010000000 1.0
C      1  0.5244090000000  0.4823170000000  0.5686990000000 1.0
C      1  0.5654890000000  0.4828990000000  0.4947730000000 1.0
C      1  0.5133310000000  0.4865390000000  0.4303810000000 1.0
C      1  0.5614610000000  0.4853940000000  0.4609280000000 1.0
C      1  0.5533320000000  0.4798140000000  0.5538900000000 1.0
C      1  0.4688160000000  0.4725200000000  0.5702920000000 1.0
C      1  0.4263780000000  0.4831230000000  0.4894420000000 1.0
C      1  0.4850350000000  0.4833330000000  0.4188660000000 1.0
C      1  0.5636140000000  0.4531860000000  0.5370120000000 1.0
C      1  0.5502200000000  0.4545700000000  0.4514010000000 1.0
C      1  0.4706960000000  0.4550330000000  0.4260790000000 1.0
C      1  0.4216570000000  0.4578720000000  0.5083670000000 1.0
C      1  0.4896270000000  0.4459100000000  0.5741540000000 1.0
C      1  0.4372610000000  0.4537500000000  0.5342820000000 1.0
C      1  0.4447850000000  0.4548230000000  0.4481300000000 1.0
C      1  0.5253400000000  0.4584730000000  0.4289220000000 1.0
C      1  0.5666970000000  0.4549590000000  0.5052100000000 1.0
C      1  0.5200690000000  0.4525690000000  0.5717360000000 1.0
C      1  0.5806080000000  0.5735560000000  0.5426790000000 1.0
C      1  0.5685070000000  0.5810000000000  0.4297070000000 1.0
C      1  0.4467340000000  0.5812580000000  0.4059170000000 1.0
C      1  0.4140930000000  0.5785280000000  0.5202240000000 1.0
C      1  0.4923550000000  0.5678340000000  0.5913820000000 1.0
C      1  0.4232600000000  0.5734440000000  0.5461640000000 1.0
C      1  0.4239460000000  0.5815590000000  0.4219320000000 1.0
C      1  0.5422450000000  0.5791760000000  0.4193390000000 1.0
C      1  0.5931910000000  0.5767620000000  0.5175780000000 1.0
C      1  0.5193560000000  0.5578600000000  0.5864550000000 1.0
C      1  0.5134720000000  0.6053020000000  0.4524980000000 1.0
C      1  0.4665150000000  0.6075440000000  0.4698600000000 1.0
C      1  0.4697420000000  0.6113240000000  0.5170310000000 1.0
C      1  0.5183550000000  0.6128470000000  0.5282040000000 1.0
C      1  0.5488110000000  0.6078690000000  0.4854350000000 1.0
C      1  0.4876330000000  0.6160920000000  0.4535170000000 1.0
C      1  0.5374030000000  0.6167790000000  0.4614420000000 1.0
C      1  0.5419440000000  0.6187490000000  0.5120000000000 1.0
C      1  0.4925880000000  0.6238320000000  0.5277040000000 1.0
C      1  0.4582260000000  0.6201760000000  0.4932430000000 1.0
C      1  0.4901820000000  0.4010680000000  0.5541270000000 1.0
C      1  0.5470680000000  0.4033200000000  0.5290250000000 1.0
C      1  0.5415310000000  0.4009050000000  0.4673040000000 1.0
C      1  0.4896300000000  0.3979610000000  0.4450050000000 1.0
C      1  0.4638620000000  0.4097630000000  0.4993730000000 1.0
C      1  0.5214230000000  0.4079040000000  0.5429270000000 1.0
C      1  0.4676700000000  0.4047570000000  0.5332610000000 1.0
C      1  0.4658000000000  0.4030950000000  0.4668800000000 1.0
C      1  0.5164890000000  0.4100510000000  0.4483970000000 1.0
C      1  0.5447460000000  0.4077160000000  0.4956430000000 1.0
C      1  0.5091510000000  0.4840710000000  0.6221510000000 1.0
C      1  0.6148420000000  0.4789420000000  0.5264850000000 1.0
C      1  0.5642280000000  0.4798060000000  0.3924860000000 1.0
C      1  0.4242210000000  0.4831340000000  0.4188160000000 1.0
C      1  0.4062610000000  0.4875910000000  0.5461260000000 1.0
C      1  0.4838140000000  0.4803260000000  0.6336450000000 1.0
C      1  0.3987100000000  0.4901130000000  0.5200230000000 1.0
C      1  0.4457800000000  0.4874070000000  0.4022280000000 1.0
C      1  0.5843750000000  0.4838020000000  0.4115630000000 1.0
C      1  0.5981670000000  0.4892510000000  0.5471950000000 1.0
C      1  0.4640460000000  0.4852130000000  0.5216600000000 1.0
C      1  0.5117400000000  0.4960000000000  0.5442880000000 1.0
C      1  0.5366050000000  0.4956770000000  0.5008090000000 1.0
C      1  0.5095840000000  0.4939630000000  0.4596990000000 1.0
C      1  0.4609530000000  0.4940530000000  0.4731630000000 1.0
C      1  0.5236400000000  0.4813320000000  0.5215520000000 1.0
C      1  0.4861950000000  0.4815160000000  0.5421150000000 1.0
C      1  0.4566410000000  0.4734810000000  0.4972210000000 1.0
C      1  0.4856320000000  0.4789410000000  0.4666480000000 1.0
C      1  0.5318020000000  0.4820810000000  0.4737840000000 1.0
C      1  0.5772430000000  0.5349270000000  0.4215180000000 1.0
C      1  0.4497740000000  0.5347660000000  0.4173070000000 1.0
C      1  0.3954240000000  0.5316080000000  0.5213670000000 1.0
C      1  0.4782570000000  0.5286580000000  0.6113240000000 1.0
C      1  0.5943810000000  0.5308400000000  0.5524880000000 1.0
C      1  0.4276130000000  0.5353620000000  0.4331330000000 1.0
C      1  0.5514480000000  0.5311260000000  0.4088060000000 1.0
C      1  0.5972380000000  0.5280870000000  0.5238690000000 1.0
C      1  0.5032110000000  0.5196230000000  0.6052840000000 1.0
C      1  0.4033690000000  0.5312970000000  0.5482800000000 1.0
C      1  0.4166340000000  0.5130190000000  0.5023980000000 1.0
C      1  0.4775350000000  0.5042600000000  0.5788120000000 1.0
C      1  0.5699880000000  0.5082280000000  0.5453840000000 1.0
C      1  0.5632850000000  0.5099590000000  0.4405670000000 1.0
C      1  0.4654030000000  0.5102750000000  0.4156200000000 1.0
C      1  0.5782720000000  0.5068350000000  0.5119250000000 1.0
C      1  0.5060890000000  0.4922360000000  0.5904670000000 1.0
C      1  0.4297490000000  0.5116200000000  0.5523790000000 1.0
C      1  0.4204380000000  0.5081220000000  0.4415890000000 1.0
C      1  0.5345440000000  0.5097010000000  0.4248950000000 1.0
C      1  0.5252100000000  0.5562400000000  0.5571130000000 1.0
C      1  0.5822900000000  0.5638160000000  0.4874260000000 1.0
C      1  0.5138100000000  0.5600970000000  0.4224300000000 1.0
C      1  0.4324420000000  0.5690390000000  0.4674740000000 1.0
C      1  0.4518830000000  0.5639200000000  0.5469690000000 1.0
C      1  0.4769230000000  0.5713190000000  0.5689100000000 1.0
C      1  0.4225490000000  0.5595590000000  0.4932900000000 1.0
C      1  0.4889630000000  0.5421960000000  0.4188740000000 1.0
C      1  0.5900500000000  0.5467150000000  0.4623670000000 1.0
C      1  0.5525190000000  0.5635560000000  0.5392320000000 1.0
C      1  0.3951220000000  0.4510520000000  0.4504900000000 1.0
C      1  0.4252300000000  0.4584700000000  0.5831870000000 1.0
C      1  0.5492410000000  0.4621780000000  0.6041730000000 1.0
C      1  0.6092310000000  0.4565840000000  0.4802590000000 1.0
C      1  0.5191640000000  0.4607130000000  0.3809910000000 1.0
C      1  0.6031660000000  0.4627830000000  0.4512210000000 1.0
C      1  0.5678060000000  0.4608330000000  0.5781110000000 1.0
C      1  0.4541570000000  0.4620680000000  0.5987900000000 1.0
C      1  0.3934790000000  0.4510800000000  0.4808510000000 1.0
C      1  0.4877810000000  0.4638570000000  0.3911320000000 1.0
END
