TITL C-3289325-7307-532 -0.000142525844431594 125000 -211.353243837462 0 0 36 (Cs) n - 1
REM
REM in /nfs/bkarasulu/CARBON/AIRSS/Generating-Clusters/AIREBO/with-SteepDescent/Higher-Symm/SD-CG/HFTN-CG
REM
REM
REM
REM
REM
REM ./C.cell (b20cbc046b6831c77cfcea5457e17084)
REM
REM compiler GCC version 9.2.1 20190827 (Red Hat 9.2.1-1)
REM options -cpp -mtune=generic -march=x86-64 -g -O0 -fpre-include=/usr/include/finclude/math-vector-fortran.h
REM seed -1645178190 -809289329 -758555195 -567111909 -170363792 -555620059 -1038503479 -467572505 -1806594636 47204981 -873372113 -2058593036 -636591968 1214053208 1253788394 -1957137414 -1022001838 104574262 -399572425 1240085227 1492674116 -1888258838 -605139726 -841264373 -2024606721 -1018905467 319598365 1201730585 -1352879344 1876476433 1279209507 -1389414278 566505301
REM
CELL 1.54180   50.00000   50.00000   50.00000   90.00000   90.00000   90.00000
LATT -1
SFAC C  
C      1  0.4840630000000  0.5465990000000  0.5138920000000 1.0
C      1  0.4671850000000  0.4721310000000  0.5285510000000 1.0
C      1  0.5568460000000  0.4844740000000  0.5253370000000 1.0
C      1  0.4840680000000  0.5466140000000  0.4861530000000 1.0
C      1  0.4671950000000  0.4721630000000  0.4714060000000 1.0
C      1  0.5568550000000  0.4845020000000  0.4746660000000 1.0
C      1  0.4879750000000  0.4580820000000  0.5140000000000 1.0
C      1  0.4629130000000  0.5366370000000  0.5290730000000 1.0
C      1  0.5482180000000  0.5092920000000  0.5140110000000 1.0
C      1  0.4879800000000  0.4580970000000  0.4859500000000 1.0
C      1  0.4629230000000  0.5366690000000  0.4709540000000 1.0
C      1  0.5482230000000  0.5093070000000  0.4860160000000 1.0
C      1  0.4739760000000  0.5146780000000  0.5543290000000 1.0
C      1  0.5028730000000  0.4703820000000  0.5585040000000 1.0
C      1  0.5274970000000  0.5143290000000  0.5613140000000 1.0
C      1  0.4739950000000  0.5147370000000  0.4456780000000 1.0
C      1  0.5028930000000  0.4704460000000  0.4414650000000 1.0
C      1  0.5275180000000  0.5143960000000  0.4387110000000 1.0
C      1  0.4788870000000  0.4836330000000  0.5523580000000 1.0
C      1  0.5016780000000  0.5297580000000  0.5553320000000 1.0
C      1  0.5281560000000  0.4863330000000  0.5656080000000 1.0
C      1  0.4789050000000  0.4836900000000  0.4476170000000 1.0
C      1  0.5016970000000  0.5298190000000  0.4447010000000 1.0
C      1  0.5281790000000  0.4864050000000  0.4343870000000 1.0
C      1  0.5332510000000  0.5253730000000  0.5316060000000 1.0
C      1  0.4450930000000  0.5123210000000  0.5365410000000 1.0
C      1  0.5114490000000  0.4546920000000  0.5317670000000 1.0
C      1  0.5332620000000  0.5254080000000  0.4684340000000 1.0
C      1  0.4451060000000  0.5123610000000  0.4634530000000 1.0
C      1  0.5114600000000  0.4547260000000  0.4681870000000 1.0
C      1  0.5384180000000  0.4698770000000  0.5408030000000 1.0
C      1  0.4432790000000  0.4870080000000  0.5237110000000 1.0
C      1  0.5081280000000  0.5440380000000  0.5285030000000 1.0
C      1  0.5384320000000  0.4699220000000  0.4591780000000 1.0
C      1  0.4432870000000  0.4870340000000  0.4762540000000 1.0
C      1  0.5081380000000  0.5440690000000  0.4715480000000 1.0
END
