TITL C-3289324-3781-693 -4.48884534576898e-07 125000 -103.065494869947 0 0 19 (C1) n - 1
REM
REM in /nfs/bkarasulu/CARBON/AIRSS/Generating-Clusters/AIREBO/with-SteepDescent/Higher-Symm/SD-CG/HFTN-CG
REM
REM
REM
REM
REM
REM ./C.cell (b20cbc046b6831c77cfcea5457e17084)
REM
REM compiler GCC version 9.2.1 20190827 (Red Hat 9.2.1-1)
REM options -cpp -mtune=generic -march=x86-64 -g -O0 -fpre-include=/usr/include/finclude/math-vector-fortran.h
REM seed 273456728 -1164191305 1943793406 -1535462626 -1696367930 -2084539429 1733338479 -683168683 632300322 -465844302 -1402065878 -482784296 -42716236 -513832369 206069828 138472997 -772229884 1657631952 2144087946 -1529207371 -2108406630 -576728930 -1225825329 721765018 1182200293 -517096061 798747839 594708832 133357138 807795705 328885371 -1732763030 -468339236
REM
CELL 1.54180   50.00000   50.00000   50.00000   90.00000   90.00000   90.00000
LATT -1
SFAC C  
C      1  0.4962070000000  0.4710050000000  0.5315010000000 1.0
C      1  0.4592620000000  0.4588800000000  0.4747580000000 1.0
C      1  0.4347960000000  0.5056890000000  0.5062570000000 1.0
C      1  0.4612200000000  0.5391980000000  0.4615670000000 1.0
C      1  0.4957660000000  0.5505390000000  0.5168750000000 1.0
C      1  0.5263990000000  0.5315410000000  0.4573630000000 1.0
C      1  0.5514540000000  0.5232330000000  0.5201450000000 1.0
C      1  0.5662120000000  0.4724650000000  0.4948150000000 1.0
C      1  0.5190160000000  0.4504520000000  0.4681180000000 1.0
C      1  0.5205750000000  0.5264060000000  0.4832190000000 1.0
C      1  0.5384610000000  0.5114050000000  0.4996320000000 1.0
C      1  0.5417090000000  0.4838250000000  0.4942670000000 1.0
C      1  0.5187660000000  0.4683660000000  0.4883360000000 1.0
C      1  0.4953310000000  0.4723100000000  0.5038390000000 1.0
C      1  0.4707580000000  0.4776500000000  0.4904220000000 1.0
C      1  0.4586050000000  0.5032470000000  0.4937210000000 1.0
C      1  0.4716760000000  0.5261470000000  0.4827810000000 1.0
C      1  0.4960710000000  0.5350180000000  0.4947820000000 1.0
C      1  0.4975260000000  0.4723130000000  0.5576430000000 1.0
END
