TITL C-3289333-7213-712 -0.000650172141946137 125000 -795.190894721306 0 0 146 (C1) n - 1
REM
REM in /nfs/bkarasulu/CARBON/AIRSS/Generating-Clusters/AIREBO/with-SteepDescent/Higher-Symm/SD-CG/HFTN-CG
REM
REM
REM
REM
REM
REM ./C.cell (b20cbc046b6831c77cfcea5457e17084)
REM
REM compiler GCC version 9.2.1 20190827 (Red Hat 9.2.1-1)
REM options -cpp -mtune=generic -march=x86-64 -g -O0 -fpre-include=/usr/include/finclude/math-vector-fortran.h
REM seed -1669746151 2055318005 -2066528435 -1072572334 -1456211098 299974743 -2147110082 607996818 -872141418 -1003731104 899842207 1893163774 1947655101 1581481349 -425756580 -1029736696 -833508985 -966104406 -1711222732 -1009896148 -380012616 -1817336152 651369412 1987321410 -132535746 -783376475 853739499 -1478141738 -445585142 -1663359766 -1022306691 1277767072 131507635
REM
CELL 1.54180   50.00000   50.00000   50.00000   90.00000   90.00000   90.00000
LATT -1
SFAC C  
C      1  0.4750350000000  0.5215370000000  0.5187400000000 1.0
C      1  0.4918360000000  0.5162800000000  0.4744490000000 1.0
C      1  0.5219230000000  0.5225920000000  0.4890140000000 1.0
C      1  0.5089060000000  0.5185710000000  0.5194030000000 1.0
C      1  0.4715650000000  0.4796430000000  0.5084000000000 1.0
C      1  0.4959690000000  0.4853500000000  0.4882480000000 1.0
C      1  0.5262570000000  0.4758220000000  0.4917640000000 1.0
C      1  0.5203240000000  0.4772560000000  0.5248870000000 1.0
C      1  0.4752060000000  0.4476790000000  0.4374940000000 1.0
C      1  0.5637800000000  0.4542830000000  0.4763280000000 1.0
C      1  0.5218350000000  0.4465500000000  0.5621440000000 1.0
C      1  0.4366400000000  0.4446420000000  0.5231580000000 1.0
C      1  0.4752530000000  0.5510550000000  0.4386230000000 1.0
C      1  0.5606130000000  0.5539790000000  0.4750330000000 1.0
C      1  0.5232430000000  0.5573200000000  0.5625020000000 1.0
C      1  0.4366560000000  0.5568610000000  0.5262810000000 1.0
C      1  0.5505510000000  0.4511830000000  0.5249460000000 1.0
C      1  0.4779580000000  0.4594750000000  0.5460110000000 1.0
C      1  0.4470980000000  0.4596930000000  0.4804050000000 1.0
C      1  0.5144380000000  0.4708050000000  0.4538990000000 1.0
C      1  0.5472170000000  0.5374690000000  0.5188570000000 1.0
C      1  0.4828410000000  0.5457800000000  0.5491570000000 1.0
C      1  0.4531700000000  0.5397940000000  0.4777240000000 1.0
C      1  0.5194990000000  0.5421410000000  0.4521260000000 1.0
C      1  0.5697350000000  0.5125880000000  0.5453690000000 1.0
C      1  0.4517690000000  0.5160540000000  0.5817690000000 1.0
C      1  0.4301930000000  0.5088780000000  0.4520510000000 1.0
C      1  0.5437740000000  0.5179200000000  0.4268300000000 1.0
C      1  0.5754270000000  0.4847250000000  0.5591750000000 1.0
C      1  0.4479240000000  0.4877160000000  0.5678390000000 1.0
C      1  0.4120500000000  0.4833080000000  0.4467250000000 1.0
C      1  0.5541620000000  0.4893880000000  0.4346950000000 1.0
C      1  0.5949330000000  0.4921430000000  0.4763650000000 1.0
C      1  0.5173730000000  0.4872740000000  0.5929870000000 1.0
C      1  0.4068170000000  0.4865020000000  0.5251200000000 1.0
C      1  0.4712230000000  0.4863240000000  0.4064140000000 1.0
C      1  0.5952150000000  0.5195310000000  0.4710160000000 1.0
C      1  0.5227350000000  0.5147000000000  0.5907930000000 1.0
C      1  0.4094990000000  0.5142630000000  0.5269320000000 1.0
C      1  0.4707300000000  0.5142310000000  0.4039600000000 1.0
C      1  0.4747600000000  0.4055480000000  0.4709510000000 1.0
C      1  0.5309120000000  0.4093840000000  0.4682110000000 1.0
C      1  0.5274940000000  0.3991000000000  0.5266830000000 1.0
C      1  0.4731030000000  0.4008240000000  0.5245650000000 1.0
C      1  0.4714140000000  0.5967420000000  0.4725330000000 1.0
C      1  0.5235810000000  0.5962440000000  0.4720650000000 1.0
C      1  0.5318130000000  0.6019680000000  0.5269190000000 1.0
C      1  0.4758290000000  0.5989100000000  0.5264330000000 1.0
C      1  0.4963720000000  0.5806380000000  0.4635970000000 1.0
C      1  0.5366230000000  0.5847210000000  0.4981630000000 1.0
C      1  0.5044500000000  0.5852740000000  0.5349260000000 1.0
C      1  0.4633430000000  0.5839030000000  0.5019710000000 1.0
C      1  0.5002020000000  0.4198450000000  0.4603410000000 1.0
C      1  0.5408890000000  0.4124800000000  0.4986850000000 1.0
C      1  0.5014370000000  0.4139870000000  0.5348760000000 1.0
C      1  0.4642560000000  0.4175780000000  0.4998020000000 1.0
C      1  0.5824570000000  0.4518270000000  0.5630560000000 1.0
C      1  0.4423930000000  0.4448450000000  0.5818490000000 1.0
C      1  0.4090980000000  0.4501210000000  0.4497880000000 1.0
C      1  0.5204660000000  0.4229500000000  0.3901430000000 1.0
C      1  0.5837360000000  0.5540780000000  0.5536710000000 1.0
C      1  0.4485030000000  0.5556540000000  0.5863100000000 1.0
C      1  0.4152660000000  0.5516150000000  0.4458680000000 1.0
C      1  0.5509860000000  0.5542710000000  0.4119600000000 1.0
C      1  0.4741790000000  0.4176160000000  0.5540770000000 1.0
C      1  0.4437470000000  0.4204300000000  0.4735430000000 1.0
C      1  0.5249960000000  0.4268360000000  0.4389730000000 1.0
C      1  0.5582750000000  0.4114240000000  0.5279560000000 1.0
C      1  0.4782940000000  0.5846090000000  0.5567630000000 1.0
C      1  0.4429330000000  0.5793990000000  0.4758690000000 1.0
C      1  0.5219470000000  0.5806110000000  0.4419980000000 1.0
C      1  0.5539570000000  0.5766260000000  0.5244870000000 1.0
C      1  0.5503540000000  0.5084050000000  0.5011250000000 1.0
C      1  0.4988390000000  0.5157760000000  0.5507090000000 1.0
C      1  0.4498490000000  0.5185710000000  0.5017760000000 1.0
C      1  0.5025180000000  0.5143110000000  0.4450060000000 1.0
C      1  0.5585450000000  0.4754110000000  0.5024580000000 1.0
C      1  0.5011440000000  0.4832120000000  0.5469500000000 1.0
C      1  0.4439580000000  0.4872940000000  0.4969240000000 1.0
C      1  0.5059190000000  0.4893940000000  0.4347110000000 1.0
C      1  0.5394670000000  0.5819070000000  0.5533290000000 1.0
C      1  0.4490600000000  0.5825430000000  0.5393470000000 1.0
C      1  0.4604130000000  0.5774930000000  0.4467560000000 1.0
C      1  0.5503440000000  0.5797540000000  0.4607640000000 1.0
C      1  0.5366300000000  0.4190210000000  0.5530600000000 1.0
C      1  0.4458680000000  0.4177720000000  0.5353100000000 1.0
C      1  0.4613880000000  0.4217750000000  0.4447840000000 1.0
C      1  0.5528880000000  0.4318260000000  0.4580350000000 1.0
C      1  0.4184830000000  0.4630330000000  0.5427740000000 1.0
C      1  0.4546550000000  0.4660160000000  0.4210180000000 1.0
C      1  0.5856260000000  0.4706180000000  0.4611000000000 1.0
C      1  0.5369050000000  0.4648360000000  0.5854930000000 1.0
C      1  0.4217730000000  0.5362280000000  0.5448450000000 1.0
C      1  0.4551960000000  0.5339050000000  0.4208150000000 1.0
C      1  0.5787660000000  0.5383130000000  0.4551010000000 1.0
C      1  0.5426910000000  0.5353880000000  0.5773410000000 1.0
C      1  0.4851040000000  0.5494520000000  0.4711450000000 1.0
C      1  0.5276130000000  0.5555920000000  0.4831090000000 1.0
C      1  0.5201360000000  0.5558340000000  0.5282270000000 1.0
C      1  0.4698090000000  0.5551380000000  0.5189260000000 1.0
C      1  0.4926530000000  0.4520580000000  0.4663660000000 1.0
C      1  0.5323050000000  0.4423830000000  0.4905340000000 1.0
C      1  0.5168660000000  0.4436350000000  0.5286180000000 1.0
C      1  0.4694870000000  0.4476240000000  0.5148440000000 1.0
C      1  0.5196920000000  0.5166720000000  0.4090020000000 1.0
C      1  0.5853800000000  0.5141110000000  0.5193840000000 1.0
C      1  0.4846620000000  0.5212410000000  0.5805870000000 1.0
C      1  0.4212910000000  0.5164240000000  0.4834250000000 1.0
C      1  0.5107700000000  0.4880980000000  0.4043110000000 1.0
C      1  0.5904820000000  0.4864530000000  0.5062950000000 1.0
C      1  0.4803630000000  0.4893650000000  0.5737630000000 1.0
C      1  0.4152290000000  0.4837950000000  0.4790790000000 1.0
C      1  0.5482580000000  0.4796850000000  0.5410380000000 1.0
C      1  0.4628670000000  0.4888780000000  0.5380120000000 1.0
C      1  0.4704120000000  0.4776870000000  0.4685950000000 1.0
C      1  0.5407000000000  0.4840860000000  0.4632300000000 1.0
C      1  0.5365570000000  0.5113270000000  0.5378190000000 1.0
C      1  0.4596870000000  0.5208820000000  0.5490750000000 1.0
C      1  0.4602520000000  0.5080420000000  0.4649040000000 1.0
C      1  0.5390300000000  0.5155860000000  0.4604700000000 1.0
C      1  0.4299630000000  0.4652210000000  0.5680910000000 1.0
C      1  0.4284190000000  0.4631700000000  0.4268620000000 1.0
C      1  0.5780040000000  0.4765020000000  0.4345280000000 1.0
C      1  0.5640680000000  0.4667660000000  0.5843230000000 1.0
C      1  0.4307890000000  0.5378280000000  0.5708920000000 1.0
C      1  0.4300090000000  0.5316880000000  0.4331850000000 1.0
C      1  0.5681520000000  0.5381270000000  0.4294120000000 1.0
C      1  0.5682300000000  0.5344970000000  0.5660570000000 1.0
C      1  0.5056620000000  0.5441160000000  0.5884630000000 1.0
C      1  0.4152170000000  0.5405530000000  0.5056790000000 1.0
C      1  0.4943170000000  0.5377160000000  0.4138050000000 1.0
C      1  0.5811630000000  0.5377210000000  0.4967120000000 1.0
C      1  0.4978150000000  0.4620850000000  0.5805820000000 1.0
C      1  0.4145010000000  0.4611300000000  0.5034110000000 1.0
C      1  0.4926300000000  0.4601430000000  0.4110610000000 1.0
C      1  0.6110380000000  0.4707910000000  0.5169710000000 1.0
C      1  0.5712570000000  0.4359670000000  0.5434810000000 1.0
C      1  0.4722870000000  0.4415570000000  0.5728860000000 1.0
C      1  0.4216980000000  0.4421030000000  0.4759110000000 1.0
C      1  0.5145450000000  0.4358430000000  0.4122130000000 1.0
C      1  0.5754840000000  0.5558840000000  0.5233270000000 1.0
C      1  0.4783220000000  0.5607350000000  0.5769310000000 1.0
C      1  0.4243400000000  0.5554330000000  0.4762280000000 1.0
C      1  0.5215230000000  0.5561400000000  0.4226270000000 1.0
C      1  0.4990020000000  0.5559460000000  0.5015060000000 1.0
C      1  0.4997710000000  0.4469040000000  0.4993800000000 1.0
END
