TITL C-3289335-9438-510 0.000678688810443196 125000 -963.255949335559 0 0 170 (C1) n - 1
REM
REM in /nfs/bkarasulu/CARBON/AIRSS/Generating-Clusters/AIREBO/with-SteepDescent/Higher-Symm/SD-CG/HFTN-CG
REM
REM
REM
REM
REM
REM ./C.cell (b20cbc046b6831c77cfcea5457e17084)
REM
REM compiler GCC version 9.2.1 20190827 (Red Hat 9.2.1-1)
REM options -cpp -mtune=generic -march=x86-64 -g -O0 -fpre-include=/usr/include/finclude/math-vector-fortran.h
REM seed 1000878376 174663470 1294504118 -1134727284 -1408276758 552854235 -1342346079 -1953942332 1006998502 -363939678 963707011 469643785 1503262670 -1340031676 -1016984356 551563995 865818412 -718930347 1671270622 -1711594353 809743641 -929226142 -972618665 -2091843901 1421753922 528886700 2101346355 1157283461 -2113085894 -383553750 -2046161623 -2036660966 142424031
REM
CELL 1.54180   50.00000   50.00000   50.00000   90.00000   90.00000   90.00000
LATT -1
SFAC C  
C      1  0.4714650000000  0.5202300000000  0.4452350000000 1.0
C      1  0.4752190000000  0.5516160000000  0.5014830000000 1.0
C      1  0.4710700000000  0.5091950000000  0.5530990000000 1.0
C      1  0.4624120000000  0.4501770000000  0.5321050000000 1.0
C      1  0.4694850000000  0.4617380000000  0.4618920000000 1.0
C      1  0.4987040000000  0.5426940000000  0.5399340000000 1.0
C      1  0.5054330000000  0.4755290000000  0.5669630000000 1.0
C      1  0.5009180000000  0.4416580000000  0.4961840000000 1.0
C      1  0.5110410000000  0.4856820000000  0.4382080000000 1.0
C      1  0.5044770000000  0.5541450000000  0.4665470000000 1.0
C      1  0.5551020000000  0.5251230000000  0.5872220000000 1.0
C      1  0.5575460000000  0.4294910000000  0.5479300000000 1.0
C      1  0.5584340000000  0.4308250000000  0.4563440000000 1.0
C      1  0.5685130000000  0.5332680000000  0.4116620000000 1.0
C      1  0.5708790000000  0.5782200000000  0.4926970000000 1.0
C      1  0.4521590000000  0.5779300000000  0.5456250000000 1.0
C      1  0.4579470000000  0.4840120000000  0.6005120000000 1.0
C      1  0.4552220000000  0.4084320000000  0.5035620000000 1.0
C      1  0.4605650000000  0.4652340000000  0.4060900000000 1.0
C      1  0.4598620000000  0.5742810000000  0.4339080000000 1.0
C      1  0.5304340000000  0.5776010000000  0.5200170000000 1.0
C      1  0.5321430000000  0.5044020000000  0.5741840000000 1.0
C      1  0.5280560000000  0.4368470000000  0.5326480000000 1.0
C      1  0.5336000000000  0.4536000000000  0.4517420000000 1.0
C      1  0.5325360000000  0.5371630000000  0.4438600000000 1.0
C      1  0.3958390000000  0.5120980000000  0.5425670000000 1.0
C      1  0.3950860000000  0.4485800000000  0.5518940000000 1.0
C      1  0.4076080000000  0.4422380000000  0.4728790000000 1.0
C      1  0.3862120000000  0.5122370000000  0.4456600000000 1.0
C      1  0.3938870000000  0.5426110000000  0.4972810000000 1.0
C      1  0.5858220000000  0.5676720000000  0.5173700000000 1.0
C      1  0.5813990000000  0.5150600000000  0.5764590000000 1.0
C      1  0.5805440000000  0.4346040000000  0.5289880000000 1.0
C      1  0.5784070000000  0.4537180000000  0.4437630000000 1.0
C      1  0.5892360000000  0.5365570000000  0.4313320000000 1.0
C      1  0.5467510000000  0.5302590000000  0.4744540000000 1.0
C      1  0.5516820000000  0.5561080000000  0.5344740000000 1.0
C      1  0.5625220000000  0.4876270000000  0.5500410000000 1.0
C      1  0.5376490000000  0.4532170000000  0.5064180000000 1.0
C      1  0.5499000000000  0.4815880000000  0.4464990000000 1.0
C      1  0.4338670000000  0.4270140000000  0.4664030000000 1.0
C      1  0.4236450000000  0.4951940000000  0.4212340000000 1.0
C      1  0.4328400000000  0.5726890000000  0.4765510000000 1.0
C      1  0.4301690000000  0.5531770000000  0.5537760000000 1.0
C      1  0.4359860000000  0.4615440000000  0.5874150000000 1.0
C      1  0.5458880000000  0.5475270000000  0.4185310000000 1.0
C      1  0.5460390000000  0.5949670000000  0.5043920000000 1.0
C      1  0.5319770000000  0.5115930000000  0.6068190000000 1.0
C      1  0.5341370000000  0.4060130000000  0.5424280000000 1.0
C      1  0.5373510000000  0.4291470000000  0.4284090000000 1.0
C      1  0.4858970000000  0.5743360000000  0.5427620000000 1.0
C      1  0.4916180000000  0.4809620000000  0.5975510000000 1.0
C      1  0.4854630000000  0.4144510000000  0.5101850000000 1.0
C      1  0.4919850000000  0.4679520000000  0.4159890000000 1.0
C      1  0.4923400000000  0.5683950000000  0.4381060000000 1.0
C      1  0.6014420000000  0.5068190000000  0.5227000000000 1.0
C      1  0.6008920000000  0.4801830000000  0.5113180000000 1.0
C      1  0.5973530000000  0.4834550000000  0.4831270000000 1.0
C      1  0.6029040000000  0.5105800000000  0.4754880000000 1.0
C      1  0.6001780000000  0.5259250000000  0.4996690000000 1.0
C      1  0.4509590000000  0.4618320000000  0.5568880000000 1.0
C      1  0.4445190000000  0.4554290000000  0.4803760000000 1.0
C      1  0.4459370000000  0.5019910000000  0.4428770000000 1.0
C      1  0.4521760000000  0.5485470000000  0.4804350000000 1.0
C      1  0.4497040000000  0.5290670000000  0.5398780000000 1.0
C      1  0.4588480000000  0.4740800000000  0.4373530000000 1.0
C      1  0.4616330000000  0.5468120000000  0.4515950000000 1.0
C      1  0.4562240000000  0.5554280000000  0.5239950000000 1.0
C      1  0.4576390000000  0.4886740000000  0.5685420000000 1.0
C      1  0.4443590000000  0.4371860000000  0.5089830000000 1.0
C      1  0.5616480000000  0.5090610000000  0.4574560000000 1.0
C      1  0.5452510000000  0.5250040000000  0.5047660000000 1.0
C      1  0.5360640000000  0.4993680000000  0.5226120000000 1.0
C      1  0.5554570000000  0.4742460000000  0.5217290000000 1.0
C      1  0.5416490000000  0.4748330000000  0.4844570000000 1.0
C      1  0.5005680000000  0.5093050000000  0.6099980000000 1.0
C      1  0.4909590000000  0.4044000000000  0.5396680000000 1.0
C      1  0.4949660000000  0.4369860000000  0.4188890000000 1.0
C      1  0.4969360000000  0.5554640000000  0.4101950000000 1.0
C      1  0.4901990000000  0.5996780000000  0.5236940000000 1.0
C      1  0.5486940000000  0.5542260000000  0.5836940000000 1.0
C      1  0.5542180000000  0.4451860000000  0.5737740000000 1.0
C      1  0.5402260000000  0.4045350000000  0.4694150000000 1.0
C      1  0.5561520000000  0.5079540000000  0.4002550000000 1.0
C      1  0.5528920000000  0.5887900000000  0.4656960000000 1.0
C      1  0.4126060000000  0.4665840000000  0.5668690000000 1.0
C      1  0.4126760000000  0.4449020000000  0.5020990000000 1.0
C      1  0.3998120000000  0.4887310000000  0.4362130000000 1.0
C      1  0.4072060000000  0.5624270000000  0.4764060000000 1.0
C      1  0.4026690000000  0.5428240000000  0.5504740000000 1.0
C      1  0.5101290000000  0.4008770000000  0.4576840000000 1.0
C      1  0.5228330000000  0.5125170000000  0.3941110000000 1.0
C      1  0.5222980000000  0.5979070000000  0.4695840000000 1.0
C      1  0.5207960000000  0.5579450000000  0.5875100000000 1.0
C      1  0.5246860000000  0.4388230000000  0.5843930000000 1.0
C      1  0.4569940000000  0.5771120000000  0.4032300000000 1.0
C      1  0.4484800000000  0.6084810000000  0.5414800000000 1.0
C      1  0.4560830000000  0.5024590000000  0.6252460000000 1.0
C      1  0.4505160000000  0.3862270000000  0.5258500000000 1.0
C      1  0.4579140000000  0.4378860000000  0.3922530000000 1.0
C      1  0.5688390000000  0.4149560000000  0.4845630000000 1.0
C      1  0.5740690000000  0.4807570000000  0.4004980000000 1.0
C      1  0.5835220000000  0.5762630000000  0.4615220000000 1.0
C      1  0.5626390000000  0.5665140000000  0.5630300000000 1.0
C      1  0.5763720000000  0.4695850000000  0.5747740000000 1.0
C      1  0.4403340000000  0.5115640000000  0.5143160000000 1.0
C      1  0.4250770000000  0.4835020000000  0.5132840000000 1.0
C      1  0.4224160000000  0.4781510000000  0.4818680000000 1.0
C      1  0.4260880000000  0.5062960000000  0.4669110000000 1.0
C      1  0.4348810000000  0.5259810000000  0.4891600000000 1.0
C      1  0.4583110000000  0.5844520000000  0.4641910000000 1.0
C      1  0.4550820000000  0.5506400000000  0.5745840000000 1.0
C      1  0.4656330000000  0.4461320000000  0.5904310000000 1.0
C      1  0.4525610000000  0.4072190000000  0.4730610000000 1.0
C      1  0.4488610000000  0.4940850000000  0.4039030000000 1.0
C      1  0.3982870000000  0.4554470000000  0.5227610000000 1.0
C      1  0.4030490000000  0.4685340000000  0.4566010000000 1.0
C      1  0.4015420000000  0.5298270000000  0.4674260000000 1.0
C      1  0.3881930000000  0.5361090000000  0.5225070000000 1.0
C      1  0.4058070000000  0.4845570000000  0.5387940000000 1.0
C      1  0.4719320000000  0.5094280000000  0.4067810000000 1.0
C      1  0.4846550000000  0.5803600000000  0.4753410000000 1.0
C      1  0.4805580000000  0.5446770000000  0.5689410000000 1.0
C      1  0.4874530000000  0.4486770000000  0.5743270000000 1.0
C      1  0.4768820000000  0.4078140000000  0.4604620000000 1.0
C      1  0.5074720000000  0.5954500000000  0.4461780000000 1.0
C      1  0.5058940000000  0.5786630000000  0.5699290000000 1.0
C      1  0.5132450000000  0.4555710000000  0.6038910000000 1.0
C      1  0.5061980000000  0.4026450000000  0.4898620000000 1.0
C      1  0.5135860000000  0.4818650000000  0.3986600000000 1.0
C      1  0.4981320000000  0.4296360000000  0.4468790000000 1.0
C      1  0.4993950000000  0.5256430000000  0.4114540000000 1.0
C      1  0.5044410000000  0.5962330000000  0.4961050000000 1.0
C      1  0.5035360000000  0.5317250000000  0.5873220000000 1.0
C      1  0.5041150000000  0.4240760000000  0.5616590000000 1.0
C      1  0.5898880000000  0.4907800000000  0.5869500000000 1.0
C      1  0.5824900000000  0.4172240000000  0.5068300000000 1.0
C      1  0.5835080000000  0.4643730000000  0.4199730000000 1.0
C      1  0.5946070000000  0.5626730000000  0.4416830000000 1.0
C      1  0.5837220000000  0.5782550000000  0.5433010000000 1.0
C      1  0.4949010000000  0.4438460000000  0.5355730000000 1.0
C      1  0.5029540000000  0.4573390000000  0.4660050000000 1.0
C      1  0.5054150000000  0.5186780000000  0.4441960000000 1.0
C      1  0.5030140000000  0.5643900000000  0.5067290000000 1.0
C      1  0.5039240000000  0.5143920000000  0.5580620000000 1.0
C      1  0.4804300000000  0.4233010000000  0.4000790000000 1.0
C      1  0.4804280000000  0.5673030000000  0.3914460000000 1.0
C      1  0.4713090000000  0.6188960000000  0.5293310000000 1.0
C      1  0.4780560000000  0.5143970000000  0.6307780000000 1.0
C      1  0.4712350000000  0.3855770000000  0.5446360000000 1.0
C      1  0.5099420000000  0.4893190000000  0.5358950000000 1.0
C      1  0.4971030000000  0.4692880000000  0.5156520000000 1.0
C      1  0.5134120000000  0.4891640000000  0.4719690000000 1.0
C      1  0.5065180000000  0.5221820000000  0.4780350000000 1.0
C      1  0.5125340000000  0.5328070000000  0.5098180000000 1.0
C      1  0.4743050000000  0.5003640000000  0.4701380000000 1.0
C      1  0.4774740000000  0.5198380000000  0.4955630000000 1.0
C      1  0.4724710000000  0.5026150000000  0.5208920000000 1.0
C      1  0.4563670000000  0.4750520000000  0.5145050000000 1.0
C      1  0.4777460000000  0.4762800000000  0.4906080000000 1.0
C      1  0.5389670000000  0.4862480000000  0.4187880000000 1.0
C      1  0.5366400000000  0.5608060000000  0.4661090000000 1.0
C      1  0.5236810000000  0.5626700000000  0.5480580000000 1.0
C      1  0.5376940000000  0.4739950000000  0.5684000000000 1.0
C      1  0.5301820000000  0.4243810000000  0.4949550000000 1.0
C      1  0.5835360000000  0.4618160000000  0.5234700000000 1.0
C      1  0.5725120000000  0.4728230000000  0.4703350000000 1.0
C      1  0.5882370000000  0.5172170000000  0.4520810000000 1.0
C      1  0.5741210000000  0.5357880000000  0.5191750000000 1.0
C      1  0.5803080000000  0.5139070000000  0.5448010000000 1.0
END
