TITL C-3289326-3776-646 0.0145572212445987 125000 -909.855857775562 0 0 168 (C1) n - 1
REM
REM in /nfs/bkarasulu/CARBON/AIRSS/Generating-Clusters/AIREBO/with-SteepDescent/Higher-Symm/SD-CG/HFTN-CG
REM
REM
REM
REM
REM
REM ./C.cell (b20cbc046b6831c77cfcea5457e17084)
REM
REM compiler GCC version 9.2.1 20190827 (Red Hat 9.2.1-1)
REM options -cpp -mtune=generic -march=x86-64 -g -O0 -fpre-include=/usr/include/finclude/math-vector-fortran.h
REM seed 1761560670 1059693077 459939313 -945491441 1966122581 -1821071011 -1305409611 -403215539 -364364938 -830307677 -1838299268 1751308200 1765855056 1865966985 1791345370 -832924237 1720880359 -260598235 714227999 -989078122 2000922502 22307236 -45239005 -858578959 1588625996 1199970952 364189523 -1287545726 -1241972390 -1756143868 422016859 529718878 565231825
REM
CELL 1.54180   50.00000   50.00000   50.00000   90.00000   90.00000   90.00000
LATT -1
SFAC C  
C      1  0.5394500000000  0.4598670000000  0.4612230000000 1.0
C      1  0.4731160000000  0.4312370000000  0.5939460000000 1.0
C      1  0.5119620000000  0.4798400000000  0.5183880000000 1.0
C      1  0.4800970000000  0.5986050000000  0.5340980000000 1.0
C      1  0.4663890000000  0.4811530000000  0.3929760000000 1.0
C      1  0.5206820000000  0.4206350000000  0.4501750000000 1.0
C      1  0.5688150000000  0.5111770000000  0.4539450000000 1.0
C      1  0.4857300000000  0.4273100000000  0.5306280000000 1.0
C      1  0.4704450000000  0.5951910000000  0.5659950000000 1.0
C      1  0.4356280000000  0.4218690000000  0.4951930000000 1.0
C      1  0.5092530000000  0.5636700000000  0.5168640000000 1.0
C      1  0.4308310000000  0.4970540000000  0.5216210000000 1.0
C      1  0.5179080000000  0.5078420000000  0.4028520000000 1.0
C      1  0.5509680000000  0.4998710000000  0.4085030000000 1.0
C      1  0.4371940000000  0.5056660000000  0.5598400000000 1.0
C      1  0.4359160000000  0.4312870000000  0.5482390000000 1.0
C      1  0.4870410000000  0.5077120000000  0.3875940000000 1.0
C      1  0.5732620000000  0.5194120000000  0.4966580000000 1.0
C      1  0.5690140000000  0.4348890000000  0.4724940000000 1.0
C      1  0.3971730000000  0.4715160000000  0.4870160000000 1.0
C      1  0.5388180000000  0.5303500000000  0.4174530000000 1.0
C      1  0.4178710000000  0.5147750000000  0.4981250000000 1.0
C      1  0.5075610000000  0.4631410000000  0.4697910000000 1.0
C      1  0.5145800000000  0.3910650000000  0.5579470000000 1.0
C      1  0.4584700000000  0.4087530000000  0.5362670000000 1.0
C      1  0.4459440000000  0.4657870000000  0.4058150000000 1.0
C      1  0.4933320000000  0.4405090000000  0.4519730000000 1.0
C      1  0.4568590000000  0.5737910000000  0.5350840000000 1.0
C      1  0.5486050000000  0.4063060000000  0.5244070000000 1.0
C      1  0.6061110000000  0.5100290000000  0.5173460000000 1.0
C      1  0.5673960000000  0.4461230000000  0.5524480000000 1.0
C      1  0.5999030000000  0.5095100000000  0.4779000000000 1.0
C      1  0.4390270000000  0.4888430000000  0.5815960000000 1.0
C      1  0.5504580000000  0.5735600000000  0.4529220000000 1.0
C      1  0.5936550000000  0.5603300000000  0.5229920000000 1.0
C      1  0.5114690000000  0.5969660000000  0.5388620000000 1.0
C      1  0.5182590000000  0.5783670000000  0.5598170000000 1.0
C      1  0.5273770000000  0.5111210000000  0.5639460000000 1.0
C      1  0.5905580000000  0.4713580000000  0.4846190000000 1.0
C      1  0.5107300000000  0.4022040000000  0.5125880000000 1.0
C      1  0.4420800000000  0.4453160000000  0.5163920000000 1.0
C      1  0.4898150000000  0.3947540000000  0.5365810000000 1.0
C      1  0.4454430000000  0.5450800000000  0.4893790000000 1.0
C      1  0.4084100000000  0.5454230000000  0.5353770000000 1.0
C      1  0.4841700000000  0.5289940000000  0.4139570000000 1.0
C      1  0.5383380000000  0.4802720000000  0.4884440000000 1.0
C      1  0.5290370000000  0.6073700000000  0.5176880000000 1.0
C      1  0.4135440000000  0.4572590000000  0.4631400000000 1.0
C      1  0.4512840000000  0.5476050000000  0.4262010000000 1.0
C      1  0.4696900000000  0.4869950000000  0.4462960000000 1.0
C      1  0.5434690000000  0.4976780000000  0.4400120000000 1.0
C      1  0.5210630000000  0.5197950000000  0.5194540000000 1.0
C      1  0.4955740000000  0.4923900000000  0.4649460000000 1.0
C      1  0.4713930000000  0.5927630000000  0.5030610000000 1.0
C      1  0.4123670000000  0.5317310000000  0.4487930000000 1.0
C      1  0.5083090000000  0.6047480000000  0.4666740000000 1.0
C      1  0.5115960000000  0.5785160000000  0.4452890000000 1.0
C      1  0.6128990000000  0.4882290000000  0.4968000000000 1.0
C      1  0.4006470000000  0.5067200000000  0.4554210000000 1.0
C      1  0.5706740000000  0.4802690000000  0.4293650000000 1.0
C      1  0.5003820000000  0.4064490000000  0.4278780000000 1.0
C      1  0.5305180000000  0.4297580000000  0.5076860000000 1.0
C      1  0.4343350000000  0.5267330000000  0.5333010000000 1.0
C      1  0.5483960000000  0.5323250000000  0.4810050000000 1.0
C      1  0.5822100000000  0.4465180000000  0.4967060000000 1.0
C      1  0.4545900000000  0.4435990000000  0.4257730000000 1.0
C      1  0.4746280000000  0.5346480000000  0.5620060000000 1.0
C      1  0.4431620000000  0.3995970000000  0.5099940000000 1.0
C      1  0.5976290000000  0.5422630000000  0.4747060000000 1.0
C      1  0.5236180000000  0.5449010000000  0.5626300000000 1.0
C      1  0.5209060000000  0.4581610000000  0.5727700000000 1.0
C      1  0.4653150000000  0.5098830000000  0.5516270000000 1.0
C      1  0.4121680000000  0.5666510000000  0.5527660000000 1.0
C      1  0.5906590000000  0.4984400000000  0.5386040000000 1.0
C      1  0.4588610000000  0.5290370000000  0.4672760000000 1.0
C      1  0.5406310000000  0.5836600000000  0.4769080000000 1.0
C      1  0.5061090000000  0.5920080000000  0.4983220000000 1.0
C      1  0.5054840000000  0.4875740000000  0.5653430000000 1.0
C      1  0.4593680000000  0.5440690000000  0.5186810000000 1.0
C      1  0.5757290000000  0.5430660000000  0.4484180000000 1.0
C      1  0.5121320000000  0.5016200000000  0.4921380000000 1.0
C      1  0.4466160000000  0.5650150000000  0.4491070000000 1.0
C      1  0.4803680000000  0.5619240000000  0.4989800000000 1.0
C      1  0.4850930000000  0.4407980000000  0.5677830000000 1.0
C      1  0.5183060000000  0.5334830000000  0.4819790000000 1.0
C      1  0.4855050000000  0.4886490000000  0.5378440000000 1.0
C      1  0.5906970000000  0.5096360000000  0.5633800000000 1.0
C      1  0.5515130000000  0.4903610000000  0.5622130000000 1.0
C      1  0.4944800000000  0.4724500000000  0.4038230000000 1.0
C      1  0.5415890000000  0.4045620000000  0.5507810000000 1.0
C      1  0.5418870000000  0.5400640000000  0.4499040000000 1.0
C      1  0.4169640000000  0.4822610000000  0.4425960000000 1.0
C      1  0.4491120000000  0.4212630000000  0.4498110000000 1.0
C      1  0.4985350000000  0.4400290000000  0.5081020000000 1.0
C      1  0.4096400000000  0.4769130000000  0.5377730000000 1.0
C      1  0.4823610000000  0.5553780000000  0.6010920000000 1.0
C      1  0.4427620000000  0.4695770000000  0.5402070000000 1.0
C      1  0.4875230000000  0.5253250000000  0.5222810000000 1.0
C      1  0.5509700000000  0.5506670000000  0.5817230000000 1.0
C      1  0.5207770000000  0.4541170000000  0.4055970000000 1.0
C      1  0.4710270000000  0.5233440000000  0.5998980000000 1.0
C      1  0.4959610000000  0.5603260000000  0.4136810000000 1.0
C      1  0.5762050000000  0.4507600000000  0.5240160000000 1.0
C      1  0.5650360000000  0.4808880000000  0.4689520000000 1.0
C      1  0.5660580000000  0.5227640000000  0.5799870000000 1.0
C      1  0.5147550000000  0.4710920000000  0.6005490000000 1.0
C      1  0.4471630000000  0.5028740000000  0.4855960000000 1.0
C      1  0.4095090000000  0.5425120000000  0.5063630000000 1.0
C      1  0.4730320000000  0.4982150000000  0.5074630000000 1.0
C      1  0.4940500000000  0.4451140000000  0.4202290000000 1.0
C      1  0.4942630000000  0.4986360000000  0.4255110000000 1.0
C      1  0.5606860000000  0.5668370000000  0.5171600000000 1.0
C      1  0.5624510000000  0.5331820000000  0.5477630000000 1.0
C      1  0.4791330000000  0.5421200000000  0.4449290000000 1.0
C      1  0.5688770000000  0.5697700000000  0.5725000000000 1.0
C      1  0.4757710000000  0.4190020000000  0.4154970000000 1.0
C      1  0.4602220000000  0.4575110000000  0.5939170000000 1.0
C      1  0.5357310000000  0.5475120000000  0.5309440000000 1.0
C      1  0.4423050000000  0.5027370000000  0.4519100000000 1.0
C      1  0.4362310000000  0.4566290000000  0.5709690000000 1.0
C      1  0.4756160000000  0.4133820000000  0.4584200000000 1.0
C      1  0.4615460000000  0.4972710000000  0.5979550000000 1.0
C      1  0.4309350000000  0.4299220000000  0.4691850000000 1.0
C      1  0.4211290000000  0.5668230000000  0.4896600000000 1.0
C      1  0.5620780000000  0.5627750000000  0.4242900000000 1.0
C      1  0.4737430000000  0.4611840000000  0.5514250000000 1.0
C      1  0.5282400000000  0.5625720000000  0.4201780000000 1.0
C      1  0.5623890000000  0.4809570000000  0.5313950000000 1.0
C      1  0.4879440000000  0.4695560000000  0.4968250000000 1.0
C      1  0.6057110000000  0.5393520000000  0.5076270000000 1.0
C      1  0.5470200000000  0.4351460000000  0.4391270000000 1.0
C      1  0.4991430000000  0.5330560000000  0.5830500000000 1.0
C      1  0.5077370000000  0.4243410000000  0.5564000000000 1.0
C      1  0.4215120000000  0.5577370000000  0.4600360000000 1.0
C      1  0.4905410000000  0.5530180000000  0.5418290000000 1.0
C      1  0.5389100000000  0.4621850000000  0.5154640000000 1.0
C      1  0.4749730000000  0.5686030000000  0.4660650000000 1.0
C      1  0.5416030000000  0.4220290000000  0.4764870000000 1.0
C      1  0.4212660000000  0.4754380000000  0.4127040000000 1.0
C      1  0.5736800000000  0.4680830000000  0.5675310000000 1.0
C      1  0.5960990000000  0.4941490000000  0.4477650000000 1.0
C      1  0.5541910000000  0.5126670000000  0.5222420000000 1.0
C      1  0.4802770000000  0.5806090000000  0.4346900000000 1.0
C      1  0.4371810000000  0.4719290000000  0.4802390000000 1.0
C      1  0.4340080000000  0.5257750000000  0.4283060000000 1.0
C      1  0.5397010000000  0.4344960000000  0.5621770000000 1.0
C      1  0.5499990000000  0.5003330000000  0.5946280000000 1.0
C      1  0.5482280000000  0.5907210000000  0.5027120000000 1.0
C      1  0.4899340000000  0.5700670000000  0.5713560000000 1.0
C      1  0.3973030000000  0.4995360000000  0.4824140000000 1.0
C      1  0.4600990000000  0.4527220000000  0.4884910000000 1.0
C      1  0.4851680000000  0.4789820000000  0.5913670000000 1.0
C      1  0.4942900000000  0.3943670000000  0.4678190000000 1.0
C      1  0.5083030000000  0.5364750000000  0.4513770000000 1.0
C      1  0.4532740000000  0.5550190000000  0.5763870000000 1.0
C      1  0.5360370000000  0.4853180000000  0.6113330000000 1.0
C      1  0.4427040000000  0.5923980000000  0.4958200000000 1.0
C      1  0.5824440000000  0.5582940000000  0.5494830000000 1.0
C      1  0.5133520000000  0.5664860000000  0.4770430000000 1.0
C      1  0.4070080000000  0.4435400000000  0.5383170000000 1.0
C      1  0.5175590000000  0.5062170000000  0.4471520000000 1.0
C      1  0.4012160000000  0.4592470000000  0.5105440000000 1.0
C      1  0.5743940000000  0.4509070000000  0.4445430000000 1.0
C      1  0.5706840000000  0.5518930000000  0.4917410000000 1.0
C      1  0.4646410000000  0.4575950000000  0.4551030000000 1.0
C      1  0.5427150000000  0.4390430000000  0.4084420000000 1.0
C      1  0.4394230000000  0.5713580000000  0.5578110000000 1.0
C      1  0.5163980000000  0.4005760000000  0.4842750000000 1.0
END
