TITL C-3289332-8317-457 0.00142347834024098 125000 -1002.76177351188 0 0 187 (C1) n - 1
REM
REM in /nfs/bkarasulu/CARBON/AIRSS/Generating-Clusters/AIREBO/with-SteepDescent/Higher-Symm/SD-CG/HFTN-CG
REM
REM
REM
REM
REM
REM ./C.cell (b20cbc046b6831c77cfcea5457e17084)
REM
REM compiler GCC version 9.2.1 20190827 (Red Hat 9.2.1-1)
REM options -cpp -mtune=generic -march=x86-64 -g -O0 -fpre-include=/usr/include/finclude/math-vector-fortran.h
REM seed -411935286 1320905915 1822208105 1639996097 -1917455940 -181489162 1672323063 -654655291 2066955865 -1043384004 1820613435 1398504488 -729504974 -2108495119 -40706952 -901641819 -480550088 -999157991 841579451 774986359 -928112069 1396597354 -1461842018 2044681206 1708716465 1982437550 451384358 1556433874 -763231020 -1644772722 -687357071 874923172 -650231632
REM
CELL 1.54180   50.00000   50.00000   50.00000   90.00000   90.00000   90.00000
LATT -1
SFAC C  
C      1  0.5755780000000  0.5123010000000  0.5307260000000 1.0
C      1  0.5162740000000  0.5602880000000  0.5331810000000 1.0
C      1  0.4314920000000  0.5366470000000  0.5283580000000 1.0
C      1  0.4496860000000  0.4450770000000  0.5360670000000 1.0
C      1  0.5356560000000  0.4349990000000  0.5338710000000 1.0
C      1  0.5697490000000  0.5171380000000  0.4621260000000 1.0
C      1  0.5084400000000  0.5699360000000  0.4659390000000 1.0
C      1  0.4347060000000  0.5313680000000  0.4669760000000 1.0
C      1  0.4545100000000  0.4450440000000  0.4677900000000 1.0
C      1  0.5339060000000  0.4444220000000  0.4644200000000 1.0
C      1  0.5091340000000  0.3929810000000  0.4696380000000 1.0
C      1  0.6000510000000  0.4800290000000  0.4865660000000 1.0
C      1  0.5543540000000  0.5894280000000  0.4671610000000 1.0
C      1  0.4313930000000  0.5740530000000  0.4714600000000 1.0
C      1  0.4080770000000  0.4581150000000  0.4756970000000 1.0
C      1  0.5079650000000  0.4031250000000  0.5323460000000 1.0
C      1  0.6063630000000  0.4801820000000  0.5361250000000 1.0
C      1  0.5492440000000  0.5935830000000  0.5245070000000 1.0
C      1  0.4285750000000  0.5762230000000  0.5247470000000 1.0
C      1  0.4140920000000  0.4649640000000  0.5333090000000 1.0
C      1  0.3922530000000  0.4859520000000  0.5178550000000 1.0
C      1  0.4841630000000  0.3879610000000  0.5199380000000 1.0
C      1  0.6061490000000  0.4553310000000  0.5215370000000 1.0
C      1  0.5790010000000  0.5849250000000  0.5147460000000 1.0
C      1  0.4445680000000  0.6018320000000  0.5156750000000 1.0
C      1  0.3863560000000  0.4780800000000  0.4856320000000 1.0
C      1  0.4795920000000  0.3899890000000  0.4863050000000 1.0
C      1  0.5949920000000  0.4472370000000  0.4904460000000 1.0
C      1  0.5813550000000  0.5755090000000  0.4826700000000 1.0
C      1  0.4537080000000  0.5967290000000  0.4840180000000 1.0
C      1  0.5417190000000  0.3915220000000  0.4755440000000 1.0
C      1  0.6155530000000  0.5028730000000  0.4787970000000 1.0
C      1  0.5295330000000  0.6116480000000  0.4723620000000 1.0
C      1  0.4001750000000  0.5605530000000  0.4702080000000 1.0
C      1  0.4087940000000  0.4254160000000  0.4763970000000 1.0
C      1  0.5409590000000  0.3954010000000  0.5292560000000 1.0
C      1  0.6152590000000  0.5092180000000  0.5338380000000 1.0
C      1  0.5263400000000  0.6167830000000  0.5270940000000 1.0
C      1  0.3988420000000  0.5636250000000  0.5262880000000 1.0
C      1  0.4130270000000  0.4311610000000  0.5288380000000 1.0
C      1  0.4497260000000  0.4953880000000  0.5444780000000 1.0
C      1  0.4886400000000  0.4476290000000  0.5427080000000 1.0
C      1  0.5496650000000  0.4715000000000  0.5419570000000 1.0
C      1  0.5455650000000  0.5332040000000  0.5460740000000 1.0
C      1  0.4744500000000  0.5515030000000  0.5434840000000 1.0
C      1  0.4464870000000  0.4903000000000  0.4487560000000 1.0
C      1  0.4870380000000  0.4238320000000  0.4582460000000 1.0
C      1  0.5702880000000  0.4755740000000  0.4498160000000 1.0
C      1  0.5505750000000  0.5515080000000  0.4559420000000 1.0
C      1  0.4671770000000  0.5627230000000  0.4583800000000 1.0
C      1  0.5749520000000  0.4911870000000  0.4250200000000 1.0
C      1  0.5442760000000  0.5773870000000  0.4367770000000 1.0
C      1  0.4401980000000  0.5616530000000  0.4407360000000 1.0
C      1  0.4224220000000  0.4663450000000  0.4469300000000 1.0
C      1  0.5090890000000  0.4089750000000  0.4393080000000 1.0
C      1  0.5804570000000  0.4795620000000  0.5539290000000 1.0
C      1  0.5443220000000  0.5814930000000  0.5523510000000 1.0
C      1  0.4442890000000  0.5671550000000  0.5506270000000 1.0
C      1  0.4199940000000  0.4640590000000  0.5668270000000 1.0
C      1  0.5060330000000  0.4124400000000  0.5649960000000 1.0
C      1  0.4763730000000  0.4802620000000  0.5099020000000 1.0
C      1  0.5078940000000  0.4681940000000  0.5143400000000 1.0
C      1  0.5294020000000  0.5072380000000  0.5116890000000 1.0
C      1  0.5030290000000  0.5243160000000  0.5161600000000 1.0
C      1  0.4743640000000  0.5141980000000  0.5093160000000 1.0
C      1  0.4876950000000  0.4684070000000  0.4800700000000 1.0
C      1  0.5261390000000  0.4761440000000  0.4871280000000 1.0
C      1  0.5329420000000  0.5166660000000  0.4803380000000 1.0
C      1  0.4978440000000  0.5376240000000  0.4869910000000 1.0
C      1  0.4646870000000  0.5066820000000  0.4807660000000 1.0
C      1  0.5626670000000  0.4400540000000  0.4825780000000 1.0
C      1  0.5800810000000  0.5414900000000  0.4807390000000 1.0
C      1  0.4859400000000  0.5859050000000  0.4848530000000 1.0
C      1  0.4149040000000  0.5157740000000  0.4850890000000 1.0
C      1  0.4590330000000  0.4170810000000  0.4857330000000 1.0
C      1  0.5605880000000  0.4411040000000  0.5165670000000 1.0
C      1  0.5748850000000  0.5385030000000  0.5135850000000 1.0
C      1  0.4938610000000  0.5808900000000  0.5176690000000 1.0
C      1  0.4106780000000  0.5145060000000  0.5166070000000 1.0
C      1  0.4637550000000  0.4236920000000  0.5188080000000 1.0
C      1  0.3709250000000  0.5141640000000  0.5176150000000 1.0
C      1  0.4529200000000  0.3856700000000  0.5166100000000 1.0
C      1  0.5955380000000  0.4230280000000  0.5219380000000 1.0
C      1  0.6038250000000  0.5658770000000  0.5142060000000 1.0
C      1  0.4716150000000  0.6166410000000  0.5135850000000 1.0
C      1  0.3761500000000  0.5075880000000  0.4883190000000 1.0
C      1  0.4459360000000  0.3796720000000  0.4871180000000 1.0
C      1  0.5906800000000  0.4131650000000  0.4913300000000 1.0
C      1  0.6130260000000  0.5632730000000  0.4848430000000 1.0
C      1  0.4742790000000  0.6238210000000  0.4838730000000 1.0
C      1  0.5822220000000  0.5539000000000  0.4491450000000 1.0
C      1  0.4768990000000  0.5900270000000  0.4523140000000 1.0
C      1  0.4149160000000  0.4982300000000  0.4565720000000 1.0
C      1  0.4607210000000  0.4085310000000  0.4528520000000 1.0
C      1  0.5741710000000  0.4479820000000  0.4518740000000 1.0
C      1  0.5589780000000  0.5585870000000  0.5583580000000 1.0
C      1  0.4726070000000  0.5843610000000  0.5440290000000 1.0
C      1  0.4218090000000  0.5027150000000  0.5464930000000 1.0
C      1  0.4757390000000  0.4183100000000  0.5502050000000 1.0
C      1  0.5707420000000  0.4473800000000  0.5484300000000 1.0
C      1  0.5429640000000  0.5060470000000  0.5986680000000 1.0
C      1  0.5057780000000  0.5534460000000  0.5970800000000 1.0
C      1  0.4466390000000  0.5109320000000  0.5999370000000 1.0
C      1  0.4755700000000  0.4601450000000  0.5980170000000 1.0
C      1  0.5351490000000  0.4615220000000  0.5972640000000 1.0
C      1  0.5440210000000  0.5206070000000  0.4031710000000 1.0
C      1  0.4962590000000  0.5524380000000  0.4086580000000 1.0
C      1  0.4588770000000  0.5171020000000  0.4003500000000 1.0
C      1  0.4778280000000  0.4564700000000  0.4033530000000 1.0
C      1  0.5273260000000  0.4681020000000  0.3936780000000 1.0
C      1  0.4720640000000  0.4841370000000  0.4187360000000 1.0
C      1  0.5123500000000  0.4641430000000  0.4218630000000 1.0
C      1  0.5360740000000  0.4978640000000  0.4188690000000 1.0
C      1  0.5105180000000  0.5294500000000  0.4231400000000 1.0
C      1  0.4651070000000  0.5321030000000  0.4223320000000 1.0
C      1  0.4643730000000  0.4818440000000  0.5791060000000 1.0
C      1  0.5104490000000  0.4643520000000  0.5778370000000 1.0
C      1  0.5228260000000  0.5019610000000  0.5786270000000 1.0
C      1  0.5211580000000  0.5418490000000  0.5764090000000 1.0
C      1  0.4732740000000  0.5204240000000  0.5866590000000 1.0
C      1  0.4272590000000  0.4059550000000  0.4809200000000 1.0
C      1  0.5635810000000  0.4061640000000  0.4799040000000 1.0
C      1  0.6124600000000  0.5311580000000  0.4797470000000 1.0
C      1  0.5031370000000  0.6141870000000  0.4763480000000 1.0
C      1  0.3910880000000  0.5349670000000  0.4747820000000 1.0
C      1  0.4323900000000  0.4114630000000  0.5235950000000 1.0
C      1  0.5648260000000  0.4090060000000  0.5260580000000 1.0
C      1  0.6064340000000  0.5365540000000  0.5261520000000 1.0
C      1  0.4995410000000  0.6117050000000  0.5254050000000 1.0
C      1  0.3882290000000  0.5386920000000  0.5248230000000 1.0
C      1  0.4636870000000  0.4259310000000  0.4258400000000 1.0
C      1  0.5576010000000  0.4420650000000  0.4289650000000 1.0
C      1  0.5702550000000  0.5437050000000  0.4221560000000 1.0
C      1  0.4897140000000  0.5882830000000  0.4249660000000 1.0
C      1  0.4202280000000  0.5077110000000  0.4243540000000 1.0
C      1  0.4592270000000  0.4286910000000  0.5780550000000 1.0
C      1  0.5593970000000  0.4301950000000  0.5718880000000 1.0
C      1  0.5739090000000  0.5348910000000  0.5740560000000 1.0
C      1  0.4885520000000  0.5774670000000  0.5703960000000 1.0
C      1  0.4179930000000  0.5168410000000  0.5736330000000 1.0
C      1  0.5342220000000  0.4270500000000  0.4373950000000 1.0
C      1  0.5755690000000  0.5173510000000  0.4344730000000 1.0
C      1  0.5136040000000  0.5802940000000  0.4398840000000 1.0
C      1  0.4258120000000  0.5333790000000  0.4381960000000 1.0
C      1  0.4440450000000  0.4426010000000  0.4404950000000 1.0
C      1  0.5356920000000  0.4221770000000  0.5584810000000 1.0
C      1  0.5814640000000  0.5123480000000  0.5594960000000 1.0
C      1  0.5156320000000  0.5791410000000  0.5612420000000 1.0
C      1  0.4273860000000  0.5404560000000  0.5584240000000 1.0
C      1  0.4399820000000  0.4429390000000  0.5618740000000 1.0
C      1  0.4920010000000  0.4372510000000  0.5810210000000 1.0
C      1  0.5553150000000  0.4431040000000  0.5963450000000 1.0
C      1  0.5468800000000  0.5327920000000  0.5863480000000 1.0
C      1  0.4774990000000  0.5528600000000  0.5882490000000 1.0
C      1  0.4328670000000  0.4872340000000  0.5813560000000 1.0
C      1  0.4954810000000  0.4346180000000  0.4213340000000 1.0
C      1  0.5528980000000  0.4686400000000  0.4145090000000 1.0
C      1  0.5378790000000  0.5493110000000  0.4184190000000 1.0
C      1  0.4661480000000  0.5645510000000  0.4188290000000 1.0
C      1  0.4413100000000  0.4954950000000  0.4095860000000 1.0
C      1  0.5540240000000  0.4907010000000  0.4741880000000 1.0
C      1  0.5289060000000  0.5495710000000  0.4799630000000 1.0
C      1  0.4646690000000  0.5406820000000  0.4800830000000 1.0
C      1  0.4560080000000  0.4753410000000  0.4759100000000 1.0
C      1  0.5022670000000  0.4438390000000  0.4768860000000 1.0
C      1  0.5562140000000  0.4925850000000  0.5209490000000 1.0
C      1  0.5465210000000  0.5537780000000  0.5199730000000 1.0
C      1  0.4599590000000  0.5389790000000  0.5196600000000 1.0
C      1  0.4452870000000  0.4725160000000  0.5220260000000 1.0
C      1  0.5088140000000  0.4345730000000  0.5194150000000 1.0
C      1  0.5026640000000  0.5334370000000  0.5490300000000 1.0
C      1  0.4778070000000  0.5111170000000  0.5554920000000 1.0
C      1  0.4841080000000  0.4786380000000  0.5515860000000 1.0
C      1  0.5174930000000  0.4749510000000  0.5462780000000 1.0
C      1  0.5250590000000  0.5081010000000  0.5454060000000 1.0
C      1  0.5020610000000  0.5253170000000  0.4559780000000 1.0
C      1  0.4715880000000  0.5132230000000  0.4475890000000 1.0
C      1  0.4855710000000  0.4823090000000  0.4499020000000 1.0
C      1  0.5178850000000  0.4726790000000  0.4543170000000 1.0
C      1  0.5259690000000  0.5039760000000  0.4494770000000 1.0
C      1  0.5088130000000  0.4167460000000  0.4910050000000 1.0
C      1  0.4455530000000  0.5610240000000  0.4995110000000 1.0
C      1  0.4316230000000  0.4683570000000  0.4935440000000 1.0
C      1  0.5438470000000  0.5753830000000  0.4962990000000 1.0
C      1  0.5734010000000  0.4865740000000  0.4966550000000 1.0
C      1  0.4947350000000  0.4934840000000  0.5870470000000 1.0
C      1  0.5035050000000  0.4966640000000  0.4172030000000 1.0
END
