TITL C-3289335-9438-115 -0.00562963211682912 125000 -361.017909991755 0 0 66 (C1) n - 1
REM
REM in /nfs/bkarasulu/CARBON/AIRSS/Generating-Clusters/AIREBO/with-SteepDescent/Higher-Symm/SD-CG/HFTN-CG
REM
REM
REM
REM
REM
REM ./C.cell (b20cbc046b6831c77cfcea5457e17084)
REM
REM compiler GCC version 9.2.1 20190827 (Red Hat 9.2.1-1)
REM options -cpp -mtune=generic -march=x86-64 -g -O0 -fpre-include=/usr/include/finclude/math-vector-fortran.h
REM seed -434019636 -483699983 -609999525 -359374193 -1859094938 -375922263 -1263064674 -1160589107 1417377351 -342310010 295485226 1258870437 54477807 1803859628 1740207060 -1483473017 1886255685 -1626220576 -1228399896 -519595530 -1169933684 1483309177 503083841 -1162873812 1304843513 -1280989311 -1083713358 548438885 -146929061 1969697278 2147446575 -930964409 304126506
REM
CELL 1.54180   50.00000   50.00000   50.00000   90.00000   90.00000   90.00000
LATT -1
SFAC C  
C      1  0.5790710000000  0.4751340000000  0.5058600000000 1.0
C      1  0.4229660000000  0.4756360000000  0.4881720000000 1.0
C      1  0.5772690000000  0.5279450000000  0.5029090000000 1.0
C      1  0.4220990000000  0.5293440000000  0.4927870000000 1.0
C      1  0.4786990000000  0.4705450000000  0.5597890000000 1.0
C      1  0.5238540000000  0.4736650000000  0.4365110000000 1.0
C      1  0.4806900000000  0.5222020000000  0.5599060000000 1.0
C      1  0.5106500000000  0.5212620000000  0.4450020000000 1.0
C      1  0.4752440000000  0.4481320000000  0.4815910000000 1.0
C      1  0.5330140000000  0.4512080000000  0.5236930000000 1.0
C      1  0.4718590000000  0.5553340000000  0.4805900000000 1.0
C      1  0.5289260000000  0.5599590000000  0.5253390000000 1.0
C      1  0.5232490000000  0.5470670000000  0.4493490000000 1.0
C      1  0.4696970000000  0.5477850000000  0.5521680000000 1.0
C      1  0.5244470000000  0.4483250000000  0.4532640000000 1.0
C      1  0.4632040000000  0.4456990000000  0.5519430000000 1.0
C      1  0.4598460000000  0.4239320000000  0.5093240000000 1.0
C      1  0.5422320000000  0.4231800000000  0.4889440000000 1.0
C      1  0.4657940000000  0.5767720000000  0.5136780000000 1.0
C      1  0.5386610000000  0.5777440000000  0.4824020000000 1.0
C      1  0.4501660000000  0.5270350000000  0.5088050000000 1.0
C      1  0.5475340000000  0.5280850000000  0.4886690000000 1.0
C      1  0.4474510000000  0.4732180000000  0.5092420000000 1.0
C      1  0.5496710000000  0.4733120000000  0.4896500000000 1.0
C      1  0.4871660000000  0.4465560000000  0.5289760000000 1.0
C      1  0.5070110000000  0.4564520000000  0.4765460000000 1.0
C      1  0.4968950000000  0.5506460000000  0.5327010000000 1.0
C      1  0.5042790000000  0.5447520000000  0.4766820000000 1.0
C      1  0.5429570000000  0.5526330000000  0.4703400000000 1.0
C      1  0.4570810000000  0.5532430000000  0.5264300000000 1.0
C      1  0.5458940000000  0.4462530000000  0.4728550000000 1.0
C      1  0.4477320000000  0.4438580000000  0.5247240000000 1.0
C      1  0.5598860000000  0.5461590000000  0.5219090000000 1.0
C      1  0.4395670000000  0.5479890000000  0.4765490000000 1.0
C      1  0.5608700000000  0.4592950000000  0.5253110000000 1.0
C      1  0.4429600000000  0.4557470000000  0.4739050000000 1.0
C      1  0.4914570000000  0.5770420000000  0.4979340000000 1.0
C      1  0.5186950000000  0.5777610000000  0.5023300000000 1.0
C      1  0.4929570000000  0.4288330000000  0.5033090000000 1.0
C      1  0.5238220000000  0.4289770000000  0.5094370000000 1.0
C      1  0.4912530000000  0.4812340000000  0.4426840000000 1.0
C      1  0.5062410000000  0.4724680000000  0.5538700000000 1.0
C      1  0.4834240000000  0.5197840000000  0.4493420000000 1.0
C      1  0.5082480000000  0.5203310000000  0.5560800000000 1.0
C      1  0.4828130000000  0.5245810000000  0.5159690000000 1.0
C      1  0.5168230000000  0.5194750000000  0.4956790000000 1.0
C      1  0.4754600000000  0.4721270000000  0.5200520000000 1.0
C      1  0.5182260000000  0.4862290000000  0.4886380000000 1.0
C      1  0.5146230000000  0.4774420000000  0.5212900000000 1.0
C      1  0.4752180000000  0.4787480000000  0.4698180000000 1.0
C      1  0.5211340000000  0.5280430000000  0.5259490000000 1.0
C      1  0.4794220000000  0.5222200000000  0.4822180000000 1.0
C      1  0.4888610000000  0.4983350000000  0.5289470000000 1.0
C      1  0.5241720000000  0.4984070000000  0.4574450000000 1.0
C      1  0.4195950000000  0.5015450000000  0.5075710000000 1.0
C      1  0.5827880000000  0.5003780000000  0.4881430000000 1.0
C      1  0.4327340000000  0.4996610000000  0.5353060000000 1.0
C      1  0.5751290000000  0.4958200000000  0.4602070000000 1.0
C      1  0.4553520000000  0.4990400000000  0.4885350000000 1.0
C      1  0.5490180000000  0.5010430000000  0.5093320000000 1.0
C      1  0.4628730000000  0.4967600000000  0.5508200000000 1.0
C      1  0.5530210000000  0.4890940000000  0.4462270000000 1.0
C      1  0.4424580000000  0.4983970000000  0.4570660000000 1.0
C      1  0.5464620000000  0.4989080000000  0.5364370000000 1.0
C      1  0.4645160000000  0.5002060000000  0.4379520000000 1.0
C      1  0.5246090000000  0.4965290000000  0.5548980000000 1.0
END
