TITL C-3289325-7307-755 -0.000883648632589675 125000 -374.835395543813 0 0 63 (C1) n - 1
REM
REM in /nfs/bkarasulu/CARBON/AIRSS/Generating-Clusters/AIREBO/with-SteepDescent/Higher-Symm/SD-CG/HFTN-CG
REM
REM
REM
REM
REM
REM ./C.cell (b20cbc046b6831c77cfcea5457e17084)
REM
REM compiler GCC version 9.2.1 20190827 (Red Hat 9.2.1-1)
REM options -cpp -mtune=generic -march=x86-64 -g -O0 -fpre-include=/usr/include/finclude/math-vector-fortran.h
REM seed -839143078 -204531826 -1097906564 520431819 -1588919531 -1923495549 877282169 1464958254 -94068788 1588849189 898562696 -341949263 -183296880 1798396724 1574496054 -2036743818 1966218189 1072348338 1514435974 -1771299426 1075810829 -359323674 -1029942558 1780375515 -251915668 1226242894 638672717 -1336852169 -1293731267 206776120 1802202308 304177434 260616353
REM
CELL 1.54180   50.00000   50.00000   50.00000   90.00000   90.00000   90.00000
LATT -1
SFAC C  
C      1  0.4364060000000  0.5240090000000  0.5284880000000 1.0
C      1  0.4677600000000  0.5589410000000  0.5284890000000 1.0
C      1  0.5139120000000  0.5699910000000  0.5271900000000 1.0
C      1  0.5538830000000  0.5443470000000  0.5244670000000 1.0
C      1  0.5717900000000  0.4994720000000  0.5282380000000 1.0
C      1  0.5508870000000  0.4560590000000  0.5269890000000 1.0
C      1  0.5100150000000  0.4322380000000  0.5277510000000 1.0
C      1  0.4643040000000  0.4404410000000  0.5273590000000 1.0
C      1  0.4362440000000  0.4772860000000  0.5240860000000 1.0
C      1  0.5262730000000  0.5596060000000  0.4784600000000 1.0
C      1  0.5620540000000  0.5203850000000  0.4843230000000 1.0
C      1  0.5706310000000  0.4713920000000  0.4855200000000 1.0
C      1  0.5259050000000  0.4431770000000  0.4831980000000 1.0
C      1  0.4854610000000  0.4373480000000  0.4794250000000 1.0
C      1  0.4488740000000  0.4540480000000  0.4818090000000 1.0
C      1  0.4246920000000  0.5006610000000  0.4822150000000 1.0
C      1  0.4529950000000  0.5406510000000  0.4864690000000 1.0
C      1  0.4845660000000  0.5817850000000  0.4882080000000 1.0
C      1  0.5478250000000  0.5019540000000  0.5522570000000 1.0
C      1  0.5323750000000  0.4714570000000  0.5497970000000 1.0
C      1  0.5048080000000  0.4526340000000  0.5485170000000 1.0
C      1  0.4769420000000  0.4589790000000  0.5473690000000 1.0
C      1  0.4632850000000  0.4861110000000  0.5403950000000 1.0
C      1  0.4579340000000  0.5158680000000  0.5474520000000 1.0
C      1  0.4841300000000  0.5349500000000  0.5442410000000 1.0
C      1  0.5132710000000  0.5479670000000  0.5475720000000 1.0
C      1  0.5375790000000  0.5331960000000  0.5460550000000 1.0
C      1  0.5098380000000  0.5868860000000  0.4758110000000 1.0
C      1  0.5491380000000  0.5400860000000  0.4631270000000 1.0
C      1  0.5640830000000  0.4941320000000  0.4704450000000 1.0
C      1  0.5576960000000  0.4493040000000  0.4728120000000 1.0
C      1  0.5102380000000  0.4149270000000  0.4731230000000 1.0
C      1  0.4560070000000  0.4258900000000  0.4668830000000 1.0
C      1  0.4393930000000  0.4796890000000  0.4680270000000 1.0
C      1  0.4331410000000  0.5252490000000  0.4688870000000 1.0
C      1  0.4690250000000  0.5637770000000  0.4729140000000 1.0
C      1  0.5152050000000  0.5345310000000  0.4975300000000 1.0
C      1  0.5350200000000  0.5172590000000  0.5018760000000 1.0
C      1  0.5322870000000  0.5009430000000  0.5230150000000 1.0
C      1  0.5176650000000  0.4769560000000  0.5196390000000 1.0
C      1  0.5073720000000  0.4654160000000  0.4973730000000 1.0
C      1  0.4767530000000  0.4668200000000  0.4944910000000 1.0
C      1  0.4697540000000  0.4923170000000  0.5085800000000 1.0
C      1  0.4721790000000  0.5191940000000  0.4999980000000 1.0
C      1  0.4929440000000  0.5320420000000  0.5129860000000 1.0
C      1  0.5691920000000  0.4738160000000  0.5143440000000 1.0
C      1  0.5350340000000  0.4362950000000  0.5141400000000 1.0
C      1  0.4856910000000  0.4284290000000  0.5122470000000 1.0
C      1  0.4433010000000  0.4526410000000  0.5126480000000 1.0
C      1  0.4250890000000  0.5009160000000  0.5121920000000 1.0
C      1  0.4455860000000  0.5474090000000  0.5152720000000 1.0
C      1  0.4869980000000  0.5764620000000  0.5167260000000 1.0
C      1  0.5378150000000  0.5649800000000  0.5100000000000 1.0
C      1  0.5723700000000  0.5245850000000  0.5136840000000 1.0
C      1  0.4599710000000  0.5201210000000  0.4528820000000 1.0
C      1  0.4805220000000  0.5401350000000  0.4574780000000 1.0
C      1  0.5088480000000  0.5394670000000  0.4569920000000 1.0
C      1  0.5300600000000  0.5177760000000  0.4490020000000 1.0
C      1  0.5404740000000  0.4915750000000  0.4544210000000 1.0
C      1  0.5292970000000  0.4624100000000  0.4553540000000 1.0
C      1  0.4978670000000  0.4580810000000  0.4554790000000 1.0
C      1  0.4798660000000  0.4735230000000  0.4427100000000 1.0
C      1  0.4594820000000  0.4910070000000  0.4505760000000 1.0
END
