TITL C-3289326-3776-100 -0.00303445138124298 125000 -666.684637102146 0 0 130 (C1) n - 1
REM
REM in /nfs/bkarasulu/CARBON/AIRSS/Generating-Clusters/AIREBO/with-SteepDescent/Higher-Symm/SD-CG/HFTN-CG
REM
REM
REM
REM
REM
REM ./C.cell (b20cbc046b6831c77cfcea5457e17084)
REM
REM compiler GCC version 9.2.1 20190827 (Red Hat 9.2.1-1)
REM options -cpp -mtune=generic -march=x86-64 -g -O0 -fpre-include=/usr/include/finclude/math-vector-fortran.h
REM seed -1356777319 1291693601 2015118197 1642094253 -1346165644 -4547307 -212729163 1103265804 113050906 70037685 1758674563 -108955043 -637284810 1594834437 1982683242 1537732754 -1945893045 462769421 -861596239 79753834 -295657415 -493439966 397905680 926538707 1676151332 177482270 1469333778 481155071 379868651 -1467283157 2049193277 -1997764050 818527722
REM
CELL 1.54180   50.00000   50.00000   50.00000   90.00000   90.00000   90.00000
LATT -1
SFAC C  
C      1  0.5400780000000  0.4932040000000  0.5916100000000 1.0
C      1  0.4732890000000  0.5043850000000  0.5886770000000 1.0
C      1  0.5284290000000  0.5191540000000  0.4097380000000 1.0
C      1  0.4688170000000  0.4898150000000  0.4021260000000 1.0
C      1  0.4913360000000  0.5307970000000  0.5921290000000 1.0
C      1  0.5180730000000  0.4700830000000  0.5927320000000 1.0
C      1  0.5036840000000  0.5348950000000  0.3974240000000 1.0
C      1  0.4907810000000  0.4691100000000  0.4090980000000 1.0
C      1  0.4850560000000  0.4025220000000  0.4626480000000 1.0
C      1  0.5059450000000  0.5896930000000  0.4574450000000 1.0
C      1  0.4922300000000  0.5927940000000  0.5426210000000 1.0
C      1  0.5039970000000  0.4105870000000  0.5480830000000 1.0
C      1  0.4065160000000  0.4919120000000  0.4530320000000 1.0
C      1  0.5931660000000  0.5110640000000  0.4556820000000 1.0
C      1  0.5926580000000  0.4941500000000  0.5360010000000 1.0
C      1  0.4042300000000  0.5101130000000  0.5386750000000 1.0
C      1  0.4993730000000  0.4743830000000  0.5544390000000 1.0
C      1  0.4955310000000  0.5153850000000  0.5556360000000 1.0
C      1  0.5021440000000  0.5242070000000  0.4392690000000 1.0
C      1  0.5175990000000  0.4661670000000  0.4511840000000 1.0
C      1  0.4724490000000  0.4907970000000  0.5511890000000 1.0
C      1  0.5240890000000  0.4977420000000  0.5547680000000 1.0
C      1  0.5177570000000  0.4940010000000  0.4383430000000 1.0
C      1  0.4742840000000  0.5069960000000  0.4379380000000 1.0
C      1  0.5011340000000  0.4371710000000  0.4730740000000 1.0
C      1  0.4933810000000  0.5553120000000  0.4732660000000 1.0
C      1  0.5046770000000  0.5563030000000  0.5331220000000 1.0
C      1  0.5025990000000  0.4476510000000  0.5336740000000 1.0
C      1  0.4422740000000  0.5044150000000  0.4649690000000 1.0
C      1  0.5581280000000  0.4976120000000  0.4689680000000 1.0
C      1  0.5561590000000  0.5047160000000  0.5235710000000 1.0
C      1  0.4390980000000  0.4936530000000  0.5294660000000 1.0
C      1  0.5301850000000  0.4385320000000  0.4907250000000 1.0
C      1  0.4615740000000  0.5575990000000  0.4850860000000 1.0
C      1  0.5434530000000  0.5687890000000  0.5267330000000 1.0
C      1  0.4388670000000  0.4338940000000  0.5257480000000 1.0
C      1  0.4448050000000  0.5310570000000  0.4859480000000 1.0
C      1  0.5621270000000  0.4493670000000  0.4870030000000 1.0
C      1  0.5631880000000  0.5546110000000  0.5081400000000 1.0
C      1  0.4305640000000  0.4596440000000  0.5106360000000 1.0
C      1  0.5271440000000  0.5409640000000  0.5158890000000 1.0
C      1  0.4729610000000  0.4611600000000  0.4885470000000 1.0
C      1  0.5368610000000  0.4584530000000  0.5163300000000 1.0
C      1  0.4742420000000  0.5417560000000  0.5106960000000 1.0
C      1  0.5500610000000  0.5270390000000  0.4986460000000 1.0
C      1  0.4571480000000  0.4756540000000  0.5072690000000 1.0
C      1  0.4680440000000  0.5116890000000  0.4941750000000 1.0
C      1  0.5463610000000  0.4789440000000  0.4930280000000 1.0
C      1  0.4615970000000  0.5775720000000  0.5363840000000 1.0
C      1  0.5369270000000  0.4143530000000  0.5395720000000 1.0
C      1  0.4593340000000  0.4248110000000  0.4660610000000 1.0
C      1  0.5412230000000  0.5812780000000  0.4595900000000 1.0
C      1  0.5839710000000  0.4612740000000  0.5356720000000 1.0
C      1  0.4225050000000  0.5383700000000  0.5337820000000 1.0
C      1  0.4184920000000  0.4599810000000  0.4588460000000 1.0
C      1  0.5904480000000  0.5443050000000  0.4625200000000 1.0
C      1  0.4822560000000  0.5513220000000  0.5764350000000 1.0
C      1  0.5243880000000  0.4484050000000  0.5780380000000 1.0
C      1  0.4797440000000  0.4465940000000  0.4233020000000 1.0
C      1  0.5140410000000  0.5570310000000  0.4134860000000 1.0
C      1  0.5622740000000  0.4853240000000  0.5774020000000 1.0
C      1  0.4468370000000  0.5108030000000  0.5744450000000 1.0
C      1  0.4459050000000  0.4823930000000  0.4142110000000 1.0
C      1  0.5447240000000  0.5268030000000  0.4317770000000 1.0
C      1  0.4479560000000  0.5282330000000  0.4413790000000 1.0
C      1  0.5489740000000  0.4880430000000  0.4401930000000 1.0
C      1  0.4462200000000  0.4731310000000  0.5556320000000 1.0
C      1  0.5476520000000  0.5221150000000  0.5521090000000 1.0
C      1  0.5276690000000  0.4420310000000  0.4437640000000 1.0
C      1  0.4767230000000  0.5460230000000  0.4451040000000 1.0
C      1  0.4525150000000  0.4429630000000  0.5494050000000 1.0
C      1  0.5193130000000  0.5395040000000  0.5588180000000 1.0
C      1  0.4480270000000  0.5778440000000  0.5093590000000 1.0
C      1  0.5500670000000  0.4210740000000  0.5122650000000 1.0
C      1  0.4426090000000  0.4264410000000  0.4926570000000 1.0
C      1  0.5580700000000  0.5849270000000  0.4828170000000 1.0
C      1  0.5782480000000  0.4399890000000  0.5144350000000 1.0
C      1  0.4266390000000  0.5516040000000  0.5060490000000 1.0
C      1  0.4154920000000  0.4450510000000  0.4839570000000 1.0
C      1  0.5843930000000  0.5633770000000  0.4866430000000 1.0
C      1  0.4927930000000  0.4175060000000  0.5174670000000 1.0
C      1  0.5093780000000  0.5852520000000  0.5142390000000 1.0
C      1  0.4939490000000  0.5861250000000  0.4876470000000 1.0
C      1  0.5049480000000  0.4077680000000  0.4897230000000 1.0
C      1  0.4107550000000  0.4942600000000  0.5103460000000 1.0
C      1  0.5864570000000  0.5094050000000  0.5088200000000 1.0
C      1  0.5874580000000  0.4930100000000  0.4832180000000 1.0
C      1  0.4125450000000  0.5081600000000  0.4822860000000 1.0
C      1  0.4056120000000  0.5370000000000  0.4870280000000 1.0
C      1  0.5905460000000  0.4639960000000  0.4894030000000 1.0
C      1  0.3982450000000  0.4647910000000  0.5057510000000 1.0
C      1  0.5974820000000  0.5364360000000  0.5028650000000 1.0
C      1  0.5325820000000  0.3989500000000  0.4934730000000 1.0
C      1  0.4665470000000  0.5964270000000  0.4921330000000 1.0
C      1  0.4647350000000  0.4091760000000  0.5118020000000 1.0
C      1  0.5419160000000  0.5914160000000  0.5064730000000 1.0
C      1  0.5330920000000  0.4539900000000  0.5475890000000 1.0
C      1  0.4737940000000  0.5466710000000  0.5436450000000 1.0
C      1  0.5240480000000  0.5541010000000  0.4586120000000 1.0
C      1  0.4758320000000  0.4530820000000  0.4567940000000 1.0
C      1  0.4490450000000  0.5232690000000  0.5428870000000 1.0
C      1  0.5571200000000  0.4778760000000  0.5444460000000 1.0
C      1  0.5446000000000  0.5281740000000  0.4658050000000 1.0
C      1  0.4479890000000  0.4728170000000  0.4544270000000 1.0
C      1  0.5731910000000  0.5324720000000  0.4383850000000 1.0
C      1  0.4217890000000  0.4743030000000  0.4282770000000 1.0
C      1  0.5903150000000  0.4774190000000  0.5654340000000 1.0
C      1  0.4167190000000  0.5265910000000  0.5656680000000 1.0
C      1  0.5236310000000  0.5785570000000  0.4306220000000 1.0
C      1  0.4733430000000  0.4194040000000  0.4355550000000 1.0
C      1  0.4739190000000  0.5786830000000  0.5675540000000 1.0
C      1  0.5272080000000  0.4209120000000  0.5692750000000 1.0
C      1  0.4778310000000  0.4966720000000  0.5212480000000 1.0
C      1  0.5233740000000  0.4961110000000  0.5208070000000 1.0
C      1  0.4847060000000  0.5036130000000  0.4685630000000 1.0
C      1  0.5229260000000  0.5003950000000  0.4870740000000 1.0
C      1  0.5064050000000  0.4690650000000  0.5090060000000 1.0
C      1  0.5007210000000  0.5208820000000  0.5150800000000 1.0
C      1  0.5008370000000  0.4767980000000  0.4769270000000 1.0
C      1  0.5032180000000  0.5261510000000  0.4825110000000 1.0
C      1  0.5112080000000  0.4177520000000  0.4470440000000 1.0
C      1  0.4848220000000  0.5751940000000  0.4396820000000 1.0
C      1  0.5128160000000  0.5733130000000  0.5614200000000 1.0
C      1  0.4784650000000  0.4326460000000  0.5523460000000 1.0
C      1  0.4206350000000  0.5139820000000  0.4330600000000 1.0
C      1  0.5768910000000  0.4931030000000  0.4330780000000 1.0
C      1  0.5770330000000  0.5155350000000  0.5559150000000 1.0
C      1  0.4198470000000  0.4927610000000  0.5643300000000 1.0
C      1  0.4980360000000  0.5040420000000  0.4121930000000 1.0
C      1  0.5068690000000  0.5010800000000  0.5843370000000 1.0
END
