TITL C-3289326-3776-101 0.000123734938841159 125000 -772.703950777742 0 0 137 (C1) n - 1
REM
REM in /nfs/bkarasulu/CARBON/AIRSS/Generating-Clusters/AIREBO/with-SteepDescent/Higher-Symm/SD-CG/HFTN-CG
REM
REM
REM
REM
REM
REM ./C.cell (b20cbc046b6831c77cfcea5457e17084)
REM
REM compiler GCC version 9.2.1 20190827 (Red Hat 9.2.1-1)
REM options -cpp -mtune=generic -march=x86-64 -g -O0 -fpre-include=/usr/include/finclude/math-vector-fortran.h
REM seed -113249989 -1131173781 282651313 853069476 969305701 -1693960956 -2087412201 -1243844665 1922797101 -398611689 51772848 -186968284 477721138 210969120 -207349318 1179562907 665952251 221070753 -1246457318 -1022914351 -2086614601 -872176570 801040272 87338999 -22212633 552218682 -866727865 -509234293 1131836413 -28493232 -1390086133 -945591384 -337753948
REM
CELL 1.54180   50.00000   50.00000   50.00000   90.00000   90.00000   90.00000
LATT -1
SFAC C  
C      1  0.4827210000000  0.5196910000000  0.4463130000000 1.0
C      1  0.4716870000000  0.5369580000000  0.5428930000000 1.0
C      1  0.4735900000000  0.4514940000000  0.5137870000000 1.0
C      1  0.5357550000000  0.5177630000000  0.4427570000000 1.0
C      1  0.5323220000000  0.5366240000000  0.5437220000000 1.0
C      1  0.5284460000000  0.4447200000000  0.5096030000000 1.0
C      1  0.5260080000000  0.4715340000000  0.4044560000000 1.0
C      1  0.5266620000000  0.5851620000000  0.5131970000000 1.0
C      1  0.5265130000000  0.4343610000000  0.5704370000000 1.0
C      1  0.4761690000000  0.4679080000000  0.4082680000000 1.0
C      1  0.4721760000000  0.5930570000000  0.5165370000000 1.0
C      1  0.4788740000000  0.4395560000000  0.5754890000000 1.0
C      1  0.4499260000000  0.5274510000000  0.5185500000000 1.0
C      1  0.4472650000000  0.4709060000000  0.5248780000000 1.0
C      1  0.4444220000000  0.4884430000000  0.4705050000000 1.0
C      1  0.5584370000000  0.5325550000000  0.5049070000000 1.0
C      1  0.5600010000000  0.4805770000000  0.5272950000000 1.0
C      1  0.5580890000000  0.4868800000000  0.4677520000000 1.0
C      1  0.5184040000000  0.4306150000000  0.5376230000000 1.0
C      1  0.5186790000000  0.5018420000000  0.4180290000000 1.0
C      1  0.5183820000000  0.5676560000000  0.5411560000000 1.0
C      1  0.4889030000000  0.4464670000000  0.5437400000000 1.0
C      1  0.4890700000000  0.4903840000000  0.4302830000000 1.0
C      1  0.4858260000000  0.5657010000000  0.5314430000000 1.0
C      1  0.4593890000000  0.5025550000000  0.4189470000000 1.0
C      1  0.4567680000000  0.5735630000000  0.5473340000000 1.0
C      1  0.4620180000000  0.4257050000000  0.5420320000000 1.0
C      1  0.5511890000000  0.5020670000000  0.4080110000000 1.0
C      1  0.5507320000000  0.5777490000000  0.5441400000000 1.0
C      1  0.5520850000000  0.4270010000000  0.5408140000000 1.0
C      1  0.5208410000000  0.5520440000000  0.5890010000000 1.0
C      1  0.5179750000000  0.3984630000000  0.4987270000000 1.0
C      1  0.5219210000000  0.5517440000000  0.4153140000000 1.0
C      1  0.4771230000000  0.5654110000000  0.5704440000000 1.0
C      1  0.4742220000000  0.4101850000000  0.5199540000000 1.0
C      1  0.4764440000000  0.5260770000000  0.4044720000000 1.0
C      1  0.5263300000000  0.4833110000000  0.4749320000000 1.0
C      1  0.5300320000000  0.5277430000000  0.4961600000000 1.0
C      1  0.5298400000000  0.4893470000000  0.5277940000000 1.0
C      1  0.4753570000000  0.4865460000000  0.4780980000000 1.0
C      1  0.4774330000000  0.5296570000000  0.4986840000000 1.0
C      1  0.4761050000000  0.4885710000000  0.5284050000000 1.0
C      1  0.5902410000000  0.5058180000000  0.5329290000000 1.0
C      1  0.5867110000000  0.4721310000000  0.4935940000000 1.0
C      1  0.5906350000000  0.5246750000000  0.4827880000000 1.0
C      1  0.4034430000000  0.5073970000000  0.5230870000000 1.0
C      1  0.4041890000000  0.4740790000000  0.4821570000000 1.0
C      1  0.4020790000000  0.5254250000000  0.4784580000000 1.0
C      1  0.4768120000000  0.5094200000000  0.5621760000000 1.0
C      1  0.4764350000000  0.4454920000000  0.4803810000000 1.0
C      1  0.4701550000000  0.5451350000000  0.4389610000000 1.0
C      1  0.5215980000000  0.5188890000000  0.5667240000000 1.0
C      1  0.5174190000000  0.4351950000000  0.4831960000000 1.0
C      1  0.5150340000000  0.5424820000000  0.4535210000000 1.0
C      1  0.4241750000000  0.4517980000000  0.4657060000000 1.0
C      1  0.4266330000000  0.5478710000000  0.4762010000000 1.0
C      1  0.4295170000000  0.4948310000000  0.5660160000000 1.0
C      1  0.5755520000000  0.4508500000000  0.4690050000000 1.0
C      1  0.5824120000000  0.5540970000000  0.4678410000000 1.0
C      1  0.5741280000000  0.4993850000000  0.5615850000000 1.0
C      1  0.4339200000000  0.5649620000000  0.5328110000000 1.0
C      1  0.4383360000000  0.4396010000000  0.5478230000000 1.0
C      1  0.4363070000000  0.4910230000000  0.4299270000000 1.0
C      1  0.5709950000000  0.5719090000000  0.5271560000000 1.0
C      1  0.5704190000000  0.4469580000000  0.5461980000000 1.0
C      1  0.5684360000000  0.4869600000000  0.4227190000000 1.0
C      1  0.3976100000000  0.4971900000000  0.4636320000000 1.0
C      1  0.3966760000000  0.5300100000000  0.5083310000000 1.0
C      1  0.4025730000000  0.4805150000000  0.5153390000000 1.0
C      1  0.5964640000000  0.4951070000000  0.4747360000000 1.0
C      1  0.5975350000000  0.5300000000000  0.5127920000000 1.0
C      1  0.5993020000000  0.4768250000000  0.5215430000000 1.0
C      1  0.4645460000000  0.4496260000000  0.4263980000000 1.0
C      1  0.4578770000000  0.5819430000000  0.4951470000000 1.0
C      1  0.4665780000000  0.4640430000000  0.5828350000000 1.0
C      1  0.5333540000000  0.4531640000000  0.4232520000000 1.0
C      1  0.5426740000000  0.5812950000000  0.4914780000000 1.0
C      1  0.5347460000000  0.4594370000000  0.5777930000000 1.0
C      1  0.5143570000000  0.4569150000000  0.4640770000000 1.0
C      1  0.5155790000000  0.5526960000000  0.4852660000000 1.0
C      1  0.5192640000000  0.4900660000000  0.5572740000000 1.0
C      1  0.4856300000000  0.4676480000000  0.4555990000000 1.0
C      1  0.4889630000000  0.5571970000000  0.4986580000000 1.0
C      1  0.4897000000000  0.4790000000000  0.5538670000000 1.0
C      1  0.5462200000000  0.4055050000000  0.4951860000000 1.0
C      1  0.5503020000000  0.5491710000000  0.4194020000000 1.0
C      1  0.5490360000000  0.5471340000000  0.5849680000000 1.0
C      1  0.4626400000000  0.4181390000000  0.4951640000000 1.0
C      1  0.4495180000000  0.5423090000000  0.4127080000000 1.0
C      1  0.4612790000000  0.5371100000000  0.5746550000000 1.0
C      1  0.5073960000000  0.5257730000000  0.5919430000000 1.0
C      1  0.5029720000000  0.4107560000000  0.4758510000000 1.0
C      1  0.5120020000000  0.5723580000000  0.4376520000000 1.0
C      1  0.4831030000000  0.5106550000000  0.5948960000000 1.0
C      1  0.4799310000000  0.4187230000000  0.4597040000000 1.0
C      1  0.4828160000000  0.5696210000000  0.4476560000000 1.0
C      1  0.4316360000000  0.4606130000000  0.4964870000000 1.0
C      1  0.4321420000000  0.5167930000000  0.4648730000000 1.0
C      1  0.4263210000000  0.5158050000000  0.5402200000000 1.0
C      1  0.5570910000000  0.4580190000000  0.5025680000000 1.0
C      1  0.5623230000000  0.5203980000000  0.4638510000000 1.0
C      1  0.5641930000000  0.5275740000000  0.5358730000000 1.0
C      1  0.4862130000000  0.4814330000000  0.5943740000000 1.0
C      1  0.4849060000000  0.4318020000000  0.4351570000000 1.0
C      1  0.4768140000000  0.5764300000000  0.4735780000000 1.0
C      1  0.5127280000000  0.4758790000000  0.5861930000000 1.0
C      1  0.5110670000000  0.4434390000000  0.4364670000000 1.0
C      1  0.5282120000000  0.5775010000000  0.4658540000000 1.0
C      1  0.4326020000000  0.5265170000000  0.5719490000000 1.0
C      1  0.4363900000000  0.4288620000000  0.4877600000000 1.0
C      1  0.4386440000000  0.5435660000000  0.4449050000000 1.0
C      1  0.5611750000000  0.5271280000000  0.5697390000000 1.0
C      1  0.5600100000000  0.4283910000000  0.4861400000000 1.0
C      1  0.5661730000000  0.5462360000000  0.4421020000000 1.0
C      1  0.4855140000000  0.5139190000000  0.4752030000000 1.0
C      1  0.4915230000000  0.5125950000000  0.5190300000000 1.0
C      1  0.4886520000000  0.4764410000000  0.5022930000000 1.0
C      1  0.5170820000000  0.5135040000000  0.4712250000000 1.0
C      1  0.5203500000000  0.5175880000000  0.5220550000000 1.0
C      1  0.5181930000000  0.4739590000000  0.5041520000000 1.0
C      1  0.5565690000000  0.4628380000000  0.4435380000000 1.0
C      1  0.5668780000000  0.5610150000000  0.4952100000000 1.0
C      1  0.5564830000000  0.4718030000000  0.5599720000000 1.0
C      1  0.4441820000000  0.4650800000000  0.4457230000000 1.0
C      1  0.4403930000000  0.5553510000000  0.5015710000000 1.0
C      1  0.4443840000000  0.4701960000000  0.5595570000000 1.0
C      1  0.5963360000000  0.4548880000000  0.5378560000000 1.0
C      1  0.5853260000000  0.4902720000000  0.4476670000000 1.0
C      1  0.5954180000000  0.5551650000000  0.5225660000000 1.0
C      1  0.4159470000000  0.4603230000000  0.5328850000000 1.0
C      1  0.4087510000000  0.4960040000000  0.4380710000000 1.0
C      1  0.4057100000000  0.5547080000000  0.5212110000000 1.0
C      1  0.5054510000000  0.5683940000000  0.5713740000000 1.0
C      1  0.5047960000000  0.5299330000000  0.4083070000000 1.0
C      1  0.5034540000000  0.4055610000000  0.5226380000000 1.0
C      1  0.5575220000000  0.4989800000000  0.4995290000000 1.0
C      1  0.4462340000000  0.4972110000000  0.5033340000000 1.0
END
