TITL C-3289332-8317-431 -0.000599949847030794 125000 -105.04484827677 0 0 20 (C1) n - 1
REM
REM in /nfs/bkarasulu/CARBON/AIRSS/Generating-Clusters/AIREBO/with-SteepDescent/Higher-Symm/SD-CG/HFTN-CG
REM
REM
REM
REM
REM
REM ./C.cell (b20cbc046b6831c77cfcea5457e17084)
REM
REM compiler GCC version 9.2.1 20190827 (Red Hat 9.2.1-1)
REM options -cpp -mtune=generic -march=x86-64 -g -O0 -fpre-include=/usr/include/finclude/math-vector-fortran.h
REM seed -1338586378 1078849814 1095944961 570602520 -1402200076 -548473110 777855581 241188956 316848409 -479256043 2121998932 324368970 -2115287081 -1252548835 -1902235242 1895992194 970491508 2072779962 1493726850 1858558004 -1839520525 2053213565 -889343103 1650960533 -348955709 1887343373 -1388249924 -167084922 -1469221594 2045442696 -594070771 2123768097 827416536
REM
CELL 1.54180   50.00000   50.00000   50.00000   90.00000   90.00000   90.00000
LATT -1
SFAC C  
C      1  0.5370020000000  0.5027290000000  0.5418090000000 1.0
C      1  0.4594100000000  0.5066590000000  0.5351470000000 1.0
C      1  0.4586160000000  0.5015200000000  0.4622950000000 1.0
C      1  0.5381470000000  0.4992250000000  0.4578890000000 1.0
C      1  0.4886790000000  0.5144020000000  0.4745860000000 1.0
C      1  0.5118670000000  0.4822980000000  0.4731990000000 1.0
C      1  0.5079140000000  0.5128310000000  0.5256820000000 1.0
C      1  0.4943590000000  0.4617060000000  0.5222890000000 1.0
C      1  0.5274110000000  0.5271360000000  0.5017540000000 1.0
C      1  0.4732350000000  0.4703840000000  0.5071250000000 1.0
C      1  0.4729510000000  0.5318330000000  0.4978580000000 1.0
C      1  0.5319620000000  0.4730850000000  0.4976280000000 1.0
C      1  0.5459510000000  0.5247370000000  0.5243500000000 1.0
C      1  0.4527740000000  0.4830250000000  0.5220120000000 1.0
C      1  0.4506940000000  0.5258500000000  0.4776120000000 1.0
C      1  0.5513880000000  0.4792440000000  0.4762720000000 1.0
C      1  0.4801750000000  0.4818910000000  0.4797880000000 1.0
C      1  0.5188950000000  0.5182580000000  0.4754500000000 1.0
C      1  0.5190170000000  0.4807300000000  0.5240660000000 1.0
C      1  0.4795520000000  0.5224580000000  0.5231890000000 1.0
END
