TITL C-3289328-6581-296 0.00262346190268705 125000 -541.326406208233 0 0 105 (C1) n - 1
REM
REM in /nfs/bkarasulu/CARBON/AIRSS/Generating-Clusters/AIREBO/with-SteepDescent/Higher-Symm/SD-CG/HFTN-CG
REM
REM
REM
REM
REM
REM ./C.cell (b20cbc046b6831c77cfcea5457e17084)
REM
REM compiler GCC version 9.2.1 20190827 (Red Hat 9.2.1-1)
REM options -cpp -mtune=generic -march=x86-64 -g -O0 -fpre-include=/usr/include/finclude/math-vector-fortran.h
REM seed 858041768 -84410525 -1323891583 57904350 855906686 -1819225916 1111597305 -1196764149 -355097762 -105875736 1720230399 909795852 -1037005 -1236130899 -755520755 -677376425 -269136845 697959524 897208643 1526100736 -562722623 2023185861 828133821 -2027488187 -370788644 702855768 2034423798 298787728 -907212006 165003223 1062267496 220708212 138019803
REM
CELL 1.54180   50.00000   50.00000   50.00000   90.00000   90.00000   90.00000
LATT -1
SFAC C  
C      1  0.4937070000000  0.5143720000000  0.4302400000000 1.0
C      1  0.5129650000000  0.4865260000000  0.4333810000000 1.0
C      1  0.4668990000000  0.5367050000000  0.5747320000000 1.0
C      1  0.5312040000000  0.4659210000000  0.5733620000000 1.0
C      1  0.4689190000000  0.5456540000000  0.4301050000000 1.0
C      1  0.5355430000000  0.4617650000000  0.4255160000000 1.0
C      1  0.4964860000000  0.5538070000000  0.5013480000000 1.0
C      1  0.5026390000000  0.4466790000000  0.5057810000000 1.0
C      1  0.5672590000000  0.4739820000000  0.5134130000000 1.0
C      1  0.4220530000000  0.5324090000000  0.5179240000000 1.0
C      1  0.5316940000000  0.5083590000000  0.4760170000000 1.0
C      1  0.4678310000000  0.4875990000000  0.4751620000000 1.0
C      1  0.4848200000000  0.4909710000000  0.5939910000000 1.0
C      1  0.5089330000000  0.4982750000000  0.5983590000000 1.0
C      1  0.4531260000000  0.4986860000000  0.5041110000000 1.0
C      1  0.5460790000000  0.4973400000000  0.5051430000000 1.0
C      1  0.5511790000000  0.4510850000000  0.5304440000000 1.0
C      1  0.4467540000000  0.5486970000000  0.5320700000000 1.0
C      1  0.4389640000000  0.4460090000000  0.5341590000000 1.0
C      1  0.5559900000000  0.5446950000000  0.5363950000000 1.0
C      1  0.5686520000000  0.4985080000000  0.4481670000000 1.0
C      1  0.4228600000000  0.4989180000000  0.4472090000000 1.0
C      1  0.4528930000000  0.5130980000000  0.5682870000000 1.0
C      1  0.5474210000000  0.4888680000000  0.5737360000000 1.0
C      1  0.5826520000000  0.5507580000000  0.4978740000000 1.0
C      1  0.4173700000000  0.4481020000000  0.5005920000000 1.0
C      1  0.5449620000000  0.5571270000000  0.4338110000000 1.0
C      1  0.4674230000000  0.4584180000000  0.4479380000000 1.0
C      1  0.4404950000000  0.4796340000000  0.5292960000000 1.0
C      1  0.5644390000000  0.5155520000000  0.5245830000000 1.0
C      1  0.4915110000000  0.5842870000000  0.5017560000000 1.0
C      1  0.5237850000000  0.3984120000000  0.5072010000000 1.0
C      1  0.4734960000000  0.4608780000000  0.4954290000000 1.0
C      1  0.5237790000000  0.5356450000000  0.4947010000000 1.0
C      1  0.5194420000000  0.5947480000000  0.5145420000000 1.0
C      1  0.4994310000000  0.4149320000000  0.5159630000000 1.0
C      1  0.5537680000000  0.5477880000000  0.4847840000000 1.0
C      1  0.4479930000000  0.4404270000000  0.4922230000000 1.0
C      1  0.4379170000000  0.4891520000000  0.5608430000000 1.0
C      1  0.5597500000000  0.5101950000000  0.5559500000000 1.0
C      1  0.5458220000000  0.5371310000000  0.5683730000000 1.0
C      1  0.4471960000000  0.4598770000000  0.5631780000000 1.0
C      1  0.4780930000000  0.5375530000000  0.5249180000000 1.0
C      1  0.5202920000000  0.4645030000000  0.5290500000000 1.0
C      1  0.4795230000000  0.5187710000000  0.4966060000000 1.0
C      1  0.5178210000000  0.4835600000000  0.5038250000000 1.0
C      1  0.4517860000000  0.5638860000000  0.4697360000000 1.0
C      1  0.5515060000000  0.4294180000000  0.4669660000000 1.0
C      1  0.4877180000000  0.5189830000000  0.4001200000000 1.0
C      1  0.4852150000000  0.5234210000000  0.3751140000000 1.0
C      1  0.4642840000000  0.4301170000000  0.5271170000000 1.0
C      1  0.5368550000000  0.5690120000000  0.5242270000000 1.0
C      1  0.4741070000000  0.4890720000000  0.4417540000000 1.0
C      1  0.5315040000000  0.5111300000000  0.4421210000000 1.0
C      1  0.4186710000000  0.5248700000000  0.4691900000000 1.0
C      1  0.5840290000000  0.4722010000000  0.4611410000000 1.0
C      1  0.5231830000000  0.4433190000000  0.4821810000000 1.0
C      1  0.4822260000000  0.5541320000000  0.4714060000000 1.0
C      1  0.4468320000000  0.4966440000000  0.4259030000000 1.0
C      1  0.5572620000000  0.5059140000000  0.4205300000000 1.0
C      1  0.4966290000000  0.5333170000000  0.5751880000000 1.0
C      1  0.5011890000000  0.4720400000000  0.5628680000000 1.0
C      1  0.5173200000000  0.4599600000000  0.4541720000000 1.0
C      1  0.4984780000000  0.5453370000000  0.4435760000000 1.0
C      1  0.5385640000000  0.4421890000000  0.5573910000000 1.0
C      1  0.4585690000000  0.5608140000000  0.5591300000000 1.0
C      1  0.4739880000000  0.4206460000000  0.4959330000000 1.0
C      1  0.5354830000000  0.5757950000000  0.4909370000000 1.0
C      1  0.4949020000000  0.4119830000000  0.5460490000000 1.0
C      1  0.4986930000000  0.5876640000000  0.5405740000000 1.0
C      1  0.5736290000000  0.5251760000000  0.4688760000000 1.0
C      1  0.4227000000000  0.4722790000000  0.4648600000000 1.0
C      1  0.4875150000000  0.4823130000000  0.5151180000000 1.0
C      1  0.5057330000000  0.5186000000000  0.5182810000000 1.0
C      1  0.5473740000000  0.4072160000000  0.5062010000000 1.0
C      1  0.4640120000000  0.5869010000000  0.4996410000000 1.0
C      1  0.5203090000000  0.5669950000000  0.4422130000000 1.0
C      1  0.4898680000000  0.4424380000000  0.4504670000000 1.0
C      1  0.4238770000000  0.4963300000000  0.4869210000000 1.0
C      1  0.5853370000000  0.4967890000000  0.4840970000000 1.0
C      1  0.4486930000000  0.5571220000000  0.5012820000000 1.0
C      1  0.5521030000000  0.4397410000000  0.4993610000000 1.0
C      1  0.4132380000000  0.4706480000000  0.5153700000000 1.0
C      1  0.5898430000000  0.5217170000000  0.5065160000000 1.0
C      1  0.5226910000000  0.5840810000000  0.4633200000000 1.0
C      1  0.4864360000000  0.4204610000000  0.4664840000000 1.0
C      1  0.5793820000000  0.4571550000000  0.4886310000000 1.0
C      1  0.4188290000000  0.5455070000000  0.4906410000000 1.0
C      1  0.4709270000000  0.5052320000000  0.5327350000000 1.0
C      1  0.5140240000000  0.4954560000000  0.5418070000000 1.0
C      1  0.4123650000000  0.5046800000000  0.5168970000000 1.0
C      1  0.5966390000000  0.4896810000000  0.5154830000000 1.0
C      1  0.5244690000000  0.5521500000000  0.5482280000000 1.0
C      1  0.4727970000000  0.4437350000000  0.5544640000000 1.0
C      1  0.5590190000000  0.4529570000000  0.4484810000000 1.0
C      1  0.4506530000000  0.5423220000000  0.4499550000000 1.0
C      1  0.5443850000000  0.4795920000000  0.4630690000000 1.0
C      1  0.4498460000000  0.5133280000000  0.4620480000000 1.0
C      1  0.4445370000000  0.4543280000000  0.4637760000000 1.0
C      1  0.5523420000000  0.5349950000000  0.4467700000000 1.0
C      1  0.4922440000000  0.5556340000000  0.5500100000000 1.0
C      1  0.5049820000000  0.4382700000000  0.5616530000000 1.0
C      1  0.5225850000000  0.5118550000000  0.5704030000000 1.0
C      1  0.4775430000000  0.4926800000000  0.5619340000000 1.0
C      1  0.4994080000000  0.4988590000000  0.4808850000000 1.0
END
