TITL C-3289327-5623-45 1.16083848941479e-07 125000 -73.3956840564338 0 0 15 (C1) n - 1
REM
REM in /nfs/bkarasulu/CARBON/AIRSS/Generating-Clusters/AIREBO/with-SteepDescent/Higher-Symm/SD-CG/HFTN-CG
REM
REM
REM
REM
REM
REM ./C.cell (b20cbc046b6831c77cfcea5457e17084)
REM
REM compiler GCC version 9.2.1 20190827 (Red Hat 9.2.1-1)
REM options -cpp -mtune=generic -march=x86-64 -g -O0 -fpre-include=/usr/include/finclude/math-vector-fortran.h
REM seed -1878653440 -1217502765 1676683430 -1135497709 2065013112 -1558522818 -1869419348 55171712 -1751435584 -807553679 -1963322428 -1233165987 -999115427 -162443590 846356999 -1459833148 -1643569927 1353325371 -1582285051 -1737714970 -1543977156 -1584866174 -589777232 -1551365924 812501858 -1483752059 1952171161 1923491677 -1203708491 -849537365 -1399127710 1549397095 -42898799
REM
CELL 1.54180   50.00000   50.00000   50.00000   90.00000   90.00000   90.00000
LATT -1
SFAC C  
C      1  0.4690630000000  0.4836420000000  0.5472160000000 1.0
C      1  0.5326130000000  0.5157470000000  0.4578860000000 1.0
C      1  0.4931800000000  0.4417140000000  0.6153130000000 1.0
C      1  0.5066990000000  0.5606010000000  0.3923710000000 1.0
C      1  0.5288240000000  0.5284510000000  0.4345500000000 1.0
C      1  0.4721870000000  0.4719190000000  0.5711650000000 1.0
C      1  0.5374740000000  0.5557500000000  0.3847250000000 1.0
C      1  0.4621250000000  0.4465480000000  0.6217370000000 1.0
C      1  0.5257070000000  0.5433910000000  0.4125020000000 1.0
C      1  0.4747000000000  0.4579070000000  0.5938880000000 1.0
C      1  0.4505020000000  0.5020180000000  0.5281920000000 1.0
C      1  0.5515900000000  0.4970360000000  0.4761780000000 1.0
C      1  0.4815570000000  0.4971570000000  0.5207090000000 1.0
C      1  0.5207500000000  0.5019060000000  0.4844490000000 1.0
C      1  0.5007060000000  0.4984510000000  0.5019380000000 1.0
END
