TITL C-3289323-3850-418 0.000613577685915292 125000 -158.269320144717 0 0 28 (C1) n - 1
REM
REM in /nfs/bkarasulu/CARBON/AIRSS/Generating-Clusters/AIREBO/with-SteepDescent/Higher-Symm/SD-CG/HFTN-CG
REM
REM
REM
REM
REM
REM ./C.cell (b20cbc046b6831c77cfcea5457e17084)
REM
REM compiler GCC version 9.2.1 20190827 (Red Hat 9.2.1-1)
REM options -cpp -mtune=generic -march=x86-64 -g -O0 -fpre-include=/usr/include/finclude/math-vector-fortran.h
REM seed 764836209 -1496480598 -587975997 -274921873 1121298958 1697104198 2097622286 -869911456 1091237690 -1067412475 -1406718197 -1229560116 -38534110 -780433695 195642568 -1014758958 1525069340 -940134652 -894838724 -306255115 -1505810264 -691549724 256721039 569097402 -27913856 97380497 36950276 -407678037 1890982222 239991677 489576379 -1462863213 -1202901422
REM
CELL 1.54180   50.00000   50.00000   50.00000   90.00000   90.00000   90.00000
LATT -1
SFAC C  
C      1  0.5581620000000  0.5150560000000  0.4726160000000 1.0
C      1  0.5364290000000  0.5433670000000  0.5256730000000 1.0
C      1  0.4749040000000  0.4767030000000  0.5546940000000 1.0
C      1  0.5354640000000  0.4919740000000  0.4830080000000 1.0
C      1  0.5128870000000  0.5382250000000  0.5051390000000 1.0
C      1  0.4969210000000  0.4992510000000  0.5924660000000 1.0
C      1  0.4969410000000  0.5597270000000  0.4871940000000 1.0
C      1  0.4644580000000  0.4601030000000  0.4786690000000 1.0
C      1  0.5108290000000  0.5060960000000  0.5452030000000 1.0
C      1  0.4706270000000  0.4774300000000  0.5268960000000 1.0
C      1  0.4730800000000  0.4568320000000  0.5085840000000 1.0
C      1  0.5239400000000  0.4524130000000  0.5035050000000 1.0
C      1  0.4939440000000  0.5188300000000  0.5217110000000 1.0
C      1  0.4975400000000  0.4565290000000  0.4851770000000 1.0
C      1  0.4547190000000  0.5050150000000  0.4915660000000 1.0
C      1  0.5113760000000  0.4795730000000  0.4670960000000 1.0
C      1  0.4576970000000  0.4990750000000  0.4227890000000 1.0
C      1  0.5261730000000  0.5239400000000  0.4803350000000 1.0
C      1  0.5060680000000  0.5251250000000  0.4572680000000 1.0
C      1  0.4947730000000  0.4930240000000  0.5659710000000 1.0
C      1  0.4698100000000  0.4946670000000  0.4463110000000 1.0
C      1  0.5370960000000  0.4762630000000  0.5083690000000 1.0
C      1  0.5369600000000  0.4908560000000  0.5311650000000 1.0
C      1  0.4567040000000  0.4859810000000  0.4701830000000 1.0
C      1  0.5401640000000  0.5209690000000  0.5412600000000 1.0
C      1  0.4717880000000  0.5035450000000  0.5143670000000 1.0
C      1  0.4973770000000  0.4990400000000  0.4518030000000 1.0
C      1  0.4931710000000  0.5503930000000  0.4609780000000 1.0
END
