TITL C-3289327-5623-261 -0.00115639348192157 125000 -998.87870925741 0 0 179 (C1) n - 1
REM
REM in /nfs/bkarasulu/CARBON/AIRSS/Generating-Clusters/AIREBO/with-SteepDescent/Higher-Symm/SD-CG/HFTN-CG
REM
REM
REM
REM
REM
REM ./C.cell (b20cbc046b6831c77cfcea5457e17084)
REM
REM compiler GCC version 9.2.1 20190827 (Red Hat 9.2.1-1)
REM options -cpp -mtune=generic -march=x86-64 -g -O0 -fpre-include=/usr/include/finclude/math-vector-fortran.h
REM seed -194999008 1081880653 -1596391035 3206017 -965235324 -935160423 99664721 -700650624 1734057724 -1339408047 -143746668 -1764518252 1237316751 1376964829 -1004042266 -258005124 1222398336 1058822324 -588259482 -1947657048 1677543156 1301761748 951563180 -832240975 1235447097 -2039760736 1886869392 1880524080 -2025779335 68182537 -1419547827 -1140338327 -1193687198
REM
CELL 1.54180   50.00000   50.00000   50.00000   90.00000   90.00000   90.00000
LATT -1
SFAC C  
C      1  0.5194850000000  0.4281630000000  0.4260430000000 1.0
C      1  0.5819670000000  0.4856000000000  0.4164730000000 1.0
C      1  0.5364960000000  0.5767550000000  0.4180570000000 1.0
C      1  0.4375650000000  0.5645350000000  0.4214700000000 1.0
C      1  0.4368720000000  0.4609690000000  0.4194790000000 1.0
C      1  0.5140590000000  0.4198300000000  0.5842250000000 1.0
C      1  0.5784230000000  0.4815210000000  0.5881170000000 1.0
C      1  0.5347540000000  0.5790300000000  0.5779940000000 1.0
C      1  0.4528630000000  0.5529030000000  0.5873740000000 1.0
C      1  0.4322320000000  0.4626290000000  0.5709390000000 1.0
C      1  0.4616420000000  0.5871240000000  0.5222550000000 1.0
C      1  0.4006470000000  0.4920870000000  0.5187500000000 1.0
C      1  0.4758730000000  0.4142020000000  0.5223740000000 1.0
C      1  0.5773220000000  0.4527250000000  0.5140460000000 1.0
C      1  0.5696850000000  0.5674650000000  0.5155580000000 1.0
C      1  0.4504340000000  0.5800210000000  0.4924650000000 1.0
C      1  0.4111960000000  0.4769450000000  0.4907100000000 1.0
C      1  0.4891950000000  0.4143550000000  0.4951700000000 1.0
C      1  0.5944550000000  0.4625900000000  0.4906800000000 1.0
C      1  0.5591870000000  0.5692070000000  0.4857200000000 1.0
C      1  0.5231530000000  0.4869300000000  0.6132080000000 1.0
C      1  0.5214510000000  0.5166190000000  0.6115730000000 1.0
C      1  0.4949100000000  0.5250000000000  0.6170310000000 1.0
C      1  0.4778250000000  0.4998010000000  0.6244160000000 1.0
C      1  0.4964470000000  0.4780980000000  0.6137850000000 1.0
C      1  0.5258140000000  0.4957430000000  0.3839660000000 1.0
C      1  0.5196180000000  0.5262760000000  0.3789760000000 1.0
C      1  0.4913560000000  0.5305830000000  0.3815990000000 1.0
C      1  0.4779990000000  0.5030200000000  0.3835620000000 1.0
C      1  0.5009310000000  0.4847670000000  0.3920550000000 1.0
C      1  0.4955820000000  0.4729280000000  0.4210130000000 1.0
C      1  0.5522280000000  0.4964930000000  0.4040550000000 1.0
C      1  0.5375960000000  0.5262580000000  0.4062000000000 1.0
C      1  0.4815050000000  0.5298670000000  0.4126550000000 1.0
C      1  0.4718470000000  0.4973980000000  0.4162680000000 1.0
C      1  0.4852020000000  0.4669980000000  0.5871910000000 1.0
C      1  0.5481390000000  0.4941520000000  0.5920090000000 1.0
C      1  0.5362190000000  0.5253110000000  0.5864080000000 1.0
C      1  0.4699400000000  0.5249930000000  0.5948520000000 1.0
C      1  0.4627820000000  0.4916930000000  0.5950200000000 1.0
C      1  0.5669920000000  0.4977270000000  0.4514840000000 1.0
C      1  0.5208760000000  0.5578240000000  0.4496390000000 1.0
C      1  0.4465390000000  0.5368440000000  0.4611250000000 1.0
C      1  0.4616930000000  0.4585720000000  0.4361970000000 1.0
C      1  0.5348190000000  0.4378260000000  0.4493090000000 1.0
C      1  0.5628550000000  0.5020810000000  0.5426500000000 1.0
C      1  0.5182690000000  0.5590070000000  0.5477230000000 1.0
C      1  0.4499240000000  0.5385810000000  0.5480550000000 1.0
C      1  0.4565150000000  0.4664250000000  0.5539710000000 1.0
C      1  0.5194510000000  0.4384860000000  0.5563120000000 1.0
C      1  0.4428990000000  0.4924630000000  0.4272320000000 1.0
C      1  0.4948640000000  0.4414180000000  0.4229220000000 1.0
C      1  0.5749610000000  0.4593220000000  0.4254260000000 1.0
C      1  0.5515450000000  0.5484680000000  0.4234500000000 1.0
C      1  0.4703900000000  0.5604740000000  0.4225030000000 1.0
C      1  0.4376150000000  0.4938140000000  0.5760140000000 1.0
C      1  0.4856340000000  0.4335280000000  0.5807180000000 1.0
C      1  0.5796680000000  0.4536410000000  0.5861470000000 1.0
C      1  0.5489170000000  0.5505640000000  0.5719790000000 1.0
C      1  0.4728800000000  0.5693680000000  0.5751140000000 1.0
C      1  0.4437690000000  0.5050230000000  0.4588210000000 1.0
C      1  0.4747710000000  0.4316010000000  0.4454960000000 1.0
C      1  0.5538160000000  0.4601340000000  0.4520480000000 1.0
C      1  0.5508320000000  0.5276290000000  0.4504760000000 1.0
C      1  0.4879240000000  0.5573080000000  0.4515680000000 1.0
C      1  0.4450590000000  0.5068730000000  0.5473410000000 1.0
C      1  0.4813370000000  0.4495060000000  0.5517560000000 1.0
C      1  0.5455260000000  0.4551010000000  0.5486150000000 1.0
C      1  0.5473030000000  0.5319880000000  0.5434290000000 1.0
C      1  0.4857020000000  0.5571340000000  0.5477530000000 1.0
C      1  0.5042800000000  0.3913700000000  0.4539340000000 1.0
C      1  0.5905400000000  0.4742460000000  0.4587540000000 1.0
C      1  0.5509810000000  0.5727490000000  0.4550020000000 1.0
C      1  0.4439120000000  0.5707900000000  0.4603920000000 1.0
C      1  0.4128450000000  0.4613040000000  0.4616280000000 1.0
C      1  0.4976540000000  0.4131830000000  0.5485030000000 1.0
C      1  0.5812540000000  0.4734990000000  0.5409010000000 1.0
C      1  0.5475120000000  0.5748070000000  0.5404480000000 1.0
C      1  0.4446330000000  0.5714590000000  0.5472220000000 1.0
C      1  0.4052620000000  0.4682030000000  0.5420010000000 1.0
C      1  0.5900610000000  0.5411670000000  0.5108260000000 1.0
C      1  0.4948000000000  0.5922100000000  0.5165550000000 1.0
C      1  0.4133650000000  0.5235570000000  0.5167770000000 1.0
C      1  0.4452790000000  0.4240730000000  0.5165640000000 1.0
C      1  0.5515420000000  0.4308690000000  0.5101420000000 1.0
C      1  0.5897230000000  0.5283020000000  0.4796160000000 1.0
C      1  0.4953050000000  0.5967120000000  0.4828520000000 1.0
C      1  0.4042730000000  0.5260780000000  0.4841070000000 1.0
C      1  0.4389620000000  0.4157460000000  0.4841990000000 1.0
C      1  0.5517510000000  0.4181350000000  0.4816150000000 1.0
C      1  0.4764920000000  0.3910210000000  0.4479190000000 1.0
C      1  0.5890100000000  0.4420540000000  0.4476210000000 1.0
C      1  0.5766290000000  0.5623360000000  0.4388870000000 1.0
C      1  0.4633500000000  0.5871720000000  0.4421020000000 1.0
C      1  0.4126320000000  0.4874710000000  0.4419850000000 1.0
C      1  0.4660620000000  0.4138670000000  0.5610550000000 1.0
C      1  0.5749670000000  0.4436690000000  0.5559790000000 1.0
C      1  0.5746260000000  0.5590720000000  0.5542190000000 1.0
C      1  0.4630900000000  0.5954540000000  0.5628540000000 1.0
C      1  0.4088740000000  0.4942640000000  0.5578230000000 1.0
C      1  0.6019460000000  0.5182390000000  0.5572330000000 1.0
C      1  0.5047620000000  0.6070040000000  0.5421810000000 1.0
C      1  0.4050940000000  0.5424920000000  0.5646800000000 1.0
C      1  0.4168300000000  0.4192570000000  0.5576460000000 1.0
C      1  0.5494860000000  0.4003310000000  0.5501620000000 1.0
C      1  0.6073830000000  0.5198300000000  0.4511480000000 1.0
C      1  0.5124510000000  0.6065410000000  0.4550900000000 1.0
C      1  0.4002710000000  0.5418180000000  0.4538840000000 1.0
C      1  0.4223660000000  0.4288600000000  0.4572580000000 1.0
C      1  0.5507980000000  0.4012800000000  0.4516810000000 1.0
C      1  0.5428730000000  0.5460180000000  0.5135190000000 1.0
C      1  0.4730820000000  0.5556820000000  0.5161990000000 1.0
C      1  0.4339010000000  0.4888420000000  0.5211830000000 1.0
C      1  0.4911170000000  0.4430090000000  0.5229730000000 1.0
C      1  0.5486980000000  0.4697800000000  0.5180910000000 1.0
C      1  0.5486900000000  0.5390280000000  0.4807520000000 1.0
C      1  0.4759400000000  0.5618850000000  0.4820620000000 1.0
C      1  0.4431960000000  0.4882760000000  0.4884080000000 1.0
C      1  0.4882250000000  0.4374790000000  0.4728490000000 1.0
C      1  0.5528120000000  0.4724170000000  0.4844100000000 1.0
C      1  0.4729190000000  0.5286230000000  0.4455300000000 1.0
C      1  0.4705230000000  0.4842950000000  0.4554560000000 1.0
C      1  0.5169360000000  0.4787790000000  0.4451430000000 1.0
C      1  0.5453490000000  0.4852210000000  0.4323840000000 1.0
C      1  0.5203240000000  0.5269140000000  0.4354790000000 1.0
C      1  0.4769040000000  0.5306430000000  0.5646650000000 1.0
C      1  0.4713170000000  0.4905260000000  0.5350940000000 1.0
C      1  0.5062650000000  0.4689640000000  0.5605200000000 1.0
C      1  0.5480820000000  0.4829310000000  0.5621940000000 1.0
C      1  0.5183150000000  0.5283000000000  0.5593520000000 1.0
C      1  0.4809710000000  0.6054520000000  0.4532850000000 1.0
C      1  0.4016090000000  0.5100410000000  0.4542450000000 1.0
C      1  0.4512370000000  0.4113930000000  0.4530390000000 1.0
C      1  0.5748820000000  0.4215960000000  0.4580450000000 1.0
C      1  0.5952260000000  0.5480870000000  0.4526830000000 1.0
C      1  0.4819820000000  0.6151680000000  0.5571030000000 1.0
C      1  0.4038840000000  0.5198210000000  0.5473860000000 1.0
C      1  0.4423010000000  0.4133810000000  0.5463960000000 1.0
C      1  0.5626770000000  0.4206120000000  0.5380460000000 1.0
C      1  0.5919000000000  0.5404210000000  0.5429640000000 1.0
C      1  0.5935580000000  0.4927940000000  0.5660500000000 1.0
C      1  0.5273140000000  0.5970980000000  0.5551740000000 1.0
C      1  0.4266590000000  0.5586960000000  0.5731230000000 1.0
C      1  0.4099810000000  0.4464840000000  0.5614800000000 1.0
C      1  0.5244580000000  0.3993190000000  0.5620800000000 1.0
C      1  0.6036420000000  0.4964380000000  0.4366310000000 1.0
C      1  0.5318010000000  0.5951150000000  0.4404740000000 1.0
C      1  0.4184830000000  0.5587090000000  0.4430020000000 1.0
C      1  0.4142730000000  0.4485140000000  0.4311170000000 1.0
C      1  0.5259460000000  0.4007390000000  0.4374260000000 1.0
C      1  0.4296660000000  0.5458740000000  0.4879830000000 1.0
C      1  0.4423090000000  0.4486210000000  0.4854300000000 1.0
C      1  0.5211450000000  0.4328880000000  0.4800450000000 1.0
C      1  0.5666670000000  0.5034650000000  0.4834170000000 1.0
C      1  0.5151760000000  0.5691650000000  0.4811830000000 1.0
C      1  0.4459100000000  0.5352410000000  0.5156250000000 1.0
C      1  0.4442130000000  0.4583360000000  0.5168390000000 1.0
C      1  0.5199880000000  0.4431390000000  0.5127400000000 1.0
C      1  0.5699420000000  0.5166090000000  0.5146040000000 1.0
C      1  0.5140430000000  0.5640090000000  0.5147770000000 1.0
C      1  0.5332370000000  0.5101430000000  0.4817460000000 1.0
C      1  0.4984990000000  0.5400640000000  0.4867710000000 1.0
C      1  0.4741550000000  0.5020110000000  0.4842490000000 1.0
C      1  0.4714320000000  0.4613130000000  0.4805060000000 1.0
C      1  0.5211210000000  0.4662980000000  0.4736400000000 1.0
C      1  0.5388870000000  0.5062720000000  0.5118490000000 1.0
C      1  0.4984840000000  0.5331160000000  0.5176050000000 1.0
C      1  0.4655590000000  0.5114460000000  0.5113700000000 1.0
C      1  0.4755140000000  0.4663730000000  0.5115320000000 1.0
C      1  0.5164870000000  0.4733370000000  0.5283810000000 1.0
C      1  0.4115490000000  0.4453730000000  0.4979070000000 1.0
C      1  0.5968130000000  0.4917250000000  0.4939040000000 1.0
C      1  0.5104560000000  0.3999940000000  0.4801940000000 1.0
C      1  0.5386090000000  0.5929600000000  0.4868480000000 1.0
C      1  0.4194710000000  0.5747310000000  0.4915840000000 1.0
C      1  0.4936750000000  0.5074390000000  0.5522970000000 1.0
C      1  0.4966030000000  0.5050990000000  0.4466190000000 1.0
C      1  0.5044540000000  0.5117290000000  0.4775940000000 1.0
C      1  0.5122600000000  0.5070110000000  0.5260740000000 1.0
END
