TITL C-3289333-7213-296 0.00133495833898791 125000 -147.489605015851 0 0 33 (C2) n - 1
REM
REM in /nfs/bkarasulu/CARBON/AIRSS/Generating-Clusters/AIREBO/with-SteepDescent/Higher-Symm/SD-CG/HFTN-CG
REM
REM
REM
REM
REM
REM ./C.cell (b20cbc046b6831c77cfcea5457e17084)
REM
REM compiler GCC version 9.2.1 20190827 (Red Hat 9.2.1-1)
REM options -cpp -mtune=generic -march=x86-64 -g -O0 -fpre-include=/usr/include/finclude/math-vector-fortran.h
REM seed -1779651936 1505934438 41715521 661068110 223529632 -1811701520 -428512192 798819065 448452186 946520340 -799458845 556227758 -2079632873 1635582410 -760031718 857766627 -573722597 478319711 -182775650 1747549920 1028058829 -1516720883 1848720215 1616225306 -1032964370 -678886050 312334051 813126216 653101836 -322258296 -1906620173 -1212531394 187429284
REM
CELL 1.54180   50.00000   50.00000   50.00000   90.00000   90.00000   90.00000
LATT -1
SFAC C  
C      1  0.5618140000000  0.4765630000000  0.4889620000000 1.0
C      1  0.5007150000000  0.5040260000000  0.5564050000000 1.0
C      1  0.4452540000000  0.4801060000000  0.5509400000000 1.0
C      1  0.4716690000000  0.5095810000000  0.4268400000000 1.0
C      1  0.4448620000000  0.4954220000000  0.5005740000000 1.0
C      1  0.4503520000000  0.5193520000000  0.5560280000000 1.0
C      1  0.5744360000000  0.4898470000000  0.5295740000000 1.0
C      1  0.5122890000000  0.5228600000000  0.4394460000000 1.0
C      1  0.5133600000000  0.4886110000000  0.5288130000000 1.0
C      1  0.4800010000000  0.4774480000000  0.5102490000000 1.0
C      1  0.4958760000000  0.4851530000000  0.4684600000000 1.0
C      1  0.5273670000000  0.4770800000000  0.4917280000000 1.0
C      1  0.4910300000000  0.5219950000000  0.5212660000000 1.0
C      1  0.5328130000000  0.5142790000000  0.5053770000000 1.0
C      1  0.5095350000000  0.5223500000000  0.4738940000000 1.0
C      1  0.4724530000000  0.5108300000000  0.4879160000000 1.0
C      1  0.4823260000000  0.4978810000000  0.4478060000000 1.0
C      1  0.5455180000000  0.4886850000000  0.4660650000000 1.0
C      1  0.5296380000000  0.5096800000000  0.5499610000000 1.0
C      1  0.4632350000000  0.4787120000000  0.5319250000000 1.0
C      1  0.5351890000000  0.5107370000000  0.4557360000000 1.0
C      1  0.4512950000000  0.4897610000000  0.4716500000000 1.0
C      1  0.4693610000000  0.5207390000000  0.5380400000000 1.0
C      1  0.5534690000000  0.5015490000000  0.5189230000000 1.0
C      1  0.5305070000000  0.5422580000000  0.5106510000000 1.0
C      1  0.5046340000000  0.5472620000000  0.5194200000000 1.0
C      1  0.4693760000000  0.5381930000000  0.4833980000000 1.0
C      1  0.5066300000000  0.5502710000000  0.4797090000000 1.0
C      1  0.4818370000000  0.4521780000000  0.4966500000000 1.0
C      1  0.5178740000000  0.4612470000000  0.5318940000000 1.0
C      1  0.5215480000000  0.4491610000000  0.4946410000000 1.0
C      1  0.4905980000000  0.4571750000000  0.4707730000000 1.0
C      1  0.5028510000000  0.4997180000000  0.4984160000000 1.0
END
