TITL C-3289334-2237-399 0.00591531529818991 125000 -1015.9800812564 0 0 190 (C1) n - 1
REM
REM in /nfs/bkarasulu/CARBON/AIRSS/Generating-Clusters/AIREBO/with-SteepDescent/Higher-Symm/SD-CG/HFTN-CG
REM
REM
REM
REM
REM
REM ./C.cell (b20cbc046b6831c77cfcea5457e17084)
REM
REM compiler GCC version 9.2.1 20190827 (Red Hat 9.2.1-1)
REM options -cpp -mtune=generic -march=x86-64 -g -O0 -fpre-include=/usr/include/finclude/math-vector-fortran.h
REM seed -339409176 973971404 -1398464850 1969866079 1596943384 424694371 1726195122 -245995543 617603207 614288143 -1612641188 72055658 146858265 -106852376 -1689280650 -1841393541 -1255554983 -1366085706 1936485912 62844079 474229089 1186456364 1001824913 953078870 -1422607078 -1436244855 1097804803 -1225850431 995852955 301592404 684002203 79234038 1492056925
REM
CELL 1.54180   50.00000   50.00000   50.00000   90.00000   90.00000   90.00000
LATT -1
SFAC C  
C      1  0.5127390000000  0.4383040000000  0.5921190000000 1.0
C      1  0.5226340000000  0.5638670000000  0.4092250000000 1.0
C      1  0.5300480000000  0.4973610000000  0.5600740000000 1.0
C      1  0.5403040000000  0.4963460000000  0.4317410000000 1.0
C      1  0.4057480000000  0.4879270000000  0.4796200000000 1.0
C      1  0.4129650000000  0.5148690000000  0.5224760000000 1.0
C      1  0.4725540000000  0.5543200000000  0.5816910000000 1.0
C      1  0.4726490000000  0.4488030000000  0.4137980000000 1.0
C      1  0.4793330000000  0.5191060000000  0.4823430000000 1.0
C      1  0.4813160000000  0.4784680000000  0.5126120000000 1.0
C      1  0.4178620000000  0.5320040000000  0.5514330000000 1.0
C      1  0.4141020000000  0.4604160000000  0.4530920000000 1.0
C      1  0.4706350000000  0.4083920000000  0.4595110000000 1.0
C      1  0.4690880000000  0.5969310000000  0.5442880000000 1.0
C      1  0.6084840000000  0.5043620000000  0.5122810000000 1.0
C      1  0.6095600000000  0.4856780000000  0.4867920000000 1.0
C      1  0.5073350000000  0.4839660000000  0.5436470000000 1.0
C      1  0.5123060000000  0.5061520000000  0.4448870000000 1.0
C      1  0.5848300000000  0.4464720000000  0.5586620000000 1.0
C      1  0.5839530000000  0.5588110000000  0.4629420000000 1.0
C      1  0.3898390000000  0.5149020000000  0.4679500000000 1.0
C      1  0.3990370000000  0.4862450000000  0.5317490000000 1.0
C      1  0.4219460000000  0.5762760000000  0.5018020000000 1.0
C      1  0.4192190000000  0.4181240000000  0.5041630000000 1.0
C      1  0.5584920000000  0.4151270000000  0.4771660000000 1.0
C      1  0.5581540000000  0.5846360000000  0.5127030000000 1.0
C      1  0.5927530000000  0.4641890000000  0.5312480000000 1.0
C      1  0.5873410000000  0.5309320000000  0.4792610000000 1.0
C      1  0.5898430000000  0.5501480000000  0.5380780000000 1.0
C      1  0.5889110000000  0.4512920000000  0.4536790000000 1.0
C      1  0.5824080000000  0.5348400000000  0.4388610000000 1.0
C      1  0.5776860000000  0.4783440000000  0.5654200000000 1.0
C      1  0.4729340000000  0.6001930000000  0.5106470000000 1.0
C      1  0.4713220000000  0.4032130000000  0.4931200000000 1.0
C      1  0.5697270000000  0.4252710000000  0.4494310000000 1.0
C      1  0.5684240000000  0.5738710000000  0.5372290000000 1.0
C      1  0.5168290000000  0.5011280000000  0.5915170000000 1.0
C      1  0.5228420000000  0.5112440000000  0.4066580000000 1.0
C      1  0.4952410000000  0.5564610000000  0.5572780000000 1.0
C      1  0.4906000000000  0.4397550000000  0.4405210000000 1.0
C      1  0.4790570000000  0.5571490000000  0.5029650000000 1.0
C      1  0.4758080000000  0.4428690000000  0.4934450000000 1.0
C      1  0.4870950000000  0.4971550000000  0.5754430000000 1.0
C      1  0.4750330000000  0.5019950000000  0.4312990000000 1.0
C      1  0.4974900000000  0.4779080000000  0.4329540000000 1.0
C      1  0.5000810000000  0.5261210000000  0.5653170000000 1.0
C      1  0.5381430000000  0.5733980000000  0.4342930000000 1.0
C      1  0.5311870000000  0.4362730000000  0.5644200000000 1.0
C      1  0.5052450000000  0.5397720000000  0.4899440000000 1.0
C      1  0.5049820000000  0.4591940000000  0.4996740000000 1.0
C      1  0.5181750000000  0.5741420000000  0.4618070000000 1.0
C      1  0.5147130000000  0.4332090000000  0.5362000000000 1.0
C      1  0.4524900000000  0.5735430000000  0.5164900000000 1.0
C      1  0.4469960000000  0.4262590000000  0.4863190000000 1.0
C      1  0.5446860000000  0.5205250000000  0.5892070000000 1.0
C      1  0.5486730000000  0.4692220000000  0.4018780000000 1.0
C      1  0.6010860000000  0.4569150000000  0.5014070000000 1.0
C      1  0.6133340000000  0.5357870000000  0.5091040000000 1.0
C      1  0.5514280000000  0.5153670000000  0.5421570000000 1.0
C      1  0.5580590000000  0.4763980000000  0.4509350000000 1.0
C      1  0.4311810000000  0.5782710000000  0.4427510000000 1.0
C      1  0.4318250000000  0.4268600000000  0.5618340000000 1.0
C      1  0.4555730000000  0.5807520000000  0.5744170000000 1.0
C      1  0.4570200000000  0.4223990000000  0.4283480000000 1.0
C      1  0.4699900000000  0.5430240000000  0.4628120000000 1.0
C      1  0.4669150000000  0.4654080000000  0.5372140000000 1.0
C      1  0.5165860000000  0.5219920000000  0.5148220000000 1.0
C      1  0.5188790000000  0.4814980000000  0.4805130000000 1.0
C      1  0.5256830000000  0.5253740000000  0.4668810000000 1.0
C      1  0.5246550000000  0.4643200000000  0.5269330000000 1.0
C      1  0.4953180000000  0.6067190000000  0.4609350000000 1.0
C      1  0.4999960000000  0.3954300000000  0.5361140000000 1.0
C      1  0.4324390000000  0.4898810000000  0.6010570000000 1.0
C      1  0.4232250000000  0.5096910000000  0.4109760000000 1.0
C      1  0.5330660000000  0.4618080000000  0.4603170000000 1.0
C      1  0.5354780000000  0.5408280000000  0.5330890000000 1.0
C      1  0.4477730000000  0.5110990000000  0.6074990000000 1.0
C      1  0.4344430000000  0.4866210000000  0.4033740000000 1.0
C      1  0.5067070000000  0.6101440000000  0.5466580000000 1.0
C      1  0.5035990000000  0.3863220000000  0.4556670000000 1.0
C      1  0.4885180000000  0.5856200000000  0.4354840000000 1.0
C      1  0.5007980000000  0.4019870000000  0.5641030000000 1.0
C      1  0.5665410000000  0.5086090000000  0.5711240000000 1.0
C      1  0.5689110000000  0.4859170000000  0.4200340000000 1.0
C      1  0.4075750000000  0.4626520000000  0.5105550000000 1.0
C      1  0.4092710000000  0.5261060000000  0.4905930000000 1.0
C      1  0.4534070000000  0.5205890000000  0.5043740000000 1.0
C      1  0.4536740000000  0.4760630000000  0.4927590000000 1.0
C      1  0.4036600000000  0.4924050000000  0.4459770000000 1.0
C      1  0.4057970000000  0.5008190000000  0.5590100000000 1.0
C      1  0.5279000000000  0.4096950000000  0.4910680000000 1.0
C      1  0.5258000000000  0.5918720000000  0.5050560000000 1.0
C      1  0.5589000000000  0.4437420000000  0.5260590000000 1.0
C      1  0.5449920000000  0.5600240000000  0.4711010000000 1.0
C      1  0.5589380000000  0.4269640000000  0.5651530000000 1.0
C      1  0.5669380000000  0.5775670000000  0.4412280000000 1.0
C      1  0.4920460000000  0.4935050000000  0.4690910000000 1.0
C      1  0.4944790000000  0.5060840000000  0.5271660000000 1.0
C      1  0.4209060000000  0.5540460000000  0.4335740000000 1.0
C      1  0.4224150000000  0.4519640000000  0.5707180000000 1.0
C      1  0.4375310000000  0.5548630000000  0.5624870000000 1.0
C      1  0.4357360000000  0.4428560000000  0.4421320000000 1.0
C      1  0.5686610000000  0.5804190000000  0.4844140000000 1.0
C      1  0.5814640000000  0.4258410000000  0.5321530000000 1.0
C      1  0.3867610000000  0.5368380000000  0.5237810000000 1.0
C      1  0.3902370000000  0.4578920000000  0.4755860000000 1.0
C      1  0.6037900000000  0.4725730000000  0.4339450000000 1.0
C      1  0.6065310000000  0.5356450000000  0.5612480000000 1.0
C      1  0.4936040000000  0.5593050000000  0.4184030000000 1.0
C      1  0.4874560000000  0.4326830000000  0.5700830000000 1.0
C      1  0.5915880000000  0.5035810000000  0.4361800000000 1.0
C      1  0.5988940000000  0.5051530000000  0.5641130000000 1.0
C      1  0.4388840000000  0.5838650000000  0.5458920000000 1.0
C      1  0.4387710000000  0.4136460000000  0.4558330000000 1.0
C      1  0.5214580000000  0.4704410000000  0.6052100000000 1.0
C      1  0.5372330000000  0.5360880000000  0.3972880000000 1.0
C      1  0.6040850000000  0.5094020000000  0.4648490000000 1.0
C      1  0.6095410000000  0.4893970000000  0.5396620000000 1.0
C      1  0.4422800000000  0.5325850000000  0.4243260000000 1.0
C      1  0.4477620000000  0.4696060000000  0.5811940000000 1.0
C      1  0.4661210000000  0.4467880000000  0.5924900000000 1.0
C      1  0.4652570000000  0.5459410000000  0.4081510000000 1.0
C      1  0.5807040000000  0.4406750000000  0.4843880000000 1.0
C      1  0.5865130000000  0.5516130000000  0.5054000000000 1.0
C      1  0.4883030000000  0.4514580000000  0.3867250000000 1.0
C      1  0.4851710000000  0.5456910000000  0.6088780000000 1.0
C      1  0.5394940000000  0.4463520000000  0.4157120000000 1.0
C      1  0.5431080000000  0.5487330000000  0.5835680000000 1.0
C      1  0.5229630000000  0.4062210000000  0.5208560000000 1.0
C      1  0.5214720000000  0.6029870000000  0.4758940000000 1.0
C      1  0.4046670000000  0.5241220000000  0.4336550000000 1.0
C      1  0.4103100000000  0.4822680000000  0.5803260000000 1.0
C      1  0.4997860000000  0.3997890000000  0.4083190000000 1.0
C      1  0.5005040000000  0.5940770000000  0.5930280000000 1.0
C      1  0.4629210000000  0.4231620000000  0.5485320000000 1.0
C      1  0.4616100000000  0.5866410000000  0.4554230000000 1.0
C      1  0.4533220000000  0.4678550000000  0.4508650000000 1.0
C      1  0.4575980000000  0.5299590000000  0.5509300000000 1.0
C      1  0.5566620000000  0.5457530000000  0.4195110000000 1.0
C      1  0.5332350000000  0.4683020000000  0.5756500000000 1.0
C      1  0.5518440000000  0.4657170000000  0.5473110000000 1.0
C      1  0.5507290000000  0.5377020000000  0.4508710000000 1.0
C      1  0.4431660000000  0.5571690000000  0.4740930000000 1.0
C      1  0.4396200000000  0.4501950000000  0.5307880000000 1.0
C      1  0.4528400000000  0.5155910000000  0.4516760000000 1.0
C      1  0.4600510000000  0.4870810000000  0.5574340000000 1.0
C      1  0.5032780000000  0.6045080000000  0.5204300000000 1.0
C      1  0.5023000000000  0.3959110000000  0.4811590000000 1.0
C      1  0.5725040000000  0.4877800000000  0.5204470000000 1.0
C      1  0.5741140000000  0.5038090000000  0.4905010000000 1.0
C      1  0.5295080000000  0.5606790000000  0.3773000000000 1.0
C      1  0.5191600000000  0.4438690000000  0.6228300000000 1.0
C      1  0.4583090000000  0.4760750000000  0.4197150000000 1.0
C      1  0.4646110000000  0.5214910000000  0.5831170000000 1.0
C      1  0.4369370000000  0.5276970000000  0.4791870000000 1.0
C      1  0.4351370000000  0.4780940000000  0.5168390000000 1.0
C      1  0.5558210000000  0.4251010000000  0.4247850000000 1.0
C      1  0.5539070000000  0.5724740000000  0.5616550000000 1.0
C      1  0.5821190000000  0.5190580000000  0.5279780000000 1.0
C      1  0.5798280000000  0.4785200000000  0.4719270000000 1.0
C      1  0.5270640000000  0.5602150000000  0.5066520000000 1.0
C      1  0.5281470000000  0.4397210000000  0.4846500000000 1.0
C      1  0.5542390000000  0.4512700000000  0.4966510000000 1.0
C      1  0.5561220000000  0.5458580000000  0.4992980000000 1.0
C      1  0.4833830000000  0.4394530000000  0.5267870000000 1.0
C      1  0.4859940000000  0.5694320000000  0.4717730000000 1.0
C      1  0.4937340000000  0.5892050000000  0.5663240000000 1.0
C      1  0.4933680000000  0.4073670000000  0.4342380000000 1.0
C      1  0.5021730000000  0.5191950000000  0.6140300000000 1.0
C      1  0.5280610000000  0.4843530000000  0.3902850000000 1.0
C      1  0.4964520000000  0.5255900000000  0.4219320000000 1.0
C      1  0.4947110000000  0.4655030000000  0.5656190000000 1.0
C      1  0.3961680000000  0.4348610000000  0.4958450000000 1.0
C      1  0.4039940000000  0.5555700000000  0.5067200000000 1.0
C      1  0.4708810000000  0.5208440000000  0.6227880000000 1.0
C      1  0.5068580000000  0.4699560000000  0.3784040000000 1.0
C      1  0.4271560000000  0.4234910000000  0.5307900000000 1.0
C      1  0.4259490000000  0.5830330000000  0.4731650000000 1.0
C      1  0.5424060000000  0.5152940000000  0.4948370000000 1.0
C      1  0.5429580000000  0.4823660000000  0.5045100000000 1.0
C      1  0.4435410000000  0.5045000000000  0.5332890000000 1.0
C      1  0.4374030000000  0.4895930000000  0.4672380000000 1.0
C      1  0.5183530000000  0.4541660000000  0.4355680000000 1.0
C      1  0.5264040000000  0.5569060000000  0.5567590000000 1.0
C      1  0.4404780000000  0.5433240000000  0.5247710000000 1.0
C      1  0.4287730000000  0.4549500000000  0.4848650000000 1.0
C      1  0.4837900000000  0.5382960000000  0.5309000000000 1.0
C      1  0.4809910000000  0.4611540000000  0.4652240000000 1.0
C      1  0.4715270000000  0.6072610000000  0.4806430000000 1.0
C      1  0.4735780000000  0.4010660000000  0.5249180000000 1.0
END
