TITL C-3289323-3850-454 0.00366796445381543 125000 -1006.51275754838 0 0 193 (C1) n - 1
REM
REM in /nfs/bkarasulu/CARBON/AIRSS/Generating-Clusters/AIREBO/with-SteepDescent/Higher-Symm/SD-CG/HFTN-CG
REM
REM
REM
REM
REM
REM ./C.cell (b20cbc046b6831c77cfcea5457e17084)
REM
REM compiler GCC version 9.2.1 20190827 (Red Hat 9.2.1-1)
REM options -cpp -mtune=generic -march=x86-64 -g -O0 -fpre-include=/usr/include/finclude/math-vector-fortran.h
REM seed -1040958968 -1493710091 276576017 1074271884 -689443561 760481473 1284437348 1767806351 -1507966971 -849082708 -805596650 -624915692 -1105541236 2013758789 1444098735 -1384183323 59590964 619098132 -340611167 1130555819 1415912017 -2066493064 -307075730 -2030002233 -348084798 351783064 784536937 -662629663 -1276636844 1326562785 -1229813792 914580973 -1875912868
REM
CELL 1.54180   50.00000   50.00000   50.00000   90.00000   90.00000   90.00000
LATT -1
SFAC C  
C      1  0.5320970000000  0.5699400000000  0.5889270000000 1.0
C      1  0.4745200000000  0.5533800000000  0.5966080000000 1.0
C      1  0.4487040000000  0.4843140000000  0.6013960000000 1.0
C      1  0.4959400000000  0.4219910000000  0.5984960000000 1.0
C      1  0.5733110000000  0.4946670000000  0.5932190000000 1.0
C      1  0.5470590000000  0.5601340000000  0.4056420000000 1.0
C      1  0.4768830000000  0.5603730000000  0.4001590000000 1.0
C      1  0.4356300000000  0.4946060000000  0.3983670000000 1.0
C      1  0.5043840000000  0.4150770000000  0.4003190000000 1.0
C      1  0.5787320000000  0.4726500000000  0.4026450000000 1.0
C      1  0.5733270000000  0.5432820000000  0.5771960000000 1.0
C      1  0.4895510000000  0.5903490000000  0.5707010000000 1.0
C      1  0.4239500000000  0.5067940000000  0.5686880000000 1.0
C      1  0.4576400000000  0.4205330000000  0.5631780000000 1.0
C      1  0.5620410000000  0.4518300000000  0.5744360000000 1.0
C      1  0.5686040000000  0.5326030000000  0.4334190000000 1.0
C      1  0.4877960000000  0.5781960000000  0.4340780000000 1.0
C      1  0.4170340000000  0.5142570000000  0.4354410000000 1.0
C      1  0.4636620000000  0.4220370000000  0.4250400000000 1.0
C      1  0.5535260000000  0.4433950000000  0.4325910000000 1.0
C      1  0.4534680000000  0.5158090000000  0.5543940000000 1.0
C      1  0.4566450000000  0.4502980000000  0.5553350000000 1.0
C      1  0.5344020000000  0.4475970000000  0.5583980000000 1.0
C      1  0.5702940000000  0.5120130000000  0.5641310000000 1.0
C      1  0.5122300000000  0.5682050000000  0.5632070000000 1.0
C      1  0.4465920000000  0.5227750000000  0.4434190000000 1.0
C      1  0.4535880000000  0.4534180000000  0.4334500000000 1.0
C      1  0.5210100000000  0.4493190000000  0.4410540000000 1.0
C      1  0.5555450000000  0.5053470000000  0.4445630000000 1.0
C      1  0.5076970000000  0.5548960000000  0.4453750000000 1.0
C      1  0.4812740000000  0.5215060000000  0.5367730000000 1.0
C      1  0.4696330000000  0.4762540000000  0.5376190000000 1.0
C      1  0.5181260000000  0.4693250000000  0.5426290000000 1.0
C      1  0.5225060000000  0.5105900000000  0.5495870000000 1.0
C      1  0.5081900000000  0.5399970000000  0.5465220000000 1.0
C      1  0.4710130000000  0.5128700000000  0.4626590000000 1.0
C      1  0.4752300000000  0.4821420000000  0.4621150000000 1.0
C      1  0.5052560000000  0.4715810000000  0.4598640000000 1.0
C      1  0.5376480000000  0.5050840000000  0.4681920000000 1.0
C      1  0.4979280000000  0.5314120000000  0.4668960000000 1.0
C      1  0.5087810000000  0.5475050000000  0.4917940000000 1.0
C      1  0.4606550000000  0.5262430000000  0.4896740000000 1.0
C      1  0.4627550000000  0.4669060000000  0.4848190000000 1.0
C      1  0.5046520000000  0.4510670000000  0.4825090000000 1.0
C      1  0.5542840000000  0.5011400000000  0.4931160000000 1.0
C      1  0.5205930000000  0.5378400000000  0.5175380000000 1.0
C      1  0.4760430000000  0.5393750000000  0.5131320000000 1.0
C      1  0.4565470000000  0.4839960000000  0.5116760000000 1.0
C      1  0.5057690000000  0.4610830000000  0.5122370000000 1.0
C      1  0.5364110000000  0.5012630000000  0.5204300000000 1.0
C      1  0.4504160000000  0.4063630000000  0.4720150000000 1.0
C      1  0.5652020000000  0.4153980000000  0.4804510000000 1.0
C      1  0.5894340000000  0.5441130000000  0.4799540000000 1.0
C      1  0.4850260000000  0.6064860000000  0.4807390000000 1.0
C      1  0.3984020000000  0.5221230000000  0.4893720000000 1.0
C      1  0.4647580000000  0.3953280000000  0.4956230000000 1.0
C      1  0.5841320000000  0.4330220000000  0.5001560000000 1.0
C      1  0.5779180000000  0.5647030000000  0.5012100000000 1.0
C      1  0.4638320000000  0.6018780000000  0.5015070000000 1.0
C      1  0.3987310000000  0.4921480000000  0.5012960000000 1.0
C      1  0.5385320000000  0.4528860000000  0.5082060000000 1.0
C      1  0.5537140000000  0.5305520000000  0.5200120000000 1.0
C      1  0.4892150000000  0.5690390000000  0.5191570000000 1.0
C      1  0.4326370000000  0.5041330000000  0.5184260000000 1.0
C      1  0.4761880000000  0.4444010000000  0.5145050000000 1.0
C      1  0.5517930000000  0.4467210000000  0.4812830000000 1.0
C      1  0.5592870000000  0.5332940000000  0.4862200000000 1.0
C      1  0.4870210000000  0.5728560000000  0.4854380000000 1.0
C      1  0.4304120000000  0.5110900000000  0.4862130000000 1.0
C      1  0.4678810000000  0.4332900000000  0.4834420000000 1.0
C      1  0.5424040000000  0.4084600000000  0.5574970000000 1.0
C      1  0.6081410000000  0.5156150000000  0.5521640000000 1.0
C      1  0.5276320000000  0.6047490000000  0.5445710000000 1.0
C      1  0.4183870000000  0.5581320000000  0.5612630000000 1.0
C      1  0.4182180000000  0.4321490000000  0.5380500000000 1.0
C      1  0.5371320000000  0.3909850000000  0.4408290000000 1.0
C      1  0.6099620000000  0.5035090000000  0.4423540000000 1.0
C      1  0.5281610000000  0.6018810000000  0.4408990000000 1.0
C      1  0.4080160000000  0.5590190000000  0.4473270000000 1.0
C      1  0.4097620000000  0.4335810000000  0.4378270000000 1.0
C      1  0.4985700000000  0.5438660000000  0.6065370000000 1.0
C      1  0.4656430000000  0.5025130000000  0.6070330000000 1.0
C      1  0.5004340000000  0.4466370000000  0.6023580000000 1.0
C      1  0.5487490000000  0.4898630000000  0.6030260000000 1.0
C      1  0.5169320000000  0.5631700000000  0.6146730000000 1.0
C      1  0.4977340000000  0.5470930000000  0.3968990000000 1.0
C      1  0.4581690000000  0.5051740000000  0.3987380000000 1.0
C      1  0.5032220000000  0.4421480000000  0.3943940000000 1.0
C      1  0.5542640000000  0.4827650000000  0.3946050000000 1.0
C      1  0.5379990000000  0.5368830000000  0.3902220000000 1.0
C      1  0.5530270000000  0.5834230000000  0.4536180000000 1.0
C      1  0.4374600000000  0.5742110000000  0.4531560000000 1.0
C      1  0.4067910000000  0.4658990000000  0.4495780000000 1.0
C      1  0.5054970000000  0.3947840000000  0.4505130000000 1.0
C      1  0.5984870000000  0.4731170000000  0.4528530000000 1.0
C      1  0.5568900000000  0.5879370000000  0.5489340000000 1.0
C      1  0.4416960000000  0.5735880000000  0.5641220000000 1.0
C      1  0.4000650000000  0.4603730000000  0.5431350000000 1.0
C      1  0.5109740000000  0.4011060000000  0.5477060000000 1.0
C      1  0.6064100000000  0.4855410000000  0.5475790000000 1.0
C      1  0.5832630000000  0.5086100000000  0.4627920000000 1.0
C      1  0.5128080000000  0.5829470000000  0.4646160000000 1.0
C      1  0.4270810000000  0.5379400000000  0.4660090000000 1.0
C      1  0.4363420000000  0.4403900000000  0.4579060000000 1.0
C      1  0.5323960000000  0.4297380000000  0.4632840000000 1.0
C      1  0.5799480000000  0.5161420000000  0.5331650000000 1.0
C      1  0.5175190000000  0.5754240000000  0.5306240000000 1.0
C      1  0.4297120000000  0.5297600000000  0.5354520000000 1.0
C      1  0.4446760000000  0.4478920000000  0.5236020000000 1.0
C      1  0.5408090000000  0.4324720000000  0.5313210000000 1.0
C      1  0.4446280000000  0.4830460000000  0.4354850000000 1.0
C      1  0.4901040000000  0.4422560000000  0.4320510000000 1.0
C      1  0.5484200000000  0.4770130000000  0.4336210000000 1.0
C      1  0.5351760000000  0.5409040000000  0.4310490000000 1.0
C      1  0.4709860000000  0.5414780000000  0.4347860000000 1.0
C      1  0.4444400000000  0.4796340000000  0.5684770000000 1.0
C      1  0.5034730000000  0.4391640000000  0.5632430000000 1.0
C      1  0.5543370000000  0.4821960000000  0.5604690000000 1.0
C      1  0.5396150000000  0.5408260000000  0.5730550000000 1.0
C      1  0.4664570000000  0.5425630000000  0.5665870000000 1.0
C      1  0.5980500000000  0.5355330000000  0.4481970000000 1.0
C      1  0.4946150000000  0.6064620000000  0.4481100000000 1.0
C      1  0.3962090000000  0.5276170000000  0.4560750000000 1.0
C      1  0.4364890000000  0.4111080000000  0.4409060000000 1.0
C      1  0.5556380000000  0.4131020000000  0.4479030000000 1.0
C      1  0.6037660000000  0.5314580000000  0.5741360000000 1.0
C      1  0.5043570000000  0.6129860000000  0.5633290000000 1.0
C      1  0.4136490000000  0.5356600000000  0.5762210000000 1.0
C      1  0.4315490000000  0.4117900000000  0.5576510000000 1.0
C      1  0.5568350000000  0.4213700000000  0.5784790000000 1.0
C      1  0.4278180000000  0.4884760000000  0.4638930000000 1.0
C      1  0.4864580000000  0.4216140000000  0.4574650000000 1.0
C      1  0.5660600000000  0.4674780000000  0.4614040000000 1.0
C      1  0.5470570000000  0.5508410000000  0.4613370000000 1.0
C      1  0.4668290000000  0.5600400000000  0.4627870000000 1.0
C      1  0.4273310000000  0.4802930000000  0.5391020000000 1.0
C      1  0.4950350000000  0.4261980000000  0.5329540000000 1.0
C      1  0.5548290000000  0.4739180000000  0.5281470000000 1.0
C      1  0.5524990000000  0.5538670000000  0.5447320000000 1.0
C      1  0.4633910000000  0.5651570000000  0.5409480000000 1.0
C      1  0.5658940000000  0.5662950000000  0.4296900000000 1.0
C      1  0.4576290000000  0.5714870000000  0.4259120000000 1.0
C      1  0.4133790000000  0.4851070000000  0.4222390000000 1.0
C      1  0.4903560000000  0.4038420000000  0.4214470000000 1.0
C      1  0.5829580000000  0.4586400000000  0.4262840000000 1.0
C      1  0.5614350000000  0.5738780000000  0.5778680000000 1.0
C      1  0.4660390000000  0.5791530000000  0.5821890000000 1.0
C      1  0.4007630000000  0.4817230000000  0.5681760000000 1.0
C      1  0.4861480000000  0.4114060000000  0.5689890000000 1.0
C      1  0.5867810000000  0.4735150000000  0.5658150000000 1.0
C      1  0.5081420000000  0.4185530000000  0.4824400000000 1.0
C      1  0.5801280000000  0.4843240000000  0.4863890000000 1.0
C      1  0.5332660000000  0.5679790000000  0.4846480000000 1.0
C      1  0.4465010000000  0.5563370000000  0.4877430000000 1.0
C      1  0.4319910000000  0.4617330000000  0.4801480000000 1.0
C      1  0.4880100000000  0.4072260000000  0.5061360000000 1.0
C      1  0.5784830000000  0.4597490000000  0.5097490000000 1.0
C      1  0.5471960000000  0.5695990000000  0.5150530000000 1.0
C      1  0.4510910000000  0.5778760000000  0.5118640000000 1.0
C      1  0.4203860000000  0.4671460000000  0.5095640000000 1.0
C      1  0.4189640000000  0.4176320000000  0.4762640000000 1.0
C      1  0.5485520000000  0.3940890000000  0.4948170000000 1.0
C      1  0.6070830000000  0.5171400000000  0.4858080000000 1.0
C      1  0.5184850000000  0.6125240000000  0.4813070000000 1.0
C      1  0.3991120000000  0.5513080000000  0.4998380000000 1.0
C      1  0.4177920000000  0.4246890000000  0.5061370000000 1.0
C      1  0.5434190000000  0.4017900000000  0.5244330000000 1.0
C      1  0.6029020000000  0.5068180000000  0.5139490000000 1.0
C      1  0.5236200000000  0.6092800000000  0.5115870000000 1.0
C      1  0.4104110000000  0.5540170000000  0.5311920000000 1.0
C      1  0.5263810000000  0.4915190000000  0.5774730000000 1.0
C      1  0.5148640000000  0.5220620000000  0.5870360000000 1.0
C      1  0.4816450000000  0.5166590000000  0.5826500000000 1.0
C      1  0.4775530000000  0.4873780000000  0.5687580000000 1.0
C      1  0.5014550000000  0.4693970000000  0.5787740000000 1.0
C      1  0.5255230000000  0.4886860000000  0.4113450000000 1.0
C      1  0.5153760000000  0.5212300000000  0.4102100000000 1.0
C      1  0.4825870000000  0.5168160000000  0.4181000000000 1.0
C      1  0.4771650000000  0.4870070000000  0.4287830000000 1.0
C      1  0.4996240000000  0.4694690000000  0.4140030000000 1.0
C      1  0.5205670000000  0.3869830000000  0.4801390000000 1.0
C      1  0.6139050000000  0.4820420000000  0.4825760000000 1.0
C      1  0.5504320000000  0.5973330000000  0.4846850000000 1.0
C      1  0.4121050000000  0.5733930000000  0.4767970000000 1.0
C      1  0.4010180000000  0.4477980000000  0.4783870000000 1.0
C      1  0.5142880000000  0.3895980000000  0.5145970000000 1.0
C      1  0.6064470000000  0.4757550000000  0.5151590000000 1.0
C      1  0.5564740000000  0.6029470000000  0.5176760000000 1.0
C      1  0.4199210000000  0.5767910000000  0.5091160000000 1.0
C      1  0.3929000000000  0.4472230000000  0.5115330000000 1.0
C      1  0.5085710000000  0.5011560000000  0.4729340000000 1.0
C      1  0.4974530000000  0.4931910000000  0.5345640000000 1.0
C      1  0.5081130000000  0.4944420000000  0.5027760000000 1.0
END
