TITL C-3289332-8317-610 0.00174615761795813 125000 -214.792247456748 0 0 42 (C1) n - 1
REM
REM in /nfs/bkarasulu/CARBON/AIRSS/Generating-Clusters/AIREBO/with-SteepDescent/Higher-Symm/SD-CG/HFTN-CG
REM
REM
REM
REM
REM
REM ./C.cell (b20cbc046b6831c77cfcea5457e17084)
REM
REM compiler GCC version 9.2.1 20190827 (Red Hat 9.2.1-1)
REM options -cpp -mtune=generic -march=x86-64 -g -O0 -fpre-include=/usr/include/finclude/math-vector-fortran.h
REM seed 1992056980 -276527457 -1682091157 -1887887868 -1590627610 -1373718417 809379949 -964484580 324649689 1831174946 -770866990 -265496506 555621643 -771063703 -1804830257 -2111640093 -6203573 -983555975 -1864278356 278400251 1375922477 49171787 -980012343 1003433125 -1418070984 -1176516892 -1437962333 626080843 1910994399 -591290603 1324335120 1100400845 -2144167882
REM
CELL 1.54180   50.00000   50.00000   50.00000   90.00000   90.00000   90.00000
LATT -1
SFAC C  
C      1  0.5819330000000  0.4998310000000  0.4714340000000 1.0
C      1  0.5111870000000  0.4749150000000  0.5708140000000 1.0
C      1  0.4744110000000  0.5684040000000  0.5021210000000 1.0
C      1  0.4229550000000  0.5023760000000  0.4691120000000 1.0
C      1  0.5792500000000  0.5017440000000  0.5306960000000 1.0
C      1  0.4224140000000  0.4991710000000  0.5324990000000 1.0
C      1  0.4883400000000  0.5301300000000  0.5757610000000 1.0
C      1  0.5048360000000  0.5299060000000  0.4271320000000 1.0
C      1  0.4940110000000  0.4718050000000  0.4276530000000 1.0
C      1  0.5296630000000  0.4325990000000  0.4990720000000 1.0
C      1  0.4743220000000  0.4325610000000  0.4989440000000 1.0
C      1  0.5328630000000  0.5561520000000  0.4983110000000 1.0
C      1  0.4518690000000  0.5162850000000  0.5329640000000 1.0
C      1  0.5263320000000  0.5304220000000  0.4530860000000 1.0
C      1  0.5387470000000  0.4595490000000  0.5129920000000 1.0
C      1  0.5499090000000  0.4850920000000  0.5304070000000 1.0
C      1  0.4523790000000  0.4851700000000  0.4689950000000 1.0
C      1  0.5524940000000  0.5148870000000  0.4632250000000 1.0
C      1  0.4775960000000  0.4697240000000  0.4573560000000 1.0
C      1  0.5256890000000  0.4670610000000  0.5416130000000 1.0
C      1  0.4761910000000  0.5341270000000  0.5441750000000 1.0
C      1  0.4640070000000  0.5409750000000  0.5148150000000 1.0
C      1  0.5453400000000  0.5457720000000  0.4750130000000 1.0
C      1  0.4650800000000  0.4598080000000  0.4860200000000 1.0
C      1  0.4769680000000  0.4682620000000  0.5167430000000 1.0
C      1  0.4525030000000  0.5173000000000  0.4785160000000 1.0
C      1  0.5105830000000  0.4713880000000  0.4577120000000 1.0
C      1  0.5262530000000  0.5361450000000  0.5245980000000 1.0
C      1  0.4780480000000  0.5327230000000  0.4849610000000 1.0
C      1  0.5264660000000  0.4687670000000  0.4826540000000 1.0
C      1  0.5518980000000  0.4845920000000  0.4781670000000 1.0
C      1  0.4518370000000  0.4839440000000  0.5232310000000 1.0
C      1  0.5498010000000  0.5189400000000  0.5266840000000 1.0
C      1  0.4929520000000  0.5298030000000  0.4592900000000 1.0
C      1  0.5081760000000  0.5320740000000  0.5476250000000 1.0
C      1  0.4935080000000  0.4727880000000  0.5415070000000 1.0
C      1  0.5651420000000  0.5060710000000  0.5000640000000 1.0
C      1  0.5010710000000  0.5007080000000  0.4442200000000 1.0
C      1  0.5018910000000  0.4524510000000  0.4995720000000 1.0
C      1  0.5016950000000  0.5480190000000  0.5040130000000 1.0
C      1  0.4340950000000  0.5007890000000  0.5008140000000 1.0
C      1  0.4958850000000  0.5021750000000  0.5579400000000 1.0
END
