TITL C-3289334-2237-255 0.000165947844884435 125000 -682.300931699654 0 0 131 (C1) n - 1
REM
REM in /nfs/bkarasulu/CARBON/AIRSS/Generating-Clusters/AIREBO/with-SteepDescent/Higher-Symm/SD-CG/HFTN-CG
REM
REM
REM
REM
REM
REM ./C.cell (b20cbc046b6831c77cfcea5457e17084)
REM
REM compiler GCC version 9.2.1 20190827 (Red Hat 9.2.1-1)
REM options -cpp -mtune=generic -march=x86-64 -g -O0 -fpre-include=/usr/include/finclude/math-vector-fortran.h
REM seed 1222971710 -333290212 -89789572 -1107083618 134514425 -10190599 662041645 87377557 594773041 1970759718 1075408638 -1052945613 521220952 1490394576 -1165336500 27286254 -353988351 778103165 712981471 -166855859 -1955120935 1435587147 1916774095 -180745816 86886658 1825295144 -1298828948 1324976234 -2120869142 1217185956 2044357986 1374271669 520193301
REM
CELL 1.54180   50.00000   50.00000   50.00000   90.00000   90.00000   90.00000
LATT -1
SFAC C  
C      1  0.5191870000000  0.5703250000000  0.4615760000000 1.0
C      1  0.4523130000000  0.5617130000000  0.4791210000000 1.0
C      1  0.4793230000000  0.5732750000000  0.5504820000000 1.0
C      1  0.5305870000000  0.5760590000000  0.5066860000000 1.0
C      1  0.5049450000000  0.4316630000000  0.4529880000000 1.0
C      1  0.4502250000000  0.4289760000000  0.4906160000000 1.0
C      1  0.5045850000000  0.4336470000000  0.5400140000000 1.0
C      1  0.5381470000000  0.4229930000000  0.5060910000000 1.0
C      1  0.4477190000000  0.4823760000000  0.4570430000000 1.0
C      1  0.4555960000000  0.4940580000000  0.5604150000000 1.0
C      1  0.5408450000000  0.4813260000000  0.5652200000000 1.0
C      1  0.5511880000000  0.4881060000000  0.4527610000000 1.0
C      1  0.4527300000000  0.5158720000000  0.4502070000000 1.0
C      1  0.4612420000000  0.5249310000000  0.5532450000000 1.0
C      1  0.5506860000000  0.5122110000000  0.5572340000000 1.0
C      1  0.5491860000000  0.5220440000000  0.4520600000000 1.0
C      1  0.5795620000000  0.5600120000000  0.4195210000000 1.0
C      1  0.4240940000000  0.5487720000000  0.4765960000000 1.0
C      1  0.4633230000000  0.5616060000000  0.5690140000000 1.0
C      1  0.5667210000000  0.5472010000000  0.5305490000000 1.0
C      1  0.5255290000000  0.4538860000000  0.4181540000000 1.0
C      1  0.4096280000000  0.4404160000000  0.4475550000000 1.0
C      1  0.4821570000000  0.4518130000000  0.5726180000000 1.0
C      1  0.5683750000000  0.4416430000000  0.5284230000000 1.0
C      1  0.4760500000000  0.4732900000000  0.4723050000000 1.0
C      1  0.4844160000000  0.4762260000000  0.5231980000000 1.0
C      1  0.5320070000000  0.4788430000000  0.5316690000000 1.0
C      1  0.5265730000000  0.4751860000000  0.4689400000000 1.0
C      1  0.4751280000000  0.5290280000000  0.4699860000000 1.0
C      1  0.4796670000000  0.5330300000000  0.5280860000000 1.0
C      1  0.5394590000000  0.5269970000000  0.5333760000000 1.0
C      1  0.5259500000000  0.5270680000000  0.4703410000000 1.0
C      1  0.5459720000000  0.4835690000000  0.5995700000000 1.0
C      1  0.5848450000000  0.4881590000000  0.4578380000000 1.0
C      1  0.4620770000000  0.4846130000000  0.4273620000000 1.0
C      1  0.4285870000000  0.4861190000000  0.5442090000000 1.0
C      1  0.5467150000000  0.5130200000000  0.5888320000000 1.0
C      1  0.5748140000000  0.5163760000000  0.4670650000000 1.0
C      1  0.4622770000000  0.5155170000000  0.4175720000000 1.0
C      1  0.4337250000000  0.5176110000000  0.5368910000000 1.0
C      1  0.4521780000000  0.4516350000000  0.5645610000000 1.0
C      1  0.5602340000000  0.4380940000000  0.5545240000000 1.0
C      1  0.5502690000000  0.4532500000000  0.4336390000000 1.0
C      1  0.4401920000000  0.4328730000000  0.4343270000000 1.0
C      1  0.4362940000000  0.5580340000000  0.5593580000000 1.0
C      1  0.5536000000000  0.5514610000000  0.5616310000000 1.0
C      1  0.5728150000000  0.5542110000000  0.4496600000000 1.0
C      1  0.4355010000000  0.5512630000000  0.4445030000000 1.0
C      1  0.4759340000000  0.4690540000000  0.3998560000000 1.0
C      1  0.4088570000000  0.4932400000000  0.5175760000000 1.0
C      1  0.5146250000000  0.4767640000000  0.5952310000000 1.0
C      1  0.5939700000000  0.4889500000000  0.4883070000000 1.0
C      1  0.4655950000000  0.4982860000000  0.3903700000000 1.0
C      1  0.4050510000000  0.5244290000000  0.5199280000000 1.0
C      1  0.5173120000000  0.5107470000000  0.5956540000000 1.0
C      1  0.6037910000000  0.5197500000000  0.4989160000000 1.0
C      1  0.4716510000000  0.4473000000000  0.5096270000000 1.0
C      1  0.5166560000000  0.4528000000000  0.5217290000000 1.0
C      1  0.5226140000000  0.4477180000000  0.4886380000000 1.0
C      1  0.4890060000000  0.4434050000000  0.4806370000000 1.0
C      1  0.4709040000000  0.5559830000000  0.5045460000000 1.0
C      1  0.5080840000000  0.5638880000000  0.5491120000000 1.0
C      1  0.5183780000000  0.5478450000000  0.4963770000000 1.0
C      1  0.4918880000000  0.5576770000000  0.4774560000000 1.0
C      1  0.4637630000000  0.5763280000000  0.5271830000000 1.0
C      1  0.5242860000000  0.5834270000000  0.5313120000000 1.0
C      1  0.5425400000000  0.5744480000000  0.4790740000000 1.0
C      1  0.4690590000000  0.5696240000000  0.4552690000000 1.0
C      1  0.4786520000000  0.4259710000000  0.5327410000000 1.0
C      1  0.5384180000000  0.4152250000000  0.5300360000000 1.0
C      1  0.5329460000000  0.4304330000000  0.4612390000000 1.0
C      1  0.4552230000000  0.4197340000000  0.4678260000000 1.0
C      1  0.5389090000000  0.5211740000000  0.5012340000000 1.0
C      1  0.5008790000000  0.5166900000000  0.4568570000000 1.0
C      1  0.4733330000000  0.5163730000000  0.5002530000000 1.0
C      1  0.5095100000000  0.5341740000000  0.5367690000000 1.0
C      1  0.5336000000000  0.4880760000000  0.4989790000000 1.0
C      1  0.5004220000000  0.4857550000000  0.4566910000000 1.0
C      1  0.4644290000000  0.4853350000000  0.5002820000000 1.0
C      1  0.5058540000000  0.5004450000000  0.5340590000000 1.0
C      1  0.4247080000000  0.5437260000000  0.5818340000000 1.0
C      1  0.5789400000000  0.5288380000000  0.5632020000000 1.0
C      1  0.5560220000000  0.5363710000000  0.4257830000000 1.0
C      1  0.4212050000000  0.5231270000000  0.4456990000000 1.0
C      1  0.4377720000000  0.4731340000000  0.5804300000000 1.0
C      1  0.5665490000000  0.4622330000000  0.5669050000000 1.0
C      1  0.5645030000000  0.4783690000000  0.4239560000000 1.0
C      1  0.4290480000000  0.4642760000000  0.4350220000000 1.0
C      1  0.4642180000000  0.5678270000000  0.4044040000000 1.0
C      1  0.4098060000000  0.5502370000000  0.5054950000000 1.0
C      1  0.5259450000000  0.5794490000000  0.5948300000000 1.0
C      1  0.5841980000000  0.5488890000000  0.5021770000000 1.0
C      1  0.4927440000000  0.4447300000000  0.4176070000000 1.0
C      1  0.4283270000000  0.4225620000000  0.5294010000000 1.0
C      1  0.5099190000000  0.4476680000000  0.5798000000000 1.0
C      1  0.5833800000000  0.4318910000000  0.4684010000000 1.0
C      1  0.5238670000000  0.5579580000000  0.5766430000000 1.0
C      1  0.5677920000000  0.5620530000000  0.4754560000000 1.0
C      1  0.4654980000000  0.5536880000000  0.4286770000000 1.0
C      1  0.4368070000000  0.5556410000000  0.5254400000000 1.0
C      1  0.5296760000000  0.4279120000000  0.5603890000000 1.0
C      1  0.5605830000000  0.4489320000000  0.4657700000000 1.0
C      1  0.4729490000000  0.4335680000000  0.4429180000000 1.0
C      1  0.4462680000000  0.4454070000000  0.5321700000000 1.0
C      1  0.5886360000000  0.5025340000000  0.5497990000000 1.0
C      1  0.5414910000000  0.5196360000000  0.4062060000000 1.0
C      1  0.4022420000000  0.5047770000000  0.4604360000000 1.0
C      1  0.4440950000000  0.5252490000000  0.5928370000000 1.0
C      1  0.5900130000000  0.4785430000000  0.5658100000000 1.0
C      1  0.5519390000000  0.4917620000000  0.4026700000000 1.0
C      1  0.4075450000000  0.4727590000000  0.4586410000000 1.0
C      1  0.4398160000000  0.4979340000000  0.5969440000000 1.0
C      1  0.5118590000000  0.5192360000000  0.4094160000000 1.0
C      1  0.4227000000000  0.5166170000000  0.4848990000000 1.0
C      1  0.4742060000000  0.5352350000000  0.5826660000000 1.0
C      1  0.5786020000000  0.4980720000000  0.5239900000000 1.0
C      1  0.5197070000000  0.4861530000000  0.4066260000000 1.0
C      1  0.4266350000000  0.4834280000000  0.4833080000000 1.0
C      1  0.4793860000000  0.4787020000000  0.5541000000000 1.0
C      1  0.5630640000000  0.4712430000000  0.5201000000000 1.0
C      1  0.5036860000000  0.5338250000000  0.5879990000000 1.0
C      1  0.5698010000000  0.5189270000000  0.4986110000000 1.0
C      1  0.4893890000000  0.5294660000000  0.4279390000000 1.0
C      1  0.4425060000000  0.5275820000000  0.5066340000000 1.0
C      1  0.5073230000000  0.4870130000000  0.5652590000000 1.0
C      1  0.5632150000000  0.4743390000000  0.4882670000000 1.0
C      1  0.4948140000000  0.4773770000000  0.4269050000000 1.0
C      1  0.4361500000000  0.4723820000000  0.5140340000000 1.0
C      1  0.4923460000000  0.5895500000000  0.4892140000000 1.0
C      1  0.4878540000000  0.4104290000000  0.4888560000000 1.0
C      1  0.5030330000000  0.5023170000000  0.4945970000000 1.0
END
