TITL C-3289330-4660-338 -0.000840054358407916 125000 -983.031741136066 0 0 182 (C1) n - 1
REM
REM in /nfs/bkarasulu/CARBON/AIRSS/Generating-Clusters/AIREBO/with-SteepDescent/Higher-Symm/SD-CG/HFTN-CG
REM
REM
REM
REM
REM
REM ./C.cell (b20cbc046b6831c77cfcea5457e17084)
REM
REM compiler GCC version 9.2.1 20190827 (Red Hat 9.2.1-1)
REM options -cpp -mtune=generic -march=x86-64 -g -O0 -fpre-include=/usr/include/finclude/math-vector-fortran.h
REM seed -1329688392 -722369448 -2021833981 -1145265631 814141914 1688480217 -771584374 -1070688649 -1051427240 -662903147 2049842044 -2095623503 552852320 -688324692 -963238541 12199364 1016334545 -48920797 1230607729 -1588746990 750497391 144564943 -164861625 594092381 1980474831 -2038296718 -1838684429 222203935 2111639225 267078574 -1278329608 180611777 -1110964687
REM
CELL 1.54180   50.00000   50.00000   50.00000   90.00000   90.00000   90.00000
LATT -1
SFAC C  
C      1  0.4275880000000  0.5370840000000  0.4261070000000 1.0
C      1  0.3864550000000  0.5279300000000  0.4906890000000 1.0
C      1  0.4078640000000  0.5218690000000  0.5645470000000 1.0
C      1  0.4700210000000  0.5374170000000  0.5953300000000 1.0
C      1  0.5450960000000  0.5232760000000  0.6006270000000 1.0
C      1  0.5967330000000  0.5404080000000  0.5489780000000 1.0
C      1  0.6074480000000  0.5251310000000  0.4719850000000 1.0
C      1  0.5571740000000  0.5290340000000  0.4086270000000 1.0
C      1  0.4867250000000  0.5231440000000  0.3825780000000 1.0
C      1  0.5194800000000  0.4906910000000  0.5717800000000 1.0
C      1  0.5675120000000  0.4870630000000  0.5421370000000 1.0
C      1  0.5873510000000  0.4899370000000  0.4905570000000 1.0
C      1  0.5510110000000  0.4915820000000  0.4428240000000 1.0
C      1  0.5015310000000  0.4894060000000  0.4257590000000 1.0
C      1  0.4502750000000  0.4798920000000  0.4362320000000 1.0
C      1  0.4255370000000  0.4886150000000  0.4796540000000 1.0
C      1  0.4280880000000  0.4821980000000  0.5346140000000 1.0
C      1  0.4667520000000  0.4855350000000  0.5684520000000 1.0
C      1  0.5073390000000  0.5140020000000  0.5287800000000 1.0
C      1  0.5336910000000  0.5004510000000  0.5247050000000 1.0
C      1  0.5431470000000  0.5023870000000  0.4952700000000 1.0
C      1  0.5232620000000  0.5138510000000  0.4765230000000 1.0
C      1  0.5063720000000  0.4925410000000  0.4655720000000 1.0
C      1  0.4786240000000  0.5081380000000  0.4606440000000 1.0
C      1  0.4682480000000  0.4950500000000  0.4866080000000 1.0
C      1  0.4594550000000  0.5107130000000  0.5126160000000 1.0
C      1  0.4825240000000  0.4973140000000  0.5307300000000 1.0
C      1  0.5128680000000  0.4645460000000  0.4767020000000 1.0
C      1  0.4660410000000  0.4597060000000  0.4529160000000 1.0
C      1  0.4643580000000  0.4645660000000  0.4866240000000 1.0
C      1  0.4402170000000  0.4678480000000  0.5104780000000 1.0
C      1  0.4885440000000  0.4688710000000  0.5291900000000 1.0
C      1  0.5037310000000  0.4671400000000  0.5574090000000 1.0
C      1  0.5414300000000  0.4684760000000  0.5321150000000 1.0
C      1  0.5453800000000  0.4704800000000  0.4991300000000 1.0
C      1  0.5425590000000  0.4740790000000  0.4671850000000 1.0
C      1  0.5021020000000  0.5491170000000  0.4526620000000 1.0
C      1  0.4805440000000  0.5375990000000  0.4711980000000 1.0
C      1  0.4564700000000  0.5470740000000  0.4886460000000 1.0
C      1  0.4790660000000  0.5371650000000  0.5110050000000 1.0
C      1  0.4842230000000  0.5446300000000  0.5400560000000 1.0
C      1  0.5169670000000  0.5525950000000  0.5452440000000 1.0
C      1  0.5445850000000  0.5494550000000  0.5257040000000 1.0
C      1  0.5524910000000  0.5482170000000  0.4931490000000 1.0
C      1  0.5322290000000  0.5519660000000  0.4660400000000 1.0
C      1  0.4145160000000  0.4605030000000  0.4953560000000 1.0
C      1  0.4382890000000  0.4596670000000  0.5580150000000 1.0
C      1  0.4861940000000  0.4616580000000  0.5830540000000 1.0
C      1  0.5427820000000  0.4666080000000  0.5659520000000 1.0
C      1  0.5878690000000  0.4671740000000  0.5234920000000 1.0
C      1  0.5733630000000  0.4646250000000  0.4714360000000 1.0
C      1  0.5376890000000  0.4634350000000  0.4290580000000 1.0
C      1  0.4838360000000  0.4610830000000  0.4258710000000 1.0
C      1  0.4249580000000  0.4574700000000  0.4398040000000 1.0
C      1  0.5325530000000  0.4369470000000  0.5314030000000 1.0
C      1  0.5433780000000  0.4404460000000  0.5036560000000 1.0
C      1  0.5312380000000  0.4280440000000  0.4803810000000 1.0
C      1  0.5054970000000  0.4358690000000  0.4671390000000 1.0
C      1  0.4767450000000  0.4329950000000  0.4655170000000 1.0
C      1  0.4549990000000  0.4318810000000  0.4870660000000 1.0
C      1  0.4540790000000  0.4411680000000  0.5172770000000 1.0
C      1  0.4776640000000  0.4374160000000  0.5341900000000 1.0
C      1  0.5073630000000  0.4377330000000  0.5451450000000 1.0
C      1  0.5755800000000  0.5277030000000  0.4603750000000 1.0
C      1  0.5255780000000  0.5252220000000  0.4206260000000 1.0
C      1  0.4705970000000  0.5267700000000  0.4099280000000 1.0
C      1  0.4243560000000  0.5247340000000  0.4576230000000 1.0
C      1  0.4130010000000  0.5272690000000  0.5114590000000 1.0
C      1  0.4417550000000  0.5246330000000  0.5642610000000 1.0
C      1  0.4970720000000  0.5229070000000  0.5806900000000 1.0
C      1  0.5550420000000  0.5251420000000  0.5684140000000 1.0
C      1  0.5877400000000  0.5264000000000  0.5193240000000 1.0
C      1  0.6060130000000  0.4574110000000  0.4776000000000 1.0
C      1  0.5688460000000  0.4547070000000  0.4208460000000 1.0
C      1  0.5009340000000  0.4535930000000  0.3975020000000 1.0
C      1  0.4347700000000  0.4577370000000  0.4072460000000 1.0
C      1  0.3888830000000  0.4568710000000  0.4768730000000 1.0
C      1  0.4094130000000  0.4490200000000  0.5461870000000 1.0
C      1  0.4603000000000  0.4589350000000  0.6023570000000 1.0
C      1  0.5336970000000  0.4519580000000  0.5952580000000 1.0
C      1  0.5913520000000  0.4577520000000  0.5548340000000 1.0
C      1  0.4236360000000  0.5693510000000  0.4845150000000 1.0
C      1  0.4298530000000  0.5682650000000  0.5367930000000 1.0
C      1  0.4663190000000  0.5684080000000  0.5704940000000 1.0
C      1  0.5274430000000  0.5675810000000  0.5807290000000 1.0
C      1  0.5715520000000  0.5704140000000  0.5509920000000 1.0
C      1  0.5862160000000  0.5691120000000  0.4891750000000 1.0
C      1  0.5587160000000  0.5714930000000  0.4421930000000 1.0
C      1  0.5061010000000  0.5622420000000  0.4151780000000 1.0
C      1  0.4559400000000  0.5695300000000  0.4326340000000 1.0
C      1  0.5090340000000  0.4390470000000  0.5907730000000 1.0
C      1  0.5676950000000  0.4436910000000  0.5626800000000 1.0
C      1  0.5910800000000  0.4461410000000  0.5021040000000 1.0
C      1  0.5671950000000  0.4416100000000  0.4488590000000 1.0
C      1  0.5182540000000  0.4417280000000  0.4203250000000 1.0
C      1  0.4594310000000  0.4381340000000  0.4200550000000 1.0
C      1  0.4131850000000  0.4383690000000  0.4621710000000 1.0
C      1  0.4143410000000  0.4381480000000  0.5206520000000 1.0
C      1  0.4534010000000  0.4403940000000  0.5758880000000 1.0
C      1  0.4886160000000  0.4852050000000  0.3945880000000 1.0
C      1  0.4184200000000  0.4870730000000  0.4141760000000 1.0
C      1  0.3871510000000  0.4881270000000  0.4901730000000 1.0
C      1  0.4033180000000  0.4756620000000  0.5654750000000 1.0
C      1  0.4709140000000  0.4889350000000  0.6076400000000 1.0
C      1  0.5494020000000  0.4781940000000  0.6033530000000 1.0
C      1  0.6057190000000  0.4884120000000  0.5515840000000 1.0
C      1  0.6036510000000  0.4869210000000  0.4608700000000 1.0
C      1  0.5615490000000  0.4818100000000  0.4035610000000 1.0
C      1  0.4561610000000  0.3939800000000  0.5136820000000 1.0
C      1  0.4777050000000  0.3977520000000  0.5374580000000 1.0
C      1  0.5084760000000  0.3977930000000  0.5455930000000 1.0
C      1  0.5374740000000  0.3975040000000  0.5325180000000 1.0
C      1  0.5487530000000  0.4009550000000  0.5041170000000 1.0
C      1  0.5379070000000  0.3924280000000  0.4729930000000 1.0
C      1  0.5072170000000  0.3969790000000  0.4589690000000 1.0
C      1  0.4763490000000  0.3935100000000  0.4602220000000 1.0
C      1  0.4530530000000  0.3929050000000  0.4810450000000 1.0
C      1  0.4441930000000  0.5555240000000  0.5590370000000 1.0
C      1  0.4958410000000  0.5568210000000  0.5827830000000 1.0
C      1  0.5520450000000  0.5577320000000  0.5676870000000 1.0
C      1  0.5859750000000  0.5598960000000  0.5220230000000 1.0
C      1  0.5761420000000  0.5595250000000  0.4623560000000 1.0
C      1  0.5393020000000  0.5563380000000  0.4202300000000 1.0
C      1  0.4775000000000  0.5559060000000  0.4190450000000 1.0
C      1  0.4319760000000  0.5576330000000  0.4536690000000 1.0
C      1  0.4198190000000  0.5578390000000  0.5113300000000 1.0
C      1  0.3948290000000  0.5094810000000  0.4648750000000 1.0
C      1  0.3967940000000  0.4999140000000  0.5519850000000 1.0
C      1  0.4503050000000  0.5109140000000  0.5941890000000 1.0
C      1  0.5329560000000  0.5001430000000  0.6086380000000 1.0
C      1  0.5867940000000  0.5134480000000  0.5647520000000 1.0
C      1  0.6129430000000  0.5194370000000  0.4988400000000 1.0
C      1  0.5730010000000  0.5057250000000  0.4125560000000 1.0
C      1  0.5119410000000  0.5099420000000  0.3934470000000 1.0
C      1  0.4398480000000  0.5130320000000  0.4092730000000 1.0
C      1  0.4636470000000  0.5945630000000  0.4440520000000 1.0
C      1  0.4323370000000  0.5974190000000  0.4857280000000 1.0
C      1  0.4416050000000  0.5938080000000  0.5321330000000 1.0
C      1  0.4695100000000  0.5959830000000  0.5607000000000 1.0
C      1  0.5231590000000  0.5971640000000  0.5777470000000 1.0
C      1  0.5651180000000  0.5990550000000  0.5462970000000 1.0
C      1  0.5780710000000  0.5977210000000  0.4956540000000 1.0
C      1  0.5462200000000  0.5937040000000  0.4527930000000 1.0
C      1  0.5136280000000  0.5848380000000  0.4314940000000 1.0
C      1  0.5087750000000  0.4191330000000  0.5699160000000 1.0
C      1  0.5540310000000  0.4219230000000  0.5489650000000 1.0
C      1  0.5716900000000  0.4260250000000  0.5029060000000 1.0
C      1  0.5537880000000  0.4193530000000  0.4595240000000 1.0
C      1  0.5132860000000  0.4217780000000  0.4384760000000 1.0
C      1  0.4669370000000  0.4170210000000  0.4387710000000 1.0
C      1  0.4315230000000  0.4175530000000  0.4715850000000 1.0
C      1  0.4347770000000  0.4157710000000  0.5174250000000 1.0
C      1  0.4648870000000  0.4209800000000  0.5587290000000 1.0
C      1  0.5020950000000  0.4967020000000  0.6003840000000 1.0
C      1  0.5674610000000  0.4879390000000  0.5762310000000 1.0
C      1  0.6079430000000  0.4919870000000  0.5176170000000 1.0
C      1  0.5836550000000  0.5010190000000  0.4414710000000 1.0
C      1  0.5290390000000  0.4853430000000  0.4058880000000 1.0
C      1  0.4569750000000  0.4840930000000  0.4041780000000 1.0
C      1  0.4130510000000  0.4877320000000  0.4478010000000 1.0
C      1  0.4009180000000  0.4966920000000  0.5201490000000 1.0
C      1  0.4337490000000  0.4869170000000  0.5766570000000 1.0
C      1  0.4871460000000  0.5780330000000  0.5378320000000 1.0
C      1  0.5151800000000  0.5864620000000  0.5478290000000 1.0
C      1  0.5396800000000  0.5828220000000  0.5307010000000 1.0
C      1  0.5503900000000  0.5809710000000  0.5020530000000 1.0
C      1  0.5309620000000  0.5834600000000  0.4790410000000 1.0
C      1  0.5050270000000  0.5808680000000  0.4618310000000 1.0
C      1  0.4780760000000  0.5919670000000  0.4671640000000 1.0
C      1  0.4615510000000  0.5806570000000  0.4903830000000 1.0
C      1  0.4655800000000  0.5909640000000  0.5192840000000 1.0
C      1  0.5423960000000  0.5236470000000  0.4501730000000 1.0
C      1  0.4943990000000  0.5216880000000  0.4337380000000 1.0
C      1  0.4504630000000  0.5059710000000  0.4489170000000 1.0
C      1  0.4366310000000  0.5194460000000  0.4888860000000 1.0
C      1  0.4358250000000  0.5124760000000  0.5341220000000 1.0
C      1  0.4739120000000  0.5166050000000  0.5566080000000 1.0
C      1  0.5228090000000  0.5216380000000  0.5580870000000 1.0
C      1  0.5582680000000  0.5198540000000  0.5349770000000 1.0
C      1  0.5687050000000  0.5183290000000  0.4923300000000 1.0
C      1  0.5062300000000  0.5263940000000  0.4993420000000 1.0
C      1  0.4925420000000  0.4605440000000  0.4998070000000 1.0
END
