TITL C-3289321-8710-752 0.000475592206648619 125000 -341.290786308849 0 0 63 (C2) n - 1
REM
REM in /nfs/bkarasulu/CARBON/AIRSS/Generating-Clusters/AIREBO/with-SteepDescent/Higher-Symm/SD-CG/HFTN-CG
REM
REM
REM
REM
REM
REM ./C.cell (b20cbc046b6831c77cfcea5457e17084)
REM
REM compiler GCC version 9.2.1 20190827 (Red Hat 9.2.1-1)
REM options -cpp -mtune=generic -march=x86-64 -g -O0 -fpre-include=/usr/include/finclude/math-vector-fortran.h
REM seed 759550818 -123862876 1556660628 607608803 958376144 -1583160589 1160595964 -964249094 2131497969 1469144752 1581975980 -1413498945 -1724041500 590158927 118996687 1140738049 -1554981174 -1643222277 2127264063 2013423037 2108932134 -2028637608 -17001200 639194787 -1022663414 -1853491576 -918149294 -1732830396 -839780472 1378776913 1081854180 -2082573640 -431788666
REM
CELL 1.54180   50.00000   50.00000   50.00000   90.00000   90.00000   90.00000
LATT -1
SFAC C  
C      1  0.5532490000000  0.4844160000000  0.4604500000000 1.0
C      1  0.5078740000000  0.4860030000000  0.5625100000000 1.0
C      1  0.4417140000000  0.4879350000000  0.4760250000000 1.0
C      1  0.4467600000000  0.5177420000000  0.4604410000000 1.0
C      1  0.4921120000000  0.5161350000000  0.5625110000000 1.0
C      1  0.5582910000000  0.5142210000000  0.4760410000000 1.0
C      1  0.4923310000000  0.5277380000000  0.5330050000000 1.0
C      1  0.4738690000000  0.5182910000000  0.4770080000000 1.0
C      1  0.5317660000000  0.5208750000000  0.4908320000000 1.0
C      1  0.5076610000000  0.4744050000000  0.5330010000000 1.0
C      1  0.5261360000000  0.4838640000000  0.4770110000000 1.0
C      1  0.4682360000000  0.4812770000000  0.4908210000000 1.0
C      1  0.4485320000000  0.4819800000000  0.4432460000000 1.0
C      1  0.5780610000000  0.4800880000000  0.4823270000000 1.0
C      1  0.4775180000000  0.4811320000000  0.5751110000000 1.0
C      1  0.5514810000000  0.5201830000000  0.4432620000000 1.0
C      1  0.4219430000000  0.5220660000000  0.4823140000000 1.0
C      1  0.5224640000000  0.5210030000000  0.5751200000000 1.0
C      1  0.4828340000000  0.5600060000000  0.5278440000000 1.0
C      1  0.4812470000000  0.5694870000000  0.4731780000000 1.0
C      1  0.5275610000000  0.5538400000000  0.4980920000000 1.0
C      1  0.5171590000000  0.4421390000000  0.5278360000000 1.0
C      1  0.5187590000000  0.4326690000000  0.4731680000000 1.0
C      1  0.4724390000000  0.4483110000000  0.4980750000000 1.0
C      1  0.5144460000000  0.5595980000000  0.5259080000000 1.0
C      1  0.4702220000000  0.5637810000000  0.4982510000000 1.0
C      1  0.5086710000000  0.5633880000000  0.4735290000000 1.0
C      1  0.4855480000000  0.4425470000000  0.5258930000000 1.0
C      1  0.5297780000000  0.4383700000000  0.4982450000000 1.0
C      1  0.4913350000000  0.4387670000000  0.4735140000000 1.0
C      1  0.5409180000000  0.4814500000000  0.5539830000000 1.0
C      1  0.4292330000000  0.4805840000000  0.5073740000000 1.0
C      1  0.5290410000000  0.4745650000000  0.4386330000000 1.0
C      1  0.4590700000000  0.5206890000000  0.5539780000000 1.0
C      1  0.5707650000000  0.5215650000000  0.5073950000000 1.0
C      1  0.4709730000000  0.5275980000000  0.4386320000000 1.0
C      1  0.4681380000000  0.5590060000000  0.4495390000000 1.0
C      1  0.5592390000000  0.5497610000000  0.4961240000000 1.0
C      1  0.4609610000000  0.5527460000000  0.5498830000000 1.0
C      1  0.5318740000000  0.4431550000000  0.4495340000000 1.0
C      1  0.4407620000000  0.4523910000000  0.4961000000000 1.0
C      1  0.5390270000000  0.4493940000000  0.5498820000000 1.0
C      1  0.5740110000000  0.4907420000000  0.5076320000000 1.0
C      1  0.4559050000000  0.4906160000000  0.5606080000000 1.0
C      1  0.4719130000000  0.4946080000000  0.4342090000000 1.0
C      1  0.4259870000000  0.5114070000000  0.5076170000000 1.0
C      1  0.5440820000000  0.5115220000000  0.5606210000000 1.0
C      1  0.5281020000000  0.5075560000000  0.4342170000000 1.0
C      1  0.4897900000000  0.4694690000000  0.4692830000000 1.0
C      1  0.5330310000000  0.4688320000000  0.5029490000000 1.0
C      1  0.4748310000000  0.4745180000000  0.5293980000000 1.0
C      1  0.5102170000000  0.5326870000000  0.4692920000000 1.0
C      1  0.4669680000000  0.5333180000000  0.5029480000000 1.0
C      1  0.5251620000000  0.5276270000000  0.5294090000000 1.0
C      1  0.4441100000000  0.4753620000000  0.5363100000000 1.0
C      1  0.4966330000000  0.4814450000000  0.4413840000000 1.0
C      1  0.5536050000000  0.4787430000000  0.5237490000000 1.0
C      1  0.5558810000000  0.5267810000000  0.5363290000000 1.0
C      1  0.5033800000000  0.5207170000000  0.4413890000000 1.0
C      1  0.4463890000000  0.5234020000000  0.5237410000000 1.0
C      1  0.5000030000000  0.5010780000000  0.4764770000000 1.0
C      1  0.4794290000000  0.5034510000000  0.5134040000000 1.0
C      1  0.5205680000000  0.4986970000000  0.5134090000000 1.0
END
