TITL C-3289327-5623-599 -0.00144612367580878 125000 -352.85665058936 0 0 68 (C1) n - 1
REM
REM in /nfs/bkarasulu/CARBON/AIRSS/Generating-Clusters/AIREBO/with-SteepDescent/Higher-Symm/SD-CG/HFTN-CG
REM
REM
REM
REM
REM
REM ./C.cell (b20cbc046b6831c77cfcea5457e17084)
REM
REM compiler GCC version 9.2.1 20190827 (Red Hat 9.2.1-1)
REM options -cpp -mtune=generic -march=x86-64 -g -O0 -fpre-include=/usr/include/finclude/math-vector-fortran.h
REM seed -1311864841 1304290448 1815939428 1557919559 -668903873 1095844110 1741834695 -1354055830 -1925124266 121595777 2089657677 -408089262 -338004612 1503445795 -1746784314 1080725372 -195357351 -1987646802 1222520840 -102029459 742618181 80105107 761654798 1620422757 -900930731 -980210973 164511662 -1667037905 167876973 -1090491783 1057657209 1668846895 -1577438528
REM
CELL 1.54180   50.00000   50.00000   50.00000   90.00000   90.00000   90.00000
LATT -1
SFAC C  
C      1  0.4660380000000  0.4860760000000  0.4554980000000 1.0
C      1  0.5151600000000  0.4770550000000  0.4621640000000 1.0
C      1  0.5448560000000  0.4728900000000  0.5179580000000 1.0
C      1  0.5043140000000  0.4729220000000  0.5523020000000 1.0
C      1  0.4553390000000  0.4639950000000  0.5110400000000 1.0
C      1  0.4756150000000  0.5313050000000  0.4654730000000 1.0
C      1  0.5157380000000  0.5241470000000  0.4552110000000 1.0
C      1  0.5447230000000  0.5278500000000  0.5163580000000 1.0
C      1  0.4976550000000  0.5290160000000  0.5470830000000 1.0
C      1  0.4506720000000  0.5422710000000  0.5213520000000 1.0
C      1  0.5599010000000  0.4843560000000  0.4931040000000 1.0
C      1  0.5432340000000  0.5005180000000  0.5658140000000 1.0
C      1  0.4580090000000  0.4869860000000  0.5551410000000 1.0
C      1  0.4292030000000  0.4813130000000  0.4862410000000 1.0
C      1  0.5030940000000  0.4824520000000  0.4326400000000 1.0
C      1  0.5598110000000  0.5140760000000  0.4912690000000 1.0
C      1  0.5273320000000  0.5276470000000  0.5636440000000 1.0
C      1  0.4496900000000  0.5101590000000  0.5667780000000 1.0
C      1  0.4251910000000  0.5087530000000  0.4842730000000 1.0
C      1  0.5056650000000  0.5107830000000  0.4258710000000 1.0
C      1  0.4728300000000  0.5329560000000  0.5680440000000 1.0
C      1  0.4325710000000  0.5360030000000  0.4990390000000 1.0
C      1  0.4825640000000  0.5338340000000  0.4354160000000 1.0
C      1  0.5446770000000  0.5205810000000  0.4626760000000 1.0
C      1  0.5535030000000  0.5338740000000  0.5438010000000 1.0
C      1  0.4785040000000  0.4684350000000  0.5706410000000 1.0
C      1  0.4221720000000  0.4653790000000  0.5107870000000 1.0
C      1  0.4714970000000  0.4739720000000  0.4297830000000 1.0
C      1  0.5450620000000  0.4730580000000  0.4662630000000 1.0
C      1  0.5541110000000  0.4757340000000  0.5469430000000 1.0
C      1  0.4745910000000  0.5606770000000  0.5114860000000 1.0
C      1  0.4887410000000  0.5537880000000  0.4810080000000 1.0
C      1  0.5220630000000  0.5512850000000  0.4747070000000 1.0
C      1  0.5271830000000  0.5505810000000  0.5083160000000 1.0
C      1  0.5023260000000  0.5563430000000  0.5273660000000 1.0
C      1  0.4661230000000  0.4461120000000  0.4855390000000 1.0
C      1  0.4892550000000  0.4370830000000  0.4622620000000 1.0
C      1  0.5156580000000  0.4493290000000  0.4793200000000 1.0
C      1  0.5245910000000  0.4499520000000  0.5115700000000 1.0
C      1  0.5010160000000  0.4490850000000  0.5320200000000 1.0
C      1  0.5557500000000  0.5460470000000  0.4779160000000 1.0
C      1  0.5482540000000  0.5540980000000  0.5682770000000 1.0
C      1  0.4456990000000  0.5388790000000  0.5517830000000 1.0
C      1  0.4466040000000  0.5287910000000  0.4712860000000 1.0
C      1  0.5076470000000  0.5438390000000  0.4174870000000 1.0
C      1  0.5760300000000  0.4661910000000  0.4691350000000 1.0
C      1  0.5299510000000  0.4724530000000  0.5671810000000 1.0
C      1  0.4692600000000  0.4590070000000  0.5393080000000 1.0
C      1  0.4504160000000  0.4705350000000  0.4719960000000 1.0
C      1  0.4917180000000  0.4502430000000  0.4341630000000 1.0
C      1  0.5406790000000  0.5772310000000  0.5024980000000 1.0
C      1  0.5105580000000  0.5862160000000  0.5269270000000 1.0
C      1  0.4646740000000  0.5921340000000  0.5032090000000 1.0
C      1  0.4884710000000  0.5870170000000  0.4852550000000 1.0
C      1  0.5239100000000  0.5838210000000  0.4670850000000 1.0
C      1  0.5294150000000  0.4206720000000  0.5035200000000 1.0
C      1  0.4825570000000  0.4236970000000  0.5261450000000 1.0
C      1  0.4791900000000  0.4200520000000  0.4986920000000 1.0
C      1  0.4924020000000  0.4040300000000  0.4549380000000 1.0
C      1  0.5264420000000  0.4228480000000  0.4639650000000 1.0
C      1  0.4748040000000  0.5224020000000  0.5227730000000 1.0
C      1  0.5293490000000  0.5002710000000  0.5134250000000 1.0
C      1  0.4696700000000  0.4916780000000  0.5163290000000 1.0
C      1  0.5042830000000  0.4981040000000  0.5345660000000 1.0
C      1  0.4931420000000  0.5022730000000  0.4681680000000 1.0
C      1  0.5161930000000  0.5996650000000  0.4961620000000 1.0
C      1  0.5045160000000  0.4086640000000  0.4857540000000 1.0
C      1  0.4984280000000  0.4995480000000  0.5006420000000 1.0
END
