TITL C-3289333-7213-284 -0.00245953002987318 125000 -710.735291918715 0 0 135 (C1) n - 1
REM
REM in /nfs/bkarasulu/CARBON/AIRSS/Generating-Clusters/AIREBO/with-SteepDescent/Higher-Symm/SD-CG/HFTN-CG
REM
REM
REM
REM
REM
REM ./C.cell (b20cbc046b6831c77cfcea5457e17084)
REM
REM compiler GCC version 9.2.1 20190827 (Red Hat 9.2.1-1)
REM options -cpp -mtune=generic -march=x86-64 -g -O0 -fpre-include=/usr/include/finclude/math-vector-fortran.h
REM seed -1726795407 -190122608 825589578 -2090392475 -478129229 956769255 1236238944 1434668075 -1346472681 -851982455 -1496711485 -1584478082 1327021155 1786225932 1258079212 -1146978722 389328699 -21320996 309710731 -1046326770 -1988596656 -209794594 673154494 -1365723849 756701585 -654261412 -1940132922 -538025132 -1482065463 -1965915208 -484207037 -277148103 774982829
REM
CELL 1.54180   50.00000   50.00000   50.00000   90.00000   90.00000   90.00000
LATT -1
SFAC C  
C      1  0.5531280000000  0.4574840000000  0.4710400000000 1.0
C      1  0.4865370000000  0.4284770000000  0.4369700000000 1.0
C      1  0.4263060000000  0.5400570000000  0.4620850000000 1.0
C      1  0.4655630000000  0.5661180000000  0.4442140000000 1.0
C      1  0.5168790000000  0.4536810000000  0.5391270000000 1.0
C      1  0.5253380000000  0.5413060000000  0.5561640000000 1.0
C      1  0.4520330000000  0.5319960000000  0.4793040000000 1.0
C      1  0.4839570000000  0.5044570000000  0.5813420000000 1.0
C      1  0.5493700000000  0.5039390000000  0.5769080000000 1.0
C      1  0.4441990000000  0.4816430000000  0.4738610000000 1.0
C      1  0.5175960000000  0.5563750000000  0.4623930000000 1.0
C      1  0.4730720000000  0.4385910000000  0.4993430000000 1.0
C      1  0.5226140000000  0.4779800000000  0.4518300000000 1.0
C      1  0.5922630000000  0.4853820000000  0.4442910000000 1.0
C      1  0.4218350000000  0.4335680000000  0.4492010000000 1.0
C      1  0.4662290000000  0.4700570000000  0.4145530000000 1.0
C      1  0.4556530000000  0.5396840000000  0.5694900000000 1.0
C      1  0.5127130000000  0.4449930000000  0.5944350000000 1.0
C      1  0.5386160000000  0.4339580000000  0.4544650000000 1.0
C      1  0.5568500000000  0.5407030000000  0.5521740000000 1.0
C      1  0.4756300000000  0.4103180000000  0.4875790000000 1.0
C      1  0.4321870000000  0.5477100000000  0.5453730000000 1.0
C      1  0.5211710000000  0.5094870000000  0.4403150000000 1.0
C      1  0.5678880000000  0.5571130000000  0.4666030000000 1.0
C      1  0.5111810000000  0.4778760000000  0.3987770000000 1.0
C      1  0.4580330000000  0.4576180000000  0.5390600000000 1.0
C      1  0.4655410000000  0.4463810000000  0.4290740000000 1.0
C      1  0.5228000000000  0.4121170000000  0.5322880000000 1.0
C      1  0.4984410000000  0.5719620000000  0.4392330000000 1.0
C      1  0.4973520000000  0.4510040000000  0.4679580000000 1.0
C      1  0.4981140000000  0.5874710000000  0.5731610000000 1.0
C      1  0.4575210000000  0.4975030000000  0.4321120000000 1.0
C      1  0.5075890000000  0.4935800000000  0.4954430000000 1.0
C      1  0.4846220000000  0.4690440000000  0.5010540000000 1.0
C      1  0.5989290000000  0.5449280000000  0.5137440000000 1.0
C      1  0.4935810000000  0.4905150000000  0.4646060000000 1.0
C      1  0.4140750000000  0.5318620000000  0.4913550000000 1.0
C      1  0.5284620000000  0.4629660000000  0.4134200000000 1.0
C      1  0.4825580000000  0.5392180000000  0.4549010000000 1.0
C      1  0.5563190000000  0.5564050000000  0.4967510000000 1.0
C      1  0.5113740000000  0.5616900000000  0.5327940000000 1.0
C      1  0.4811420000000  0.5607690000000  0.5778980000000 1.0
C      1  0.4594360000000  0.5184120000000  0.5432290000000 1.0
C      1  0.4446310000000  0.4480500000000  0.4503270000000 1.0
C      1  0.4263290000000  0.5152190000000  0.5502880000000 1.0
C      1  0.4118740000000  0.4929420000000  0.5310410000000 1.0
C      1  0.5154960000000  0.5329960000000  0.4828440000000 1.0
C      1  0.5576630000000  0.4859590000000  0.4530200000000 1.0
C      1  0.5334140000000  0.5225000000000  0.5918290000000 1.0
C      1  0.5846660000000  0.4807980000000  0.5013530000000 1.0
C      1  0.4475820000000  0.5277950000000  0.5127540000000 1.0
C      1  0.5685910000000  0.5641970000000  0.5431990000000 1.0
C      1  0.5911090000000  0.5164740000000  0.5074310000000 1.0
C      1  0.5574310000000  0.4106050000000  0.5269370000000 1.0
C      1  0.5501740000000  0.5191310000000  0.4538230000000 1.0
C      1  0.5550430000000  0.4623700000000  0.4286540000000 1.0
C      1  0.5300280000000  0.4264310000000  0.5038200000000 1.0
C      1  0.5706110000000  0.4640900000000  0.5368000000000 1.0
C      1  0.4351490000000  0.5819090000000  0.4998310000000 1.0
C      1  0.5350250000000  0.4750540000000  0.4939760000000 1.0
C      1  0.4689990000000  0.4784750000000  0.5825970000000 1.0
C      1  0.4311360000000  0.5027990000000  0.4966010000000 1.0
C      1  0.5133990000000  0.5885240000000  0.5525590000000 1.0
C      1  0.4865340000000  0.5194860000000  0.4945410000000 1.0
C      1  0.4806790000000  0.4076010000000  0.4587190000000 1.0
C      1  0.4193420000000  0.4947000000000  0.4592520000000 1.0
C      1  0.4311550000000  0.5182520000000  0.4377630000000 1.0
C      1  0.4554140000000  0.5892270000000  0.5177480000000 1.0
C      1  0.4917780000000  0.4398590000000  0.5271660000000 1.0
C      1  0.4905650000000  0.4089460000000  0.5380830000000 1.0
C      1  0.5843690000000  0.5290370000000  0.4765000000000 1.0
C      1  0.4769170000000  0.5856880000000  0.4696270000000 1.0
C      1  0.5029520000000  0.4780120000000  0.5583680000000 1.0
C      1  0.5455150000000  0.5516500000000  0.4450300000000 1.0
C      1  0.4561110000000  0.5695910000000  0.5370800000000 1.0
C      1  0.4814910000000  0.5584000000000  0.5458280000000 1.0
C      1  0.4966700000000  0.5689590000000  0.5029830000000 1.0
C      1  0.4753880000000  0.4340520000000  0.5563870000000 1.0
C      1  0.5348970000000  0.4501130000000  0.5784390000000 1.0
C      1  0.5638220000000  0.4176120000000  0.4677140000000 1.0
C      1  0.4552130000000  0.5391960000000  0.4259580000000 1.0
C      1  0.5357590000000  0.4784830000000  0.5673370000000 1.0
C      1  0.4808260000000  0.5976560000000  0.5028940000000 1.0
C      1  0.5680760000000  0.4343730000000  0.5437470000000 1.0
C      1  0.4884060000000  0.4545910000000  0.5782850000000 1.0
C      1  0.4471730000000  0.4565860000000  0.4948290000000 1.0
C      1  0.5461520000000  0.5253720000000  0.4871970000000 1.0
C      1  0.4786730000000  0.3820360000000  0.4491550000000 1.0
C      1  0.5960890000000  0.5255500000000  0.4221790000000 1.0
C      1  0.5072200000000  0.5185680000000  0.6002460000000 1.0
C      1  0.5405530000000  0.4913060000000  0.5362100000000 1.0
C      1  0.5385530000000  0.5517530000000  0.5857040000000 1.0
C      1  0.5732810000000  0.4970830000000  0.5289600000000 1.0
C      1  0.3987240000000  0.4572630000000  0.4881110000000 1.0
C      1  0.4705220000000  0.4655340000000  0.4637850000000 1.0
C      1  0.4212410000000  0.4856390000000  0.5629560000000 1.0
C      1  0.5696570000000  0.4554730000000  0.4977140000000 1.0
C      1  0.5121930000000  0.4502960000000  0.4943940000000 1.0
C      1  0.4418870000000  0.4810200000000  0.5203980000000 1.0
C      1  0.4430600000000  0.5848690000000  0.4729390000000 1.0
C      1  0.5773440000000  0.5612860000000  0.5170150000000 1.0
C      1  0.5663480000000  0.5149710000000  0.5570510000000 1.0
C      1  0.4683440000000  0.5118310000000  0.4595590000000 1.0
C      1  0.5489940000000  0.5021330000000  0.5050970000000 1.0
C      1  0.4768620000000  0.5335000000000  0.5953390000000 1.0
C      1  0.4884830000000  0.5290720000000  0.5332570000000 1.0
C      1  0.4928280000000  0.4942190000000  0.4308170000000 1.0
C      1  0.4775670000000  0.5262680000000  0.4130060000000 1.0
C      1  0.4191620000000  0.4466500000000  0.5046460000000 1.0
C      1  0.5433620000000  0.4538410000000  0.5192120000000 1.0
C      1  0.5105430000000  0.5110730000000  0.5610980000000 1.0
C      1  0.4264420000000  0.5544210000000  0.5122770000000 1.0
C      1  0.4302230000000  0.4401230000000  0.5302840000000 1.0
C      1  0.5085840000000  0.5900590000000  0.4812880000000 1.0
C      1  0.5228000000000  0.5570360000000  0.4230160000000 1.0
C      1  0.5823230000000  0.4962180000000  0.4740910000000 1.0
C      1  0.5176950000000  0.5333600000000  0.5150850000000 1.0
C      1  0.3979100000000  0.5042510000000  0.5041420000000 1.0
C      1  0.5685420000000  0.4358540000000  0.4393530000000 1.0
C      1  0.4778970000000  0.3943330000000  0.5109250000000 1.0
C      1  0.4798820000000  0.5498660000000  0.4871220000000 1.0
C      1  0.5395100000000  0.5769910000000  0.4755110000000 1.0
C      1  0.5096680000000  0.5029680000000  0.5280680000000 1.0
C      1  0.5148860000000  0.4469790000000  0.4401810000000 1.0
C      1  0.3992120000000  0.4846250000000  0.4792370000000 1.0
C      1  0.5707450000000  0.5867440000000  0.5576010000000 1.0
C      1  0.4823800000000  0.4959780000000  0.3996000000000 1.0
C      1  0.5030050000000  0.5332720000000  0.4302680000000 1.0
C      1  0.5379980000000  0.4317840000000  0.5543560000000 1.0
C      1  0.5603330000000  0.4143180000000  0.4947010000000 1.0
C      1  0.4452240000000  0.4716760000000  0.5672550000000 1.0
C      1  0.4735820000000  0.4874640000000  0.5439780000000 1.0
C      1  0.4275130000000  0.5702840000000  0.4556180000000 1.0
C      1  0.4717020000000  0.4959400000000  0.5126040000000 1.0
C      1  0.5822030000000  0.5240660000000  0.4435190000000 1.0
END
