TITL C-3289328-6581-186 -0.000121083057688844 125000 -474.361880954295 0 0 88 (C1) n - 1
REM
REM in /nfs/bkarasulu/CARBON/AIRSS/Generating-Clusters/AIREBO/with-SteepDescent/Higher-Symm/SD-CG/HFTN-CG
REM
REM
REM
REM
REM
REM ./C.cell (b20cbc046b6831c77cfcea5457e17084)
REM
REM compiler GCC version 9.2.1 20190827 (Red Hat 9.2.1-1)
REM options -cpp -mtune=generic -march=x86-64 -g -O0 -fpre-include=/usr/include/finclude/math-vector-fortran.h
REM seed -846563662 1245999219 828372567 1520474323 -1079861634 -703665408 -1473453848 -406253709 1223216184 -1609856785 -1228558152 190928747 2023924106 666629805 -1326987775 -287048529 2015972616 -1333484127 -270041920 474764654 -201176266 1983129846 -1850315153 872867651 -2145203623 -1437312320 -867335780 1807591395 1113835124 996558016 -1118659794 -967477919 -2111343829
REM
CELL 1.54180   50.00000   50.00000   50.00000   90.00000   90.00000   90.00000
LATT -1
SFAC C  
C      1  0.5746530000000  0.4931850000000  0.5779810000000 1.0
C      1  0.5563640000000  0.4732320000000  0.5574000000000 1.0
C      1  0.5569840000000  0.4283090000000  0.5206240000000 1.0
C      1  0.5571170000000  0.4284920000000  0.4855560000000 1.0
C      1  0.5503000000000  0.4667940000000  0.4454180000000 1.0
C      1  0.5663450000000  0.4870350000000  0.4233060000000 1.0
C      1  0.5494180000000  0.5135810000000  0.4361600000000 1.0
C      1  0.5531160000000  0.5598130000000  0.4730830000000 1.0
C      1  0.5727510000000  0.5727600000000  0.4976390000000 1.0
C      1  0.5546520000000  0.5533710000000  0.5189230000000 1.0
C      1  0.5550500000000  0.5175540000000  0.5646310000000 1.0
C      1  0.4509200000000  0.5551200000000  0.4882610000000 1.0
C      1  0.4657910000000  0.5611560000000  0.5182490000000 1.0
C      1  0.4603350000000  0.5533070000000  0.5491050000000 1.0
C      1  0.4474000000000  0.5228800000000  0.5570480000000 1.0
C      1  0.4646920000000  0.4710150000000  0.5574390000000 1.0
C      1  0.4589940000000  0.4442380000000  0.5399040000000 1.0
C      1  0.4544990000000  0.4402050000000  0.5059550000000 1.0
C      1  0.4563770000000  0.4357380000000  0.4719590000000 1.0
C      1  0.4555820000000  0.4572380000000  0.4464080000000 1.0
C      1  0.4544340000000  0.5167920000000  0.4374960000000 1.0
C      1  0.4559370000000  0.5454360000000  0.4557530000000 1.0
C      1  0.4993080000000  0.5755880000000  0.4778600000000 1.0
C      1  0.5101110000000  0.5815090000000  0.5197630000000 1.0
C      1  0.5055850000000  0.5602490000000  0.5660250000000 1.0
C      1  0.4977240000000  0.5210140000000  0.5766440000000 1.0
C      1  0.5085480000000  0.4658980000000  0.5814990000000 1.0
C      1  0.5054120000000  0.4264490000000  0.5466270000000 1.0
C      1  0.5040580000000  0.4168870000000  0.5049460000000 1.0
C      1  0.5039830000000  0.4235270000000  0.4650480000000 1.0
C      1  0.5015040000000  0.4594520000000  0.4269770000000 1.0
C      1  0.5015360000000  0.5150320000000  0.4132360000000 1.0
C      1  0.4992130000000  0.5581210000000  0.4353580000000 1.0
C      1  0.5765260000000  0.4837140000000  0.4561590000000 1.0
C      1  0.5840030000000  0.5118780000000  0.4395060000000 1.0
C      1  0.5675240000000  0.5338430000000  0.4566130000000 1.0
C      1  0.5769290000000  0.5401730000000  0.4867880000000 1.0
C      1  0.5888880000000  0.5487300000000  0.5167060000000 1.0
C      1  0.5724680000000  0.5366760000000  0.5422940000000 1.0
C      1  0.5803780000000  0.5057290000000  0.5464730000000 1.0
C      1  0.5906540000000  0.4749530000000  0.5529360000000 1.0
C      1  0.5728970000000  0.4532490000000  0.5358980000000 1.0
C      1  0.5705730000000  0.4550300000000  0.5030740000000 1.0
C      1  0.5709080000000  0.4549390000000  0.4700360000000 1.0
C      1  0.4745950000000  0.5776800000000  0.4789290000000 1.0
C      1  0.4846900000000  0.5840940000000  0.5170960000000 1.0
C      1  0.4811380000000  0.5665820000000  0.5688100000000 1.0
C      1  0.4738200000000  0.5283090000000  0.5777790000000 1.0
C      1  0.4829700000000  0.4662740000000  0.5817910000000 1.0
C      1  0.4807580000000  0.4221940000000  0.5491510000000 1.0
C      1  0.4792560000000  0.4169020000000  0.5066820000000 1.0
C      1  0.4798060000000  0.4165630000000  0.4658110000000 1.0
C      1  0.4777490000000  0.4522850000000  0.4233980000000 1.0
C      1  0.4765010000000  0.5201050000000  0.4117950000000 1.0
C      1  0.4749330000000  0.5647020000000  0.4382300000000 1.0
C      1  0.5297620000000  0.4386370000000  0.5030410000000 1.0
C      1  0.5191190000000  0.4513520000000  0.4733480000000 1.0
C      1  0.5207130000000  0.4741110000000  0.4481020000000 1.0
C      1  0.5167690000000  0.5076900000000  0.4427440000000 1.0
C      1  0.5142920000000  0.5389870000000  0.4566650000000 1.0
C      1  0.5246320000000  0.5555730000000  0.4806130000000 1.0
C      1  0.5239100000000  0.5513730000000  0.5143550000000 1.0
C      1  0.5142700000000  0.5377730000000  0.5444860000000 1.0
C      1  0.5260250000000  0.5116920000000  0.5602440000000 1.0
C      1  0.5257000000000  0.4780090000000  0.5548360000000 1.0
C      1  0.5201700000000  0.4522650000000  0.5326810000000 1.0
C      1  0.4931790000000  0.4676520000000  0.4776860000000 1.0
C      1  0.4789810000000  0.4753000000000  0.4559680000000 1.0
C      1  0.4835770000000  0.5010770000000  0.4461030000000 1.0
C      1  0.4852390000000  0.5286500000000  0.4597370000000 1.0
C      1  0.4748490000000  0.5318220000000  0.4881780000000 1.0
C      1  0.4932010000000  0.5372770000000  0.5105610000000 1.0
C      1  0.4816800000000  0.5309540000000  0.5386550000000 1.0
C      1  0.4729060000000  0.5024920000000  0.5474950000000 1.0
C      1  0.4958780000000  0.4826370000000  0.5415490000000 1.0
C      1  0.4867920000000  0.4562890000000  0.5276060000000 1.0
C      1  0.4786560000000  0.4632640000000  0.4995690000000 1.0
C      1  0.4223590000000  0.5460470000000  0.4950270000000 1.0
C      1  0.4175940000000  0.5374480000000  0.5210450000000 1.0
C      1  0.4225480000000  0.5187760000000  0.5412300000000 1.0
C      1  0.4113570000000  0.4934490000000  0.5386440000000 1.0
C      1  0.4112550000000  0.4712290000000  0.5231710000000 1.0
C      1  0.4242720000000  0.4557470000000  0.5049960000000 1.0
C      1  0.4297380000000  0.4546740000000  0.4764210000000 1.0
C      1  0.4294160000000  0.4747920000000  0.4531620000000 1.0
C      1  0.4291850000000  0.5014240000000  0.4460530000000 1.0
C      1  0.4083310000000  0.5181260000000  0.4545000000000 1.0
C      1  0.4069830000000  0.5378290000000  0.4732930000000 1.0
END
