TITL C-3289323-3850-168 -0.000425208864362259 125000 -973.23067732644 0 0 184 (C1) n - 1
REM
REM in /nfs/bkarasulu/CARBON/AIRSS/Generating-Clusters/AIREBO/with-SteepDescent/Higher-Symm/SD-CG/HFTN-CG
REM
REM
REM
REM
REM
REM ./C.cell (b20cbc046b6831c77cfcea5457e17084)
REM
REM compiler GCC version 9.2.1 20190827 (Red Hat 9.2.1-1)
REM options -cpp -mtune=generic -march=x86-64 -g -O0 -fpre-include=/usr/include/finclude/math-vector-fortran.h
REM seed -1630763695 2146246390 855532157 1065091349 -5333594 1940455524 1134268370 -897712023 1033504633 -891233719 -1431411423 -280469009 -104739307 -1668771314 -1389573034 -2003602952 -1755065952 -620643333 -733809415 -991378556 1984130770 1492321154 -785331221 565425561 467890337 -1660196934 -2118435886 -1296496376 -2029705317 -401976117 -1680883015 708822442 -1267184936
REM
CELL 1.54180   50.00000   50.00000   50.00000   90.00000   90.00000   90.00000
LATT -1
SFAC C  
C      1  0.5578240000000  0.4506540000000  0.5331490000000 1.0
C      1  0.5721290000000  0.4586820000000  0.4967240000000 1.0
C      1  0.5388890000000  0.4619920000000  0.4425890000000 1.0
C      1  0.4919500000000  0.4549430000000  0.4232880000000 1.0
C      1  0.4367850000000  0.4553340000000  0.4596780000000 1.0
C      1  0.4439810000000  0.4617760000000  0.5354820000000 1.0
C      1  0.4915360000000  0.4593450000000  0.5650170000000 1.0
C      1  0.5027190000000  0.3894100000000  0.5326990000000 1.0
C      1  0.5309170000000  0.3949420000000  0.5159060000000 1.0
C      1  0.5306990000000  0.3890470000000  0.4823930000000 1.0
C      1  0.5087120000000  0.3924040000000  0.4583520000000 1.0
C      1  0.4770520000000  0.3854760000000  0.4683870000000 1.0
C      1  0.4622120000000  0.3947280000000  0.4971420000000 1.0
C      1  0.4703650000000  0.3922810000000  0.5280450000000 1.0
C      1  0.4385800000000  0.5160710000000  0.5928290000000 1.0
C      1  0.5265520000000  0.5133860000000  0.6123190000000 1.0
C      1  0.6023240000000  0.5260440000000  0.5476510000000 1.0
C      1  0.5920490000000  0.5239160000000  0.4530210000000 1.0
C      1  0.5187920000000  0.5255850000000  0.3967890000000 1.0
C      1  0.4263990000000  0.5123300000000  0.4285850000000 1.0
C      1  0.3998520000000  0.5270720000000  0.5130430000000 1.0
C      1  0.5198630000000  0.4373860000000  0.4676770000000 1.0
C      1  0.4927880000000  0.4380540000000  0.4527930000000 1.0
C      1  0.4637680000000  0.4376700000000  0.4705570000000 1.0
C      1  0.4682600000000  0.4468860000000  0.5182620000000 1.0
C      1  0.4934200000000  0.4407440000000  0.5377380000000 1.0
C      1  0.5263910000000  0.4426450000000  0.5295290000000 1.0
C      1  0.5420750000000  0.4428880000000  0.4928830000000 1.0
C      1  0.5468860000000  0.5104700000000  0.4086940000000 1.0
C      1  0.4569850000000  0.5092600000000  0.4142140000000 1.0
C      1  0.4089590000000  0.5056700000000  0.4887760000000 1.0
C      1  0.4221040000000  0.5097180000000  0.5716350000000 1.0
C      1  0.4995680000000  0.5084070000000  0.6059930000000 1.0
C      1  0.5797600000000  0.5190410000000  0.5721480000000 1.0
C      1  0.6059090000000  0.5119060000000  0.4822620000000 1.0
C      1  0.5042260000000  0.5021010000000  0.3808290000000 1.0
C      1  0.4026650000000  0.4921200000000  0.4319820000000 1.0
C      1  0.3958850000000  0.4983410000000  0.5327350000000 1.0
C      1  0.4552090000000  0.4933940000000  0.6054470000000 1.0
C      1  0.5448980000000  0.4879270000000  0.6138530000000 1.0
C      1  0.6194890000000  0.4999260000000  0.5360100000000 1.0
C      1  0.5961390000000  0.4895410000000  0.4168000000000 1.0
C      1  0.4712340000000  0.5230470000000  0.6009680000000 1.0
C      1  0.5583630000000  0.5145870000000  0.5984860000000 1.0
C      1  0.6099770000000  0.5224820000000  0.5143320000000 1.0
C      1  0.5772440000000  0.5152360000000  0.4233600000000 1.0
C      1  0.4821190000000  0.5206260000000  0.3942730000000 1.0
C      1  0.4062310000000  0.5148870000000  0.4561540000000 1.0
C      1  0.4080490000000  0.5271660000000  0.5460570000000 1.0
C      1  0.4701940000000  0.5438390000000  0.4313870000000 1.0
C      1  0.4356560000000  0.5389450000000  0.4676470000000 1.0
C      1  0.4373010000000  0.5300790000000  0.5305540000000 1.0
C      1  0.4791510000000  0.5427300000000  0.5787750000000 1.0
C      1  0.5373820000000  0.5272150000000  0.5765960000000 1.0
C      1  0.5711430000000  0.5309580000000  0.4789030000000 1.0
C      1  0.5304300000000  0.5379780000000  0.4341320000000 1.0
C      1  0.4968060000000  0.5003120000000  0.5636980000000 1.0
C      1  0.5455660000000  0.5040750000000  0.5541550000000 1.0
C      1  0.5685280000000  0.5001710000000  0.4931030000000 1.0
C      1  0.5471680000000  0.5005200000000  0.4466980000000 1.0
C      1  0.4904970000000  0.4978160000000  0.4337780000000 1.0
C      1  0.4434860000000  0.4913060000000  0.4754150000000 1.0
C      1  0.4447340000000  0.5009600000000  0.5329340000000 1.0
C      1  0.4120500000000  0.4668670000000  0.4304780000000 1.0
C      1  0.3906370000000  0.4693200000000  0.5279890000000 1.0
C      1  0.4530130000000  0.4682100000000  0.5973540000000 1.0
C      1  0.5361920000000  0.4633410000000  0.6080310000000 1.0
C      1  0.6083480000000  0.4746530000000  0.5330590000000 1.0
C      1  0.5942300000000  0.4659710000000  0.4259060000000 1.0
C      1  0.5141050000000  0.4768540000000  0.3833250000000 1.0
C      1  0.4920760000000  0.4565220000000  0.6092990000000 1.0
C      1  0.5744750000000  0.4618270000000  0.5753350000000 1.0
C      1  0.6104250000000  0.4572280000000  0.4757190000000 1.0
C      1  0.5585700000000  0.4579190000000  0.3995650000000 1.0
C      1  0.4616320000000  0.4600950000000  0.3854470000000 1.0
C      1  0.3870470000000  0.4565600000000  0.4744660000000 1.0
C      1  0.4113980000000  0.4585360000000  0.5690320000000 1.0
C      1  0.4952930000000  0.4813810000000  0.5906590000000 1.0
C      1  0.5709600000000  0.4888270000000  0.5708600000000 1.0
C      1  0.5967840000000  0.4814200000000  0.4905600000000 1.0
C      1  0.5575260000000  0.4806490000000  0.4211130000000 1.0
C      1  0.4745130000000  0.4805480000000  0.4092340000000 1.0
C      1  0.4130860000000  0.4765130000000  0.4717590000000 1.0
C      1  0.4214290000000  0.4832110000000  0.5493270000000 1.0
C      1  0.5713380000000  0.4530470000000  0.4474830000000 1.0
C      1  0.5214130000000  0.4628410000000  0.4134320000000 1.0
C      1  0.4445640000000  0.4656240000000  0.4312300000000 1.0
C      1  0.4173230000000  0.4553040000000  0.5153890000000 1.0
C      1  0.4577230000000  0.4558440000000  0.5660330000000 1.0
C      1  0.5203790000000  0.4518950000000  0.5814130000000 1.0
C      1  0.5781880000000  0.4725800000000  0.5247060000000 1.0
C      1  0.4749880000000  0.4256120000000  0.4196890000000 1.0
C      1  0.4258560000000  0.4263980000000  0.4710920000000 1.0
C      1  0.4248080000000  0.4273580000000  0.5333040000000 1.0
C      1  0.4722450000000  0.4263730000000  0.5749660000000 1.0
C      1  0.5380710000000  0.4296630000000  0.5674640000000 1.0
C      1  0.5777220000000  0.4257880000000  0.4901150000000 1.0
C      1  0.5543750000000  0.4259010000000  0.4359530000000 1.0
C      1  0.4970010000000  0.4811150000000  0.4608940000000 1.0
C      1  0.4747620000000  0.4667720000000  0.4735020000000 1.0
C      1  0.4691370000000  0.4768790000000  0.5022340000000 1.0
C      1  0.4853470000000  0.4802740000000  0.5317680000000 1.0
C      1  0.5159170000000  0.4732240000000  0.5333310000000 1.0
C      1  0.5301010000000  0.4728380000000  0.5036500000000 1.0
C      1  0.5245180000000  0.4696770000000  0.4698670000000 1.0
C      1  0.5015770000000  0.5935450000000  0.4644930000000 1.0
C      1  0.4751380000000  0.5999740000000  0.4691970000000 1.0
C      1  0.4562170000000  0.6069640000000  0.4936620000000 1.0
C      1  0.4638320000000  0.5940960000000  0.5207650000000 1.0
C      1  0.4949720000000  0.6060050000000  0.5291220000000 1.0
C      1  0.5214120000000  0.5968800000000  0.5185200000000 1.0
C      1  0.5215820000000  0.5968170000000  0.4847520000000 1.0
C      1  0.5875310000000  0.5556870000000  0.4521960000000 1.0
C      1  0.5134550000000  0.5555290000000  0.4120870000000 1.0
C      1  0.4438150000000  0.5888900000000  0.4352670000000 1.0
C      1  0.4099770000000  0.5591950000000  0.5068560000000 1.0
C      1  0.4531740000000  0.5648140000000  0.5573940000000 1.0
C      1  0.5213930000000  0.5728450000000  0.5701510000000 1.0
C      1  0.5804100000000  0.5505440000000  0.5475400000000 1.0
C      1  0.5451110000000  0.5273660000000  0.4597830000000 1.0
C      1  0.4975050000000  0.5308460000000  0.4296060000000 1.0
C      1  0.4573820000000  0.5271070000000  0.4533870000000 1.0
C      1  0.4355930000000  0.5397950000000  0.5009520000000 1.0
C      1  0.4613490000000  0.5346020000000  0.5535940000000 1.0
C      1  0.5118440000000  0.5457010000000  0.5742030000000 1.0
C      1  0.5673750000000  0.5318960000000  0.5295240000000 1.0
C      1  0.4877680000000  0.5915620000000  0.6008550000000 1.0
C      1  0.5540870000000  0.5544070000000  0.5835300000000 1.0
C      1  0.5994090000000  0.5445880000000  0.4920680000000 1.0
C      1  0.5601020000000  0.5429690000000  0.4261880000000 1.0
C      1  0.4616680000000  0.5459860000000  0.3991980000000 1.0
C      1  0.4044580000000  0.5475180000000  0.4571980000000 1.0
C      1  0.4039060000000  0.5565500000000  0.5573180000000 1.0
C      1  0.5913690000000  0.4392190000000  0.4676170000000 1.0
C      1  0.5422520000000  0.4360880000000  0.4107090000000 1.0
C      1  0.4550670000000  0.4459170000000  0.4107740000000 1.0
C      1  0.4073080000000  0.4407990000000  0.4887640000000 1.0
C      1  0.4296430000000  0.4368730000000  0.5628310000000 1.0
C      1  0.4955160000000  0.4323800000000  0.5940530000000 1.0
C      1  0.5622420000000  0.4419890000000  0.5596570000000 1.0
C      1  0.5082090000000  0.5737870000000  0.4403520000000 1.0
C      1  0.4422130000000  0.5904760000000  0.4674270000000 1.0
C      1  0.4367900000000  0.5735260000000  0.5222460000000 1.0
C      1  0.4805210000000  0.5813380000000  0.5475340000000 1.0
C      1  0.5353250000000  0.5767280000000  0.5411070000000 1.0
C      1  0.5434120000000  0.5768950000000  0.5020050000000 1.0
C      1  0.5559500000000  0.5657900000000  0.4612390000000 1.0
C      1  0.4846830000000  0.4126370000000  0.5500340000000 1.0
C      1  0.5240980000000  0.4132680000000  0.5436990000000 1.0
C      1  0.5510430000000  0.4115640000000  0.4959050000000 1.0
C      1  0.5363990000000  0.4121300000000  0.4575930000000 1.0
C      1  0.4825780000000  0.4079320000000  0.4442210000000 1.0
C      1  0.4517110000000  0.4081770000000  0.4695910000000 1.0
C      1  0.4512440000000  0.4187360000000  0.5186910000000 1.0
C      1  0.5025050000000  0.5289270000000  0.5461310000000 1.0
C      1  0.5296050000000  0.5194100000000  0.5283280000000 1.0
C      1  0.5352140000000  0.5047480000000  0.4981590000000 1.0
C      1  0.5068000000000  0.5041480000000  0.4794890000000 1.0
C      1  0.4876000000000  0.5224230000000  0.4656220000000 1.0
C      1  0.4611790000000  0.5096750000000  0.4979270000000 1.0
C      1  0.4763320000000  0.5239240000000  0.5249990000000 1.0
C      1  0.4832330000000  0.5758030000000  0.5809780000000 1.0
C      1  0.5617340000000  0.5665960000000  0.5600050000000 1.0
C      1  0.5706680000000  0.5631230000000  0.4899650000000 1.0
C      1  0.5695670000000  0.5722070000000  0.4307510000000 1.0
C      1  0.4526990000000  0.5690890000000  0.4200670000000 1.0
C      1  0.4227360000000  0.5687150000000  0.4766760000000 1.0
C      1  0.4250150000000  0.5730420000000  0.5523450000000 1.0
C      1  0.4656610000000  0.4874540000000  0.5561720000000 1.0
C      1  0.5245380000000  0.4805240000000  0.5634780000000 1.0
C      1  0.5657370000000  0.5006130000000  0.5269970000000 1.0
C      1  0.5653420000000  0.4818000000000  0.4646600000000 1.0
C      1  0.5212920000000  0.4948920000000  0.4248080000000 1.0
C      1  0.4579720000000  0.4942340000000  0.4447120000000 1.0
C      1  0.4304950000000  0.4853300000000  0.5062840000000 1.0
C      1  0.5256930000000  0.5619240000000  0.4657760000000 1.0
C      1  0.4950620000000  0.5512100000000  0.4759510000000 1.0
C      1  0.4673800000000  0.5425160000000  0.4913470000000 1.0
C      1  0.4658260000000  0.5559630000000  0.5205200000000 1.0
C      1  0.5052680000000  0.5611600000000  0.5356210000000 1.0
C      1  0.5450160000000  0.5471390000000  0.5160800000000 1.0
C      1  0.5299720000000  0.5371060000000  0.4886270000000 1.0
C      1  0.5034860000000  0.5474660000000  0.5075780000000 1.0
C      1  0.4973120000000  0.4955850000000  0.5061380000000 1.0
END
