TITL C-3289329-2751-658 0.000715133456400045 125000 -361.569890494972 0 0 66 (C1) n - 1
REM
REM in /nfs/bkarasulu/CARBON/AIRSS/Generating-Clusters/AIREBO/with-SteepDescent/Higher-Symm/SD-CG/HFTN-CG
REM
REM
REM
REM
REM
REM ./C.cell (b20cbc046b6831c77cfcea5457e17084)
REM
REM compiler GCC version 9.2.1 20190827 (Red Hat 9.2.1-1)
REM options -cpp -mtune=generic -march=x86-64 -g -O0 -fpre-include=/usr/include/finclude/math-vector-fortran.h
REM seed -1901902017 -1356191727 296097353 361313756 649962647 1337560023 1297872899 1672301796 1196233372 -1602030262 -2060679718 821771268 -1148656537 1047868716 1176384306 -477737250 610387509 -787697727 -771273450 -1558132360 -777645682 -1536911097 87546082 -2082457153 1871816828 1266904825 117739590 -1275120265 1700032220 1980669780 -307790143 -751874226 -1844389951
REM
CELL 1.54180   50.00000   50.00000   50.00000   90.00000   90.00000   90.00000
LATT -1
SFAC C  
C      1  0.5020230000000  0.5142770000000  0.5609040000000 1.0
C      1  0.5037710000000  0.4849320000000  0.4522760000000 1.0
C      1  0.5002320000000  0.5065330000000  0.4297640000000 1.0
C      1  0.4977120000000  0.4858700000000  0.5487040000000 1.0
C      1  0.4735960000000  0.5060600000000  0.4203890000000 1.0
C      1  0.4715470000000  0.4726300000000  0.5603450000000 1.0
C      1  0.5306370000000  0.5170040000000  0.5723100000000 1.0
C      1  0.5290430000000  0.4762350000000  0.4342420000000 1.0
C      1  0.5616940000000  0.4873050000000  0.4671960000000 1.0
C      1  0.5601770000000  0.5056660000000  0.5359430000000 1.0
C      1  0.4348810000000  0.4919630000000  0.5379910000000 1.0
C      1  0.4389280000000  0.5172690000000  0.4553290000000 1.0
C      1  0.4984750000000  0.4401370000000  0.4613990000000 1.0
C      1  0.4818470000000  0.5481820000000  0.5560780000000 1.0
C      1  0.4985080000000  0.4470920000000  0.5395010000000 1.0
C      1  0.5109860000000  0.5471720000000  0.4503590000000 1.0
C      1  0.5192800000000  0.4623810000000  0.5548400000000 1.0
C      1  0.5190410000000  0.5276430000000  0.4316820000000 1.0
C      1  0.4841720000000  0.4621440000000  0.4526520000000 1.0
C      1  0.4747550000000  0.5269860000000  0.5762140000000 1.0
C      1  0.5434610000000  0.4715430000000  0.5652840000000 1.0
C      1  0.5466000000000  0.5208950000000  0.4340280000000 1.0
C      1  0.4582490000000  0.4718970000000  0.4529760000000 1.0
C      1  0.4523680000000  0.5106560000000  0.5802390000000 1.0
C      1  0.4304340000000  0.5343500000000  0.5024080000000 1.0
C      1  0.4359820000000  0.4537070000000  0.5073790000000 1.0
C      1  0.5638880000000  0.5391280000000  0.4884090000000 1.0
C      1  0.5808130000000  0.4681890000000  0.5079560000000 1.0
C      1  0.4379020000000  0.5180460000000  0.5228650000000 1.0
C      1  0.4488930000000  0.4917750000000  0.4777990000000 1.0
C      1  0.5569990000000  0.5209710000000  0.4660940000000 1.0
C      1  0.5584580000000  0.4845990000000  0.5092990000000 1.0
C      1  0.5066670000000  0.5731710000000  0.4432030000000 1.0
C      1  0.4920990000000  0.4207710000000  0.5431080000000 1.0
C      1  0.4767270000000  0.5747720000000  0.5560890000000 1.0
C      1  0.4947580000000  0.4138010000000  0.4551580000000 1.0
C      1  0.4528210000000  0.4830790000000  0.5105000000000 1.0
C      1  0.4522470000000  0.5329960000000  0.4796440000000 1.0
C      1  0.5355630000000  0.4762310000000  0.4855630000000 1.0
C      1  0.5439500000000  0.5336260000000  0.5156000000000 1.0
C      1  0.5001750000000  0.4947120000000  0.4838640000000 1.0
C      1  0.4911180000000  0.5288430000000  0.5321060000000 1.0
C      1  0.5065490000000  0.4861980000000  0.5159270000000 1.0
C      1  0.5068720000000  0.5337170000000  0.4780880000000 1.0
C      1  0.5307680000000  0.5037670000000  0.5139870000000 1.0
C      1  0.5283780000000  0.5076230000000  0.4743720000000 1.0
C      1  0.4743480000000  0.5088370000000  0.4888080000000 1.0
C      1  0.4692000000000  0.5133860000000  0.5197290000000 1.0
C      1  0.4532920000000  0.4978170000000  0.4385120000000 1.0
C      1  0.4485280000000  0.4889150000000  0.5622900000000 1.0
C      1  0.5501800000000  0.4991470000000  0.5615210000000 1.0
C      1  0.5520260000000  0.4918810000000  0.4391960000000 1.0
C      1  0.5290490000000  0.5811140000000  0.4986530000000 1.0
C      1  0.5576340000000  0.4082430000000  0.4966060000000 1.0
C      1  0.4592410000000  0.6015680000000  0.5030360000000 1.0
C      1  0.4726120000000  0.4229690000000  0.4978250000000 1.0
C      1  0.4458460000000  0.4299780000000  0.4978710000000 1.0
C      1  0.4680330000000  0.5780250000000  0.4984390000000 1.0
C      1  0.5404140000000  0.4259670000000  0.4902360000000 1.0
C      1  0.5513470000000  0.5644160000000  0.5032140000000 1.0
C      1  0.5198360000000  0.4483520000000  0.4854150000000 1.0
C      1  0.5104930000000  0.5380610000000  0.5116180000000 1.0
C      1  0.4814340000000  0.4663170000000  0.5180330000000 1.0
C      1  0.4789640000000  0.5485300000000  0.4893920000000 1.0
C      1  0.5055740000000  0.5676100000000  0.4990410000000 1.0
C      1  0.4913420000000  0.4423270000000  0.5005000000000 1.0
END
