TITL C-3289330-4660-710 -0.00180342233763743 125000 -904.528664948637 0 0 161 (C1) n - 1
REM
REM in /nfs/bkarasulu/CARBON/AIRSS/Generating-Clusters/AIREBO/with-SteepDescent/Higher-Symm/SD-CG/HFTN-CG
REM
REM
REM
REM
REM
REM ./C.cell (b20cbc046b6831c77cfcea5457e17084)
REM
REM compiler GCC version 9.2.1 20190827 (Red Hat 9.2.1-1)
REM options -cpp -mtune=generic -march=x86-64 -g -O0 -fpre-include=/usr/include/finclude/math-vector-fortran.h
REM seed 664861764 128510924 1371007275 234211947 -1873788009 728899128 -1842281329 1355938331 -1838584309 680905616 -1671060692 1501124254 2110021367 1191908891 -1920793981 -365323509 283243511 1552313008 -1720194659 410439491 1896085987 1320932137 -1225362046 1372303319 307398149 1452479725 2026581677 -806408407 178729605 -1089119720 410073092 1313723513 2079614716
REM
CELL 1.54180   50.00000   50.00000   50.00000   90.00000   90.00000   90.00000
LATT -1
SFAC C  
C      1  0.4853720000000  0.4628450000000  0.4036480000000 1.0
C      1  0.5082130000000  0.4532560000000  0.4166320000000 1.0
C      1  0.5327140000000  0.4610600000000  0.4060890000000 1.0
C      1  0.5496700000000  0.4765160000000  0.4271710000000 1.0
C      1  0.5505070000000  0.5076610000000  0.4164630000000 1.0
C      1  0.5298660000000  0.5376580000000  0.4143960000000 1.0
C      1  0.5097990000000  0.5540920000000  0.4364050000000 1.0
C      1  0.4838120000000  0.5471570000000  0.4173210000000 1.0
C      1  0.4596860000000  0.5281730000000  0.4254050000000 1.0
C      1  0.4605500000000  0.5037340000000  0.4074640000000 1.0
C      1  0.4673970000000  0.4792500000000  0.4179770000000 1.0
C      1  0.3794620000000  0.5293750000000  0.5166820000000 1.0
C      1  0.3804370000000  0.4577550000000  0.5123810000000 1.0
C      1  0.4183200000000  0.4053150000000  0.5147330000000 1.0
C      1  0.4769020000000  0.3686070000000  0.4942040000000 1.0
C      1  0.5510910000000  0.3802530000000  0.4865860000000 1.0
C      1  0.6047280000000  0.4270210000000  0.4842020000000 1.0
C      1  0.6332270000000  0.4921870000000  0.4861310000000 1.0
C      1  0.6190010000000  0.5638960000000  0.4963610000000 1.0
C      1  0.5751800000000  0.6147000000000  0.4985370000000 1.0
C      1  0.4712600000000  0.6159430000000  0.4986660000000 1.0
C      1  0.4098830000000  0.5871450000000  0.5111990000000 1.0
C      1  0.4286820000000  0.4922290000000  0.4586930000000 1.0
C      1  0.4556300000000  0.4677920000000  0.4422270000000 1.0
C      1  0.4755340000000  0.4471750000000  0.4548210000000 1.0
C      1  0.5134300000000  0.4418090000000  0.4443240000000 1.0
C      1  0.5438440000000  0.4472820000000  0.4435920000000 1.0
C      1  0.5642230000000  0.4886030000000  0.4526470000000 1.0
C      1  0.5595940000000  0.5259390000000  0.4391070000000 1.0
C      1  0.5377810000000  0.5485070000000  0.4517070000000 1.0
C      1  0.4938220000000  0.5696520000000  0.4600620000000 1.0
C      1  0.4540160000000  0.5548120000000  0.4457940000000 1.0
C      1  0.4354880000000  0.5196770000000  0.4462810000000 1.0
C      1  0.5562640000000  0.4833430000000  0.3717290000000 1.0
C      1  0.5588040000000  0.5072800000000  0.3855320000000 1.0
C      1  0.5465390000000  0.5334920000000  0.3862200000000 1.0
C      1  0.5167990000000  0.5447850000000  0.3852220000000 1.0
C      1  0.4893510000000  0.5471860000000  0.3894900000000 1.0
C      1  0.4701540000000  0.5345370000000  0.3730730000000 1.0
C      1  0.4627350000000  0.5081470000000  0.3799390000000 1.0
C      1  0.4683860000000  0.4849450000000  0.3648870000000 1.0
C      1  0.4871030000000  0.4665890000000  0.3754050000000 1.0
C      1  0.5121730000000  0.4598870000000  0.3640290000000 1.0
C      1  0.5356430000000  0.4654420000000  0.3788240000000 1.0
C      1  0.5496500000000  0.4909150000000  0.5590320000000 1.0
C      1  0.5464220000000  0.5242950000000  0.5516340000000 1.0
C      1  0.5287270000000  0.5430580000000  0.5650890000000 1.0
C      1  0.4980960000000  0.5544260000000  0.5547590000000 1.0
C      1  0.4683410000000  0.5471190000000  0.5695190000000 1.0
C      1  0.4537560000000  0.5220010000000  0.5540690000000 1.0
C      1  0.4465610000000  0.4949990000000  0.5709440000000 1.0
C      1  0.4577130000000  0.4665590000000  0.5564730000000 1.0
C      1  0.4822020000000  0.4485620000000  0.5699830000000 1.0
C      1  0.5093400000000  0.4451460000000  0.5613250000000 1.0
C      1  0.5386350000000  0.4642800000000  0.5500960000000 1.0
C      1  0.5334560000000  0.5393710000000  0.4816340000000 1.0
C      1  0.5046110000000  0.5328260000000  0.4867360000000 1.0
C      1  0.4797030000000  0.5489770000000  0.4823730000000 1.0
C      1  0.4580060000000  0.5301080000000  0.4688150000000 1.0
C      1  0.4515900000000  0.5065240000000  0.4877440000000 1.0
C      1  0.4539020000000  0.4763160000000  0.4751000000000 1.0
C      1  0.4771700000000  0.4611460000000  0.4915740000000 1.0
C      1  0.5035770000000  0.4563030000000  0.4719170000000 1.0
C      1  0.5296120000000  0.4672560000000  0.4910450000000 1.0
C      1  0.5466490000000  0.4903450000000  0.4884360000000 1.0
C      1  0.5479920000000  0.5135580000000  0.4676860000000 1.0
C      1  0.5787050000000  0.4437190000000  0.4852120000000 1.0
C      1  0.6033430000000  0.4980240000000  0.4867450000000 1.0
C      1  0.5933880000000  0.5523170000000  0.4919230000000 1.0
C      1  0.5590920000000  0.5929070000000  0.4903540000000 1.0
C      1  0.4759990000000  0.5887710000000  0.4818170000000 1.0
C      1  0.4251960000000  0.5715850000000  0.4869600000000 1.0
C      1  0.4013590000000  0.5257660000000  0.4931280000000 1.0
C      1  0.4015940000000  0.4668330000000  0.4901710000000 1.0
C      1  0.4329100000000  0.4246160000000  0.4916570000000 1.0
C      1  0.4802050000000  0.3965850000000  0.4922580000000 1.0
C      1  0.5364640000000  0.4075760000000  0.4871890000000 1.0
C      1  0.5294510000000  0.5522790000000  0.5112780000000 1.0
C      1  0.4979910000000  0.5560370000000  0.5234010000000 1.0
C      1  0.4669310000000  0.5479930000000  0.5120190000000 1.0
C      1  0.4493070000000  0.5228890000000  0.5239400000000 1.0
C      1  0.4432670000000  0.4906040000000  0.5150430000000 1.0
C      1  0.4568890000000  0.4638930000000  0.5263580000000 1.0
C      1  0.4818560000000  0.4425130000000  0.5175170000000 1.0
C      1  0.5122030000000  0.4406800000000  0.5299340000000 1.0
C      1  0.5393900000000  0.4548960000000  0.5175730000000 1.0
C      1  0.5606430000000  0.5024040000000  0.5106540000000 1.0
C      1  0.5519750000000  0.5301520000000  0.5218180000000 1.0
C      1  0.5585230000000  0.5826130000000  0.5414820000000 1.0
C      1  0.5031000000000  0.6043730000000  0.5331460000000 1.0
C      1  0.4448140000000  0.5904000000000  0.5336870000000 1.0
C      1  0.4071210000000  0.5469190000000  0.5399930000000 1.0
C      1  0.3972430000000  0.4904500000000  0.5406450000000 1.0
C      1  0.4122700000000  0.4389280000000  0.5410790000000 1.0
C      1  0.4622600000000  0.4013040000000  0.5469130000000 1.0
C      1  0.5205170000000  0.3983590000000  0.5412180000000 1.0
C      1  0.5710520000000  0.4258070000000  0.5405490000000 1.0
C      1  0.5979950000000  0.4768090000000  0.5388510000000 1.0
C      1  0.5941650000000  0.5353350000000  0.5437880000000 1.0
C      1  0.4354450000000  0.4138570000000  0.5429040000000 1.0
C      1  0.4941890000000  0.3945140000000  0.5428140000000 1.0
C      1  0.5530420000000  0.4040750000000  0.5386470000000 1.0
C      1  0.5925460000000  0.4506020000000  0.5364300000000 1.0
C      1  0.6036390000000  0.5096730000000  0.5418870000000 1.0
C      1  0.5815710000000  0.5668870000000  0.5452410000000 1.0
C      1  0.5302710000000  0.6007940000000  0.5360040000000 1.0
C      1  0.4693340000000  0.6084530000000  0.5303760000000 1.0
C      1  0.4153780000000  0.5742710000000  0.5381550000000 1.0
C      1  0.3894520000000  0.5178600000000  0.5428710000000 1.0
C      1  0.3933150000000  0.4589080000000  0.5387490000000 1.0
C      1  0.5641610000000  0.4912780000000  0.5903990000000 1.0
C      1  0.5722690000000  0.5140210000000  0.5695500000000 1.0
C      1  0.5353550000000  0.5510850000000  0.5965290000000 1.0
C      1  0.5152760000000  0.5706030000000  0.5792470000000 1.0
C      1  0.4796740000000  0.5729720000000  0.5849140000000 1.0
C      1  0.4389290000000  0.5431860000000  0.5842900000000 1.0
C      1  0.4303980000000  0.5193240000000  0.5862780000000 1.0
C      1  0.4405880000000  0.4671750000000  0.5874250000000 1.0
C      1  0.4631710000000  0.4494550000000  0.5921290000000 1.0
C      1  0.5272170000000  0.4318980000000  0.5851330000000 1.0
C      1  0.5477040000000  0.4448440000000  0.5723060000000 1.0
C      1  0.4384230000000  0.4390910000000  0.5203120000000 1.0
C      1  0.4783760000000  0.4110350000000  0.5190340000000 1.0
C      1  0.5309320000000  0.4159700000000  0.5159060000000 1.0
C      1  0.5686700000000  0.4447550000000  0.5138470000000 1.0
C      1  0.5899810000000  0.4961870000000  0.5140400000000 1.0
C      1  0.5791040000000  0.5466440000000  0.5179910000000 1.0
C      1  0.5436550000000  0.5799480000000  0.5133430000000 1.0
C      1  0.4893040000000  0.5835120000000  0.5118350000000 1.0
C      1  0.4455430000000  0.5694450000000  0.5124060000000 1.0
C      1  0.4193050000000  0.5289160000000  0.5188180000000 1.0
C      1  0.4136780000000  0.4843000000000  0.5155920000000 1.0
C      1  0.5564310000000  0.4286170000000  0.4694470000000 1.0
C      1  0.5848860000000  0.4723320000000  0.4742420000000 1.0
C      1  0.5960710000000  0.5260350000000  0.4752970000000 1.0
C      1  0.5751970000000  0.5715890000000  0.4760220000000 1.0
C      1  0.5348320000000  0.6022050000000  0.4728880000000 1.0
C      1  0.4495640000000  0.5789450000000  0.4685270000000 1.0
C      1  0.4084090000000  0.5488660000000  0.4751120000000 1.0
C      1  0.4030180000000  0.4990360000000  0.4799920000000 1.0
C      1  0.4180490000000  0.4462250000000  0.4754240000000 1.0
C      1  0.4568690000000  0.4108090000000  0.4778850000000 1.0
C      1  0.5071480000000  0.4043480000000  0.4766190000000 1.0
C      1  0.5891690000000  0.5283380000000  0.4486450000000 1.0
C      1  0.5654760000000  0.5640510000000  0.4514110000000 1.0
C      1  0.5122050000000  0.5953500000000  0.4662080000000 1.0
C      1  0.4418930000000  0.5835610000000  0.4372380000000 1.0
C      1  0.4132340000000  0.5411560000000  0.4490130000000 1.0
C      1  0.3988270000000  0.4803460000000  0.4526350000000 1.0
C      1  0.4279790000000  0.4530670000000  0.4507670000000 1.0
C      1  0.4657160000000  0.4222610000000  0.4552390000000 1.0
C      1  0.5048410000000  0.4126450000000  0.4502950000000 1.0
C      1  0.5632190000000  0.4218750000000  0.4383350000000 1.0
C      1  0.5966470000000  0.4890860000000  0.4483640000000 1.0
C      1  0.5006930000000  0.5063660000000  0.5045760000000 1.0
C      1  0.5032560000000  0.4987000000000  0.6108740000000 1.0
C      1  0.4988080000000  0.5025560000000  0.5311800000000 1.0
C      1  0.4995510000000  0.4989890000000  0.5578610000000 1.0
C      1  0.5001070000000  0.4999060000000  0.4448760000000 1.0
C      1  0.4996440000000  0.5067540000000  0.4705400000000 1.0
C      1  0.5002330000000  0.4993340000000  0.5848370000000 1.0
END
