TITL C-3289330-4660-123 -0.00483525288873932 125000 -739.684423349 0 0 138 (C1) n - 1
REM
REM in /nfs/bkarasulu/CARBON/AIRSS/Generating-Clusters/AIREBO/with-SteepDescent/Higher-Symm/SD-CG/HFTN-CG
REM
REM
REM
REM
REM
REM ./C.cell (b20cbc046b6831c77cfcea5457e17084)
REM
REM compiler GCC version 9.2.1 20190827 (Red Hat 9.2.1-1)
REM options -cpp -mtune=generic -march=x86-64 -g -O0 -fpre-include=/usr/include/finclude/math-vector-fortran.h
REM seed -643248009 1055754595 2066617057 -1783398992 -410297429 -608429582 214121520 2071763847 -88708947 167148272 2073834311 1633040386 -82142434 1600996280 -1720271666 -942011537 -714479727 -789954072 -1260404367 247993605 1782462556 -1017046371 -527524979 -1234083886 1632758118 -623119657 -16880726 650898531 816374643 -428670519 -933143276 1074002248 -463162411
REM
CELL 1.54180   50.00000   50.00000   50.00000   90.00000   90.00000   90.00000
LATT -1
SFAC C  
C      1  0.4803210000000  0.5172850000000  0.5244520000000 1.0
C      1  0.4709440000000  0.4840450000000  0.4854510000000 1.0
C      1  0.4727900000000  0.5155910000000  0.4728280000000 1.0
C      1  0.4789270000000  0.4841650000000  0.5159790000000 1.0
C      1  0.4573380000000  0.5950730000000  0.5154250000000 1.0
C      1  0.4791180000000  0.4048830000000  0.4823570000000 1.0
C      1  0.4640400000000  0.5998220000000  0.4825000000000 1.0
C      1  0.4710560000000  0.3990670000000  0.5130720000000 1.0
C      1  0.5295330000000  0.4266340000000  0.4614760000000 1.0
C      1  0.5263400000000  0.5628330000000  0.5477880000000 1.0
C      1  0.5155150000000  0.4344180000000  0.5395780000000 1.0
C      1  0.5123520000000  0.5690080000000  0.4551890000000 1.0
C      1  0.5552550000000  0.5397230000000  0.4338190000000 1.0
C      1  0.5573480000000  0.4519010000000  0.5688560000000 1.0
C      1  0.5548180000000  0.5597930000000  0.5643190000000 1.0
C      1  0.5505890000000  0.4368620000000  0.4422300000000 1.0
C      1  0.4221350000000  0.4926170000000  0.4279590000000 1.0
C      1  0.4326320000000  0.5092880000000  0.5609890000000 1.0
C      1  0.4319320000000  0.4847000000000  0.5552290000000 1.0
C      1  0.4191470000000  0.5159980000000  0.4378880000000 1.0
C      1  0.4598010000000  0.4752840000000  0.5426630000000 1.0
C      1  0.4453430000000  0.5243480000000  0.4547600000000 1.0
C      1  0.4480200000000  0.4808000000000  0.4395800000000 1.0
C      1  0.4567870000000  0.5239520000000  0.5474170000000 1.0
C      1  0.4791190000000  0.5571730000000  0.4190700000000 1.0
C      1  0.4870940000000  0.4367520000000  0.5702280000000 1.0
C      1  0.4833130000000  0.5592900000000  0.5748830000000 1.0
C      1  0.4897320000000  0.4462240000000  0.4356740000000 1.0
C      1  0.4617020000000  0.4530220000000  0.4291600000000 1.0
C      1  0.4516230000000  0.5541580000000  0.5792400000000 1.0
C      1  0.4567950000000  0.4452830000000  0.5745480000000 1.0
C      1  0.4462980000000  0.5620350000000  0.4267150000000 1.0
C      1  0.5913920000000  0.5204250000000  0.5511250000000 1.0
C      1  0.5841470000000  0.4779740000000  0.4517690000000 1.0
C      1  0.5885180000000  0.5097460000000  0.4607180000000 1.0
C      1  0.5932500000000  0.4864850000000  0.5475300000000 1.0
C      1  0.4561690000000  0.5834920000000  0.5429630000000 1.0
C      1  0.4660790000000  0.4314860000000  0.4656630000000 1.0
C      1  0.4620750000000  0.5731230000000  0.4640660000000 1.0
C      1  0.4606130000000  0.4274910000000  0.5285360000000 1.0
C      1  0.5518780000000  0.5106390000000  0.4766500000000 1.0
C      1  0.5590360000000  0.4800880000000  0.5253780000000 1.0
C      1  0.5516330000000  0.5174750000000  0.5358480000000 1.0
C      1  0.5572200000000  0.4823760000000  0.4914770000000 1.0
C      1  0.5540910000000  0.4821870000000  0.5543870000000 1.0
C      1  0.5490540000000  0.5093640000000  0.4475890000000 1.0
C      1  0.5324200000000  0.4837200000000  0.4363220000000 1.0
C      1  0.5422670000000  0.5105930000000  0.5663890000000 1.0
C      1  0.4150190000000  0.4905240000000  0.4860380000000 1.0
C      1  0.4125850000000  0.5180540000000  0.5180220000000 1.0
C      1  0.4129790000000  0.4840160000000  0.5175290000000 1.0
C      1  0.4028750000000  0.5222930000000  0.4852440000000 1.0
C      1  0.5133850000000  0.5992480000000  0.5174750000000 1.0
C      1  0.5291330000000  0.3988000000000  0.4900260000000 1.0
C      1  0.5229800000000  0.5827920000000  0.4931390000000 1.0
C      1  0.5167000000000  0.3930240000000  0.5162740000000 1.0
C      1  0.5065020000000  0.5863250000000  0.5430250000000 1.0
C      1  0.5120240000000  0.3983470000000  0.4606470000000 1.0
C      1  0.5041850000000  0.5971050000000  0.4378460000000 1.0
C      1  0.4981180000000  0.3919250000000  0.5415560000000 1.0
C      1  0.5897810000000  0.4763010000000  0.4834850000000 1.0
C      1  0.5802900000000  0.5135940000000  0.5215260000000 1.0
C      1  0.5900850000000  0.4820360000000  0.5139710000000 1.0
C      1  0.5811020000000  0.5142170000000  0.4909820000000 1.0
C      1  0.5433310000000  0.4290650000000  0.5257320000000 1.0
C      1  0.5364600000000  0.5596740000000  0.4772760000000 1.0
C      1  0.5431750000000  0.4299550000000  0.4924420000000 1.0
C      1  0.5427530000000  0.5598380000000  0.5206120000000 1.0
C      1  0.4757230000000  0.4923100000000  0.4231740000000 1.0
C      1  0.4861930000000  0.5191180000000  0.5638200000000 1.0
C      1  0.4833250000000  0.4873870000000  0.5614960000000 1.0
C      1  0.4709520000000  0.5209030000000  0.4333450000000 1.0
C      1  0.5736660000000  0.4412970000000  0.5217230000000 1.0
C      1  0.5673080000000  0.5540900000000  0.4811280000000 1.0
C      1  0.5759670000000  0.4357170000000  0.4882590000000 1.0
C      1  0.5710320000000  0.5606400000000  0.5103970000000 1.0
C      1  0.5367340000000  0.4602790000000  0.5176530000000 1.0
C      1  0.5318420000000  0.5306240000000  0.4864880000000 1.0
C      1  0.5335110000000  0.4616670000000  0.4846260000000 1.0
C      1  0.5315670000000  0.5305380000000  0.5187170000000 1.0
C      1  0.4783870000000  0.5823710000000  0.4389540000000 1.0
C      1  0.4823090000000  0.4128230000000  0.5502420000000 1.0
C      1  0.4819750000000  0.5827140000000  0.5546180000000 1.0
C      1  0.4900310000000  0.4167310000000  0.4465300000000 1.0
C      1  0.4885970000000  0.5453190000000  0.4495140000000 1.0
C      1  0.4967030000000  0.4612380000000  0.5486830000000 1.0
C      1  0.4965580000000  0.5464000000000  0.5463370000000 1.0
C      1  0.5075280000000  0.4702070000000  0.4522120000000 1.0
C      1  0.5091420000000  0.4572950000000  0.5862610000000 1.0
C      1  0.5081380000000  0.5415690000000  0.4149110000000 1.0
C      1  0.5116400000000  0.4573000000000  0.4146980000000 1.0
C      1  0.5093160000000  0.5464250000000  0.5861330000000 1.0
C      1  0.4096710000000  0.4551410000000  0.5357350000000 1.0
C      1  0.4189550000000  0.5491370000000  0.4712410000000 1.0
C      1  0.4230400000000  0.4635740000000  0.4659760000000 1.0
C      1  0.4236180000000  0.5441650000000  0.5379860000000 1.0
C      1  0.5759860000000  0.5487280000000  0.5401130000000 1.0
C      1  0.5774730000000  0.4458950000000  0.4609880000000 1.0
C      1  0.5755730000000  0.5375780000000  0.4590390000000 1.0
C      1  0.5818670000000  0.4547920000000  0.5459890000000 1.0
C      1  0.4586930000000  0.4733770000000  0.4020920000000 1.0
C      1  0.4625970000000  0.5275370000000  0.5868190000000 1.0
C      1  0.4612580000000  0.4727120000000  0.5824220000000 1.0
C      1  0.4467030000000  0.5345680000000  0.4161320000000 1.0
C      1  0.4387480000000  0.4637590000000  0.5218540000000 1.0
C      1  0.4366590000000  0.5247480000000  0.4869830000000 1.0
C      1  0.4445380000000  0.4876210000000  0.4705730000000 1.0
C      1  0.4439480000000  0.5298780000000  0.5164970000000 1.0
C      1  0.4339850000000  0.5651390000000  0.4538270000000 1.0
C      1  0.4384520000000  0.4419670000000  0.5481800000000 1.0
C      1  0.4384770000000  0.5633810000000  0.5544240000000 1.0
C      1  0.4376400000000  0.4425070000000  0.4507600000000 1.0
C      1  0.5286480000000  0.5556470000000  0.4301710000000 1.0
C      1  0.5274500000000  0.4405100000000  0.5684900000000 1.0
C      1  0.5319710000000  0.5623050000000  0.5873510000000 1.0
C      1  0.5354910000000  0.4433920000000  0.4139820000000 1.0
C      1  0.5143080000000  0.5150810000000  0.5825190000000 1.0
C      1  0.5049320000000  0.4891190000000  0.4171160000000 1.0
C      1  0.5176240000000  0.5160260000000  0.4071480000000 1.0
C      1  0.5209840000000  0.4829190000000  0.5913280000000 1.0
C      1  0.4825880000000  0.4507310000000  0.5209830000000 1.0
C      1  0.4772980000000  0.5481740000000  0.4814560000000 1.0
C      1  0.4845370000000  0.4580460000000  0.4734580000000 1.0
C      1  0.4835390000000  0.5496710000000  0.5148780000000 1.0
C      1  0.4863630000000  0.5803800000000  0.5090290000000 1.0
C      1  0.5025590000000  0.4304710000000  0.4818780000000 1.0
C      1  0.4958030000000  0.5887450000000  0.4775610000000 1.0
C      1  0.4973080000000  0.4208680000000  0.5140870000000 1.0
C      1  0.5501820000000  0.4783700000000  0.5882350000000 1.0
C      1  0.5457500000000  0.5144930000000  0.4140540000000 1.0
C      1  0.5583910000000  0.4680700000000  0.4353510000000 1.0
C      1  0.5667120000000  0.5301450000000  0.5704090000000 1.0
C      1  0.5124540000000  0.4789630000000  0.5136730000000 1.0
C      1  0.5038280000000  0.5166550000000  0.4783400000000 1.0
C      1  0.5115530000000  0.4863310000000  0.4805780000000 1.0
C      1  0.5077810000000  0.5113420000000  0.5113730000000 1.0
C      1  0.4332760000000  0.6031840000000  0.4926450000000 1.0
C      1  0.4524460000000  0.4233760000000  0.4957750000000 1.0
END
