TITL C-3289329-2751-80 0.000769717015493831 125000 -362.167015408685 0 0 69 (C1) n - 1
REM
REM in /nfs/bkarasulu/CARBON/AIRSS/Generating-Clusters/AIREBO/with-SteepDescent/Higher-Symm/SD-CG/HFTN-CG
REM
REM
REM
REM
REM
REM ./C.cell (b20cbc046b6831c77cfcea5457e17084)
REM
REM compiler GCC version 9.2.1 20190827 (Red Hat 9.2.1-1)
REM options -cpp -mtune=generic -march=x86-64 -g -O0 -fpre-include=/usr/include/finclude/math-vector-fortran.h
REM seed 1190277084 -148846668 212472896 -548035400 1732666743 37885255 -78333879 -655699419 256481122 1042421779 -278028281 -496023568 -1271416122 -1026138915 -722262289 1822698942 -1950736095 -1790700629 332144681 -1411566265 -187173715 -1416142154 -1274165407 -761503049 119944822 160556238 622206202 233424331 499290661 -1453169770 -1890892121 -1715923943 1095912987
REM
CELL 1.54180   50.00000   50.00000   50.00000   90.00000   90.00000   90.00000
LATT -1
SFAC C  
C      1  0.4673310000000  0.4829350000000  0.4338170000000 1.0
C      1  0.5390080000000  0.5260390000000  0.4329130000000 1.0
C      1  0.4676150000000  0.4867910000000  0.5713150000000 1.0
C      1  0.5421530000000  0.5002860000000  0.5775120000000 1.0
C      1  0.5411230000000  0.4989750000000  0.4235120000000 1.0
C      1  0.4660990000000  0.5109710000000  0.4320000000000 1.0
C      1  0.5408360000000  0.4735900000000  0.5673170000000 1.0
C      1  0.4712790000000  0.5153450000000  0.5687590000000 1.0
C      1  0.4541710000000  0.4470900000000  0.4795070000000 1.0
C      1  0.5414650000000  0.5686420000000  0.4771490000000 1.0
C      1  0.4462450000000  0.4451490000000  0.5190190000000 1.0
C      1  0.5460570000000  0.5580260000000  0.5031040000000 1.0
C      1  0.5468080000000  0.4413330000000  0.4980900000000 1.0
C      1  0.4441960000000  0.5577920000000  0.4799940000000 1.0
C      1  0.5422220000000  0.4300830000000  0.5236870000000 1.0
C      1  0.4519740000000  0.5538150000000  0.5190160000000 1.0
C      1  0.5467960000000  0.4859640000000  0.4729650000000 1.0
C      1  0.4537140000000  0.5169350000000  0.4711760000000 1.0
C      1  0.5485630000000  0.4827610000000  0.5270700000000 1.0
C      1  0.4557920000000  0.5143440000000  0.5227320000000 1.0
C      1  0.4534950000000  0.4861090000000  0.4711940000000 1.0
C      1  0.5485860000000  0.5161730000000  0.4755390000000 1.0
C      1  0.4546490000000  0.4841550000000  0.5242940000000 1.0
C      1  0.5480220000000  0.5130740000000  0.5292410000000 1.0
C      1  0.4406700000000  0.5261940000000  0.4423120000000 1.0
C      1  0.5445130000000  0.4783110000000  0.4409270000000 1.0
C      1  0.4517800000000  0.5270950000000  0.5505580000000 1.0
C      1  0.5636550000000  0.4663250000000  0.5510820000000 1.0
C      1  0.5602600000000  0.5321100000000  0.4508420000000 1.0
C      1  0.4422530000000  0.4712030000000  0.4435530000000 1.0
C      1  0.5432950000000  0.5211800000000  0.5602950000000 1.0
C      1  0.4457500000000  0.4770210000000  0.5536420000000 1.0
C      1  0.4854510000000  0.4725100000000  0.5252120000000 1.0
C      1  0.5199010000000  0.5246110000000  0.5146310000000 1.0
C      1  0.4842120000000  0.4834040000000  0.4768070000000 1.0
C      1  0.5185530000000  0.5249300000000  0.4832060000000 1.0
C      1  0.5186940000000  0.4723970000000  0.5180310000000 1.0
C      1  0.4865330000000  0.5216770000000  0.5128080000000 1.0
C      1  0.5169400000000  0.4741720000000  0.4841920000000 1.0
C      1  0.4848650000000  0.5274350000000  0.4793370000000 1.0
C      1  0.4913230000000  0.5300980000000  0.5455680000000 1.0
C      1  0.5147070000000  0.4665120000000  0.5514320000000 1.0
C      1  0.4785620000000  0.5372130000000  0.4473870000000 1.0
C      1  0.5250440000000  0.4573630000000  0.4557220000000 1.0
C      1  0.5235520000000  0.5408640000000  0.5442750000000 1.0
C      1  0.4816500000000  0.4597820000000  0.5557310000000 1.0
C      1  0.5119670000000  0.5322290000000  0.4504900000000 1.0
C      1  0.4930880000000  0.4671080000000  0.4493930000000 1.0
C      1  0.5164740000000  0.5624620000000  0.4654020000000 1.0
C      1  0.4800300000000  0.4440860000000  0.4707660000000 1.0
C      1  0.5252610000000  0.5634670000000  0.5214820000000 1.0
C      1  0.4688720000000  0.4375320000000  0.5333420000000 1.0
C      1  0.4686840000000  0.5619260000000  0.4682510000000 1.0
C      1  0.5264130000000  0.4357980000000  0.4794110000000 1.0
C      1  0.4777320000000  0.5568220000000  0.5294870000000 1.0
C      1  0.5174040000000  0.4365080000000  0.5356440000000 1.0
C      1  0.5575350000000  0.4699120000000  0.4987480000000 1.0
C      1  0.4386500000000  0.5299550000000  0.4987390000000 1.0
C      1  0.5578120000000  0.5296920000000  0.5030020000000 1.0
C      1  0.4393610000000  0.4712590000000  0.4983210000000 1.0
C      1  0.4980450000000  0.5688920000000  0.5117870000000 1.0
C      1  0.4933760000000  0.5695580000000  0.4818980000000 1.0
C      1  0.4941030000000  0.4307790000000  0.5188330000000 1.0
C      1  0.4990580000000  0.4318960000000  0.4889270000000 1.0
C      1  0.5739120000000  0.4997650000000  0.5015330000000 1.0
C      1  0.4218050000000  0.5003980000000  0.4988190000000 1.0
C      1  0.5048920000000  0.4990040000000  0.4489300000000 1.0
C      1  0.5035550000000  0.4985420000000  0.5489030000000 1.0
C      1  0.4878510000000  0.4929200000000  0.5038750000000 1.0
END
