TITL C-3289329-2751-349 0.000171439992288507 125000 -291.036861951549 0 0 56 (C1) n - 1
REM
REM in /nfs/bkarasulu/CARBON/AIRSS/Generating-Clusters/AIREBO/with-SteepDescent/Higher-Symm/SD-CG/HFTN-CG
REM
REM
REM
REM
REM
REM ./C.cell (b20cbc046b6831c77cfcea5457e17084)
REM
REM compiler GCC version 9.2.1 20190827 (Red Hat 9.2.1-1)
REM options -cpp -mtune=generic -march=x86-64 -g -O0 -fpre-include=/usr/include/finclude/math-vector-fortran.h
REM seed 231401336 876606752 172913903 -1688557083 -1831506609 -60992235 819609697 -559025147 1263967052 1655627382 -837790840 -81034508 1809582034 1463765797 295422431 805259906 -1419737045 1305946985 -1474646198 -1745439727 1676138911 -970318832 -1687318308 -2122799116 -212227237 163423633 722715188 1871334372 -1909762895 2130638546 1591596024 -701868087 158521924
REM
CELL 1.54180   50.00000   50.00000   50.00000   90.00000   90.00000   90.00000
LATT -1
SFAC C  
C      1  0.4781750000000  0.4305570000000  0.5083040000000 1.0
C      1  0.5010490000000  0.4253300000000  0.4657050000000 1.0
C      1  0.5193290000000  0.4290430000000  0.5109940000000 1.0
C      1  0.4754940000000  0.5676490000000  0.5137620000000 1.0
C      1  0.4997400000000  0.5663820000000  0.4714340000000 1.0
C      1  0.5240050000000  0.5668710000000  0.5135460000000 1.0
C      1  0.5040190000000  0.5123290000000  0.5671380000000 1.0
C      1  0.4423630000000  0.5103330000000  0.4690470000000 1.0
C      1  0.5541540000000  0.5105750000000  0.4614020000000 1.0
C      1  0.5055960000000  0.4804960000000  0.5735920000000 1.0
C      1  0.4377010000000  0.4789100000000  0.4666290000000 1.0
C      1  0.5572430000000  0.4779400000000  0.4567280000000 1.0
C      1  0.5684430000000  0.5307930000000  0.5241540000000 1.0
C      1  0.4447230000000  0.5302440000000  0.5481150000000 1.0
C      1  0.4886960000000  0.5302520000000  0.4291620000000 1.0
C      1  0.5635250000000  0.4700610000000  0.5347150000000 1.0
C      1  0.4396160000000  0.4693770000000  0.5397600000000 1.0
C      1  0.4965910000000  0.4692700000000  0.4299800000000 1.0
C      1  0.4895690000000  0.4729740000000  0.5265730000000 1.0
C      1  0.4843910000000  0.4725290000000  0.4804690000000 1.0
C      1  0.5270550000000  0.4722680000000  0.4982140000000 1.0
C      1  0.4918360000000  0.5253030000000  0.5234320000000 1.0
C      1  0.4826570000000  0.5250480000000  0.4820500000000 1.0
C      1  0.5230210000000  0.5249170000000  0.4966550000000 1.0
C      1  0.5484300000000  0.4478620000000  0.4689890000000 1.0
C      1  0.4980990000000  0.4506210000000  0.5605400000000 1.0
C      1  0.4535430000000  0.4503630000000  0.4671590000000 1.0
C      1  0.5503840000000  0.5423000000000  0.4667360000000 1.0
C      1  0.5021690000000  0.5436710000000  0.5597830000000 1.0
C      1  0.4479340000000  0.5420050000000  0.4717450000000 1.0
C      1  0.4625690000000  0.5158270000000  0.5288980000000 1.0
C      1  0.4944400000000  0.5157890000000  0.4547570000000 1.0
C      1  0.5429370000000  0.5161170000000  0.5190700000000 1.0
C      1  0.4610190000000  0.4840430000000  0.5240500000000 1.0
C      1  0.4994140000000  0.4842750000000  0.4561480000000 1.0
C      1  0.5393020000000  0.4845210000000  0.5235640000000 1.0
C      1  0.5254480000000  0.4334320000000  0.4801720000000 1.0
C      1  0.4973880000000  0.4350400000000  0.5362760000000 1.0
C      1  0.4753300000000  0.4337350000000  0.4775790000000 1.0
C      1  0.5319070000000  0.5604720000000  0.4807690000000 1.0
C      1  0.4996770000000  0.5620440000000  0.5370460000000 1.0
C      1  0.4671780000000  0.5618600000000  0.4812840000000 1.0
C      1  0.4583750000000  0.4816220000000  0.4914410000000 1.0
C      1  0.5282730000000  0.4820920000000  0.4707750000000 1.0
C      1  0.5125090000000  0.4828140000000  0.5420330000000 1.0
C      1  0.4591710000000  0.5137020000000  0.4975130000000 1.0
C      1  0.5227310000000  0.5136840000000  0.4695600000000 1.0
C      1  0.5163680000000  0.5144570000000  0.5366000000000 1.0
C      1  0.4308540000000  0.5414880000000  0.5663520000000 1.0
C      1  0.4815160000000  0.5415080000000  0.4074090000000 1.0
C      1  0.5911420000000  0.5422410000000  0.5264140000000 1.0
C      1  0.4227980000000  0.4577180000000  0.5550060000000 1.0
C      1  0.4918160000000  0.4572480000000  0.4079810000000 1.0
C      1  0.5850720000000  0.4584970000000  0.5420090000000 1.0
C      1  0.5001880000000  0.4557810000000  0.5023220000000 1.0
C      1  0.4993750000000  0.5477980000000  0.4999090000000 1.0
END
