TITL C-3289324-3781-559 2080.05387799924 125000 -546.284381740912 0 0 100 (C1) n - 1
REM
REM in /nfs/bkarasulu/CARBON/AIRSS/Generating-Clusters/AIREBO/with-SteepDescent/Higher-Symm/SD-CG/HFTN-CG
REM
REM
REM
REM
REM
REM ./C.cell (b20cbc046b6831c77cfcea5457e17084)
REM
REM compiler GCC version 9.2.1 20190827 (Red Hat 9.2.1-1)
REM options -cpp -mtune=generic -march=x86-64 -g -O0 -fpre-include=/usr/include/finclude/math-vector-fortran.h
REM seed -1315011749 -1106021110 531352771 -97267381 -1527364627 -1358497903 -1660586911 -251592005 -1563643298 1023284016 -230314025 -319143609 -17449387 1227709435 911985823 1705292165 1794881724 468694063 1059502008 2118695190 1100506547 1213096312 918102680 -638196995 1194719053 1647060194 -429070758 1281650684 -1062709056 2065580235 -1313822052 -772091590 -2142629591
REM
CELL 1.54180   50.00000   50.00000   50.00000   90.00000   90.00000   90.00000
LATT -1
SFAC C  
C      1  0.5577430000000  0.5310940000000  0.5314240000000 1.0
C      1  0.5631840000000  0.5395850000000  0.4740280000000 1.0
C      1  0.5262860000000  0.5316170000000  0.4346350000000 1.0
C      1  0.4673830000000  0.5308930000000  0.4453360000000 1.0
C      1  0.4234010000000  0.5310290000000  0.5011090000000 1.0
C      1  0.4526540000000  0.5350380000000  0.5571560000000 1.0
C      1  0.5129890000000  0.5421650000000  0.5668550000000 1.0
C      1  0.4373750000000  0.5289590000000  0.4576890000000 1.0
C      1  0.4052110000000  0.5139820000000  0.5239640000000 1.0
C      1  0.4607660000000  0.5175740000000  0.5836280000000 1.0
C      1  0.5415010000000  0.5258650000000  0.5675870000000 1.0
C      1  0.5777350000000  0.5087400000000  0.5234800000000 1.0
C      1  0.5622120000000  0.5242420000000  0.4449050000000 1.0
C      1  0.5034550000000  0.5230680000000  0.4118720000000 1.0
C      1  0.4819440000000  0.4942010000000  0.5411020000000 1.0
C      1  0.5109610000000  0.4835540000000  0.5508240000000 1.0
C      1  0.5327990000000  0.4983500000000  0.5141650000000 1.0
C      1  0.5397200000000  0.4971960000000  0.4813710000000 1.0
C      1  0.5087740000000  0.4988690000000  0.4673690000000 1.0
C      1  0.4860380000000  0.5041640000000  0.4894310000000 1.0
C      1  0.4530310000000  0.4984020000000  0.4953130000000 1.0
C      1  0.5153800000000  0.5027820000000  0.3955580000000 1.0
C      1  0.4365850000000  0.5126600000000  0.4278290000000 1.0
C      1  0.4026610000000  0.5047360000000  0.4937660000000 1.0
C      1  0.4313930000000  0.5104690000000  0.5671320000000 1.0
C      1  0.5177580000000  0.5169550000000  0.5895180000000 1.0
C      1  0.5896550000000  0.4917070000000  0.5414870000000 1.0
C      1  0.5823280000000  0.5122260000000  0.4698170000000 1.0
C      1  0.5229090000000  0.4553660000000  0.5377540000000 1.0
C      1  0.5313610000000  0.4654270000000  0.5110890000000 1.0
C      1  0.5310340000000  0.4513830000000  0.4817790000000 1.0
C      1  0.5043990000000  0.4657160000000  0.4735200000000 1.0
C      1  0.4739410000000  0.4579380000000  0.4809740000000 1.0
C      1  0.4665350000000  0.4728670000000  0.5046020000000 1.0
C      1  0.4729600000000  0.4623360000000  0.5333420000000 1.0
C      1  0.5171790000000  0.4827410000000  0.5889460000000 1.0
C      1  0.5797750000000  0.4645140000000  0.5393800000000 1.0
C      1  0.5823020000000  0.4790470000000  0.4616950000000 1.0
C      1  0.5244990000000  0.4785800000000  0.4158250000000 1.0
C      1  0.4541060000000  0.4837450000000  0.4276260000000 1.0
C      1  0.4191800000000  0.4766930000000  0.4885480000000 1.0
C      1  0.4357530000000  0.4749980000000  0.5626950000000 1.0
C      1  0.5032670000000  0.5406990000000  0.5345520000000 1.0
C      1  0.5287940000000  0.5321030000000  0.5136710000000 1.0
C      1  0.5332450000000  0.5425090000000  0.4853590000000 1.0
C      1  0.5119760000000  0.5325990000000  0.4643490000000 1.0
C      1  0.4712210000000  0.5296400000000  0.4788530000000 1.0
C      1  0.4563590000000  0.5277120000000  0.5089830000000 1.0
C      1  0.4736950000000  0.5264760000000  0.5342250000000 1.0
C      1  0.5335510000000  0.5619000000000  0.4483630000000 1.0
C      1  0.4759640000000  0.5582440000000  0.4343950000000 1.0
C      1  0.4389280000000  0.5529660000000  0.4804250000000 1.0
C      1  0.4503760000000  0.5597050000000  0.5373770000000 1.0
C      1  0.4994970000000  0.5708790000000  0.5604790000000 1.0
C      1  0.5518710000000  0.5613860000000  0.5325420000000 1.0
C      1  0.5697440000000  0.5656920000000  0.4873750000000 1.0
C      1  0.4476770000000  0.4423750000000  0.5257580000000 1.0
C      1  0.4942870000000  0.4476360000000  0.5523440000000 1.0
C      1  0.5432170000000  0.4308840000000  0.5475200000000 1.0
C      1  0.5584250000000  0.4395410000000  0.4939190000000 1.0
C      1  0.5233670000000  0.4383470000000  0.4516730000000 1.0
C      1  0.4853100000000  0.4499710000000  0.4500340000000 1.0
C      1  0.4490880000000  0.4366530000000  0.4752250000000 1.0
C      1  0.4906610000000  0.5020050000000  0.5799030000000 1.0
C      1  0.5451340000000  0.5029620000000  0.5457680000000 1.0
C      1  0.5701560000000  0.4947810000000  0.4963510000000 1.0
C      1  0.5415550000000  0.5014880000000  0.4307110000000 1.0
C      1  0.4770410000000  0.5083110000000  0.4277110000000 1.0
C      1  0.4347920000000  0.5014350000000  0.4711900000000 1.0
C      1  0.4206020000000  0.4947760000000  0.5405650000000 1.0
C      1  0.4716260000000  0.4186560000000  0.4858710000000 1.0
C      1  0.4737950000000  0.4240650000000  0.5138730000000 1.0
C      1  0.4973300000000  0.4251910000000  0.5290330000000 1.0
C      1  0.5251290000000  0.4174310000000  0.5258480000000 1.0
C      1  0.5374290000000  0.4166010000000  0.5003510000000 1.0
C      1  0.5228330000000  0.4078590000000  0.4791260000000 1.0
C      1  0.4973030000000  0.4235470000000  0.4677670000000 1.0
C      1  0.5287270000000  0.4496950000000  0.4274020000000 1.0
C      1  0.4726070000000  0.4584360000000  0.4266090000000 1.0
C      1  0.4278820000000  0.4522490000000  0.4666520000000 1.0
C      1  0.4339420000000  0.4478140000000  0.5552200000000 1.0
C      1  0.4989130000000  0.4577890000000  0.5822590000000 1.0
C      1  0.5587380000000  0.4556560000000  0.5553660000000 1.0
C      1  0.5836910000000  0.4566150000000  0.4785560000000 1.0
C      1  0.5443530000000  0.5763640000000  0.5034600000000 1.0
C      1  0.5239660000000  0.5744600000000  0.4783490000000 1.0
C      1  0.4919620000000  0.5582000000000  0.4608480000000 1.0
C      1  0.4708450000000  0.5626210000000  0.4871630000000 1.0
C      1  0.4694420000000  0.5689570000000  0.5205490000000 1.0
C      1  0.4916370000000  0.5788990000000  0.5335590000000 1.0
C      1  0.5207000000000  0.5688240000000  0.5266300000000 1.0
C      1  0.5031620000000  0.4925650000000  0.4370560000000 1.0
C      1  0.4343960000000  0.4776540000000  0.4516060000000 1.0
C      1  0.4288440000000  0.4698700000000  0.5189130000000 1.0
C      1  0.4635650000000  0.4874050000000  0.5688910000000 1.0
C      1  0.5411620000000  0.4777990000000  0.5653460000000 1.0
C      1  0.5752800000000  0.4637940000000  0.5095370000000 1.0
C      1  0.5542330000000  0.4883810000000  0.4550860000000 1.0
C      1  0.5001480000000  0.4975650000000  0.5142270000000 1.0
C      1  0.4948920000000  0.5863900000000  0.4834600000000 1.0
END
