TITL C-3289321-8710-263 -0.0038345343280338 125000 -1041.92345733899 0 0 192 (C1) n - 1
REM
REM in /nfs/bkarasulu/CARBON/AIRSS/Generating-Clusters/AIREBO/with-SteepDescent/Higher-Symm/SD-CG/HFTN-CG
REM
REM
REM
REM
REM
REM ./C.cell (b20cbc046b6831c77cfcea5457e17084)
REM
REM compiler GCC version 9.2.1 20190827 (Red Hat 9.2.1-1)
REM options -cpp -mtune=generic -march=x86-64 -g -O0 -fpre-include=/usr/include/finclude/math-vector-fortran.h
REM seed -1863136705 -1527229612 -1743967702 245384879 1064123184 -2081063421 -1722352603 529360433 1065183760 -1847802907 1593242036 -1449725231 1106339728 248067566 753421536 -1518973149 1909003414 -2107651443 -406534107 1631210760 1316216858 1753089094 -781533150 715984155 -487001861 1462895524 -167959711 1059846941 -413401495 -793181752 1716437152 1663569464 -1927560494
REM
CELL 1.54180   50.00000   50.00000   50.00000   90.00000   90.00000   90.00000
LATT -1
SFAC C  
C      1  0.4764810000000  0.5366460000000  0.4924840000000 1.0
C      1  0.5021970000000  0.5297450000000  0.5258970000000 1.0
C      1  0.5173400000000  0.5255010000000  0.4811570000000 1.0
C      1  0.5245170000000  0.5074860000000  0.4462640000000 1.0
C      1  0.4448700000000  0.5106050000000  0.4998060000000 1.0
C      1  0.5378530000000  0.5049220000000  0.5468630000000 1.0
C      1  0.4123340000000  0.4472290000000  0.5413670000000 1.0
C      1  0.5905470000000  0.4485570000000  0.5662410000000 1.0
C      1  0.5050860000000  0.4508580000000  0.3963270000000 1.0
C      1  0.5281930000000  0.4258990000000  0.4980240000000 1.0
C      1  0.4817380000000  0.4143940000000  0.4829170000000 1.0
C      1  0.5052400000000  0.4192470000000  0.5232980000000 1.0
C      1  0.5199650000000  0.4276320000000  0.5513960000000 1.0
C      1  0.5304540000000  0.4301370000000  0.4648940000000 1.0
C      1  0.4564680000000  0.4350310000000  0.4926730000000 1.0
C      1  0.4678410000000  0.4790970000000  0.4000390000000 1.0
C      1  0.4325870000000  0.4657500000000  0.5801820000000 1.0
C      1  0.6006100000000  0.4643840000000  0.5203390000000 1.0
C      1  0.5528480000000  0.4097380000000  0.5248420000000 1.0
C      1  0.4947510000000  0.4153180000000  0.4540420000000 1.0
C      1  0.4712890000000  0.4189160000000  0.5260300000000 1.0
C      1  0.4294660000000  0.5749220000000  0.5365430000000 1.0
C      1  0.5617770000000  0.5745970000000  0.5390710000000 1.0
C      1  0.4990010000000  0.5779520000000  0.4185260000000 1.0
C      1  0.5329650000000  0.5313750000000  0.5114830000000 1.0
C      1  0.4923730000000  0.5391970000000  0.4622460000000 1.0
C      1  0.4712900000000  0.5446250000000  0.5253710000000 1.0
C      1  0.4548690000000  0.5134510000000  0.5745410000000 1.0
C      1  0.5825020000000  0.5187280000000  0.5058480000000 1.0
C      1  0.4594110000000  0.5187340000000  0.4226620000000 1.0
C      1  0.5833080000000  0.5019620000000  0.5319500000000 1.0
C      1  0.4885060000000  0.5111970000000  0.4117030000000 1.0
C      1  0.4289170000000  0.5103730000000  0.5559340000000 1.0
C      1  0.5993930000000  0.4310640000000  0.4770970000000 1.0
C      1  0.4285100000000  0.4427570000000  0.4374350000000 1.0
C      1  0.4700270000000  0.4393300000000  0.5988800000000 1.0
C      1  0.4215340000000  0.4214190000000  0.4537260000000 1.0
C      1  0.4949260000000  0.4198860000000  0.5956600000000 1.0
C      1  0.5809570000000  0.4216100000000  0.4589200000000 1.0
C      1  0.4137090000000  0.5704930000000  0.4806930000000 1.0
C      1  0.5256220000000  0.5693420000000  0.5850290000000 1.0
C      1  0.5517070000000  0.5786340000000  0.4390340000000 1.0
C      1  0.5415050000000  0.4287820000000  0.4164740000000 1.0
C      1  0.4225730000000  0.4332340000000  0.4952020000000 1.0
C      1  0.5419890000000  0.4334510000000  0.5754020000000 1.0
C      1  0.5738060000000  0.4324720000000  0.5498680000000 1.0
C      1  0.4917390000000  0.4381860000000  0.4214500000000 1.0
C      1  0.4367950000000  0.4341230000000  0.5393580000000 1.0
C      1  0.5683330000000  0.4495040000000  0.4192020000000 1.0
C      1  0.4034380000000  0.4527770000000  0.4747670000000 1.0
C      1  0.5290300000000  0.4564550000000  0.5964860000000 1.0
C      1  0.5099510000000  0.5451620000000  0.3992850000000 1.0
C      1  0.4072750000000  0.5419280000000  0.5371160000000 1.0
C      1  0.5784490000000  0.5423140000000  0.5551520000000 1.0
C      1  0.5756280000000  0.4808230000000  0.4167520000000 1.0
C      1  0.3936450000000  0.4863710000000  0.4751050000000 1.0
C      1  0.5376720000000  0.4870020000000  0.6086790000000 1.0
C      1  0.4642200000000  0.5968640000000  0.4536900000000 1.0
C      1  0.4803630000000  0.5905880000000  0.5497850000000 1.0
C      1  0.5561390000000  0.6056570000000  0.4878690000000 1.0
C      1  0.4908810000000  0.3928850000000  0.4969170000000 1.0
C      1  0.5018600000000  0.3855270000000  0.5261510000000 1.0
C      1  0.5228840000000  0.3921450000000  0.5006790000000 1.0
C      1  0.4565880000000  0.4486240000000  0.5716490000000 1.0
C      1  0.5841460000000  0.4414970000000  0.5036080000000 1.0
C      1  0.4592570000000  0.4413720000000  0.4310020000000 1.0
C      1  0.5328650000000  0.4518970000000  0.3995710000000 1.0
C      1  0.4043000000000  0.4508200000000  0.5145300000000 1.0
C      1  0.5665770000000  0.4530510000000  0.5832390000000 1.0
C      1  0.6040930000000  0.4679730000000  0.5515760000000 1.0
C      1  0.4918840000000  0.4724960000000  0.3850330000000 1.0
C      1  0.4116900000000  0.4674110000000  0.5609890000000 1.0
C      1  0.5011720000000  0.4505620000000  0.6054450000000 1.0
C      1  0.5583090000000  0.4423550000000  0.4499190000000 1.0
C      1  0.4199430000000  0.4696300000000  0.4502700000000 1.0
C      1  0.5575760000000  0.5326130000000  0.4876810000000 1.0
C      1  0.4605430000000  0.5348020000000  0.4510470000000 1.0
C      1  0.4747240000000  0.5334950000000  0.5573300000000 1.0
C      1  0.4233900000000  0.5364810000000  0.5012490000000 1.0
C      1  0.5409390000000  0.5317410000000  0.5612550000000 1.0
C      1  0.5324760000000  0.5355710000000  0.4295660000000 1.0
C      1  0.4069250000000  0.4786390000000  0.5044710000000 1.0
C      1  0.5569440000000  0.4811870000000  0.5831360000000 1.0
C      1  0.5434700000000  0.4789130000000  0.4093490000000 1.0
C      1  0.3961540000000  0.4964540000000  0.5253600000000 1.0
C      1  0.5791290000000  0.4999040000000  0.5787130000000 1.0
C      1  0.5318330000000  0.5007500000000  0.3924160000000 1.0
C      1  0.4962140000000  0.4988030000000  0.5344140000000 1.0
C      1  0.5331780000000  0.4989840000000  0.4882250000000 1.0
C      1  0.4800460000000  0.5066550000000  0.4813590000000 1.0
C      1  0.6093720000000  0.4735200000000  0.4599470000000 1.0
C      1  0.3849420000000  0.4873760000000  0.4163480000000 1.0
C      1  0.4734560000000  0.4762090000000  0.6300330000000 1.0
C      1  0.5527330000000  0.4739000000000  0.4762080000000 1.0
C      1  0.4601780000000  0.4844550000000  0.4659660000000 1.0
C      1  0.4924470000000  0.4892310000000  0.5668260000000 1.0
C      1  0.5178610000000  0.4177440000000  0.4289450000000 1.0
C      1  0.4385380000000  0.4115650000000  0.5172380000000 1.0
C      1  0.5544140000000  0.4080020000000  0.5565880000000 1.0
C      1  0.5453540000000  0.4418220000000  0.5337630000000 1.0
C      1  0.5046030000000  0.4477670000000  0.4515550000000 1.0
C      1  0.4608760000000  0.4510800000000  0.5223600000000 1.0
C      1  0.4066960000000  0.4929910000000  0.5508820000000 1.0
C      1  0.5947570000000  0.4945750000000  0.5562940000000 1.0
C      1  0.5040620000000  0.4986350000000  0.3893510000000 1.0
C      1  0.4114940000000  0.4924870000000  0.4302780000000 1.0
C      1  0.4876400000000  0.4811910000000  0.5995330000000 1.0
C      1  0.5811350000000  0.4880410000000  0.4639060000000 1.0
C      1  0.5457240000000  0.5995830000000  0.4606050000000 1.0
C      1  0.4441890000000  0.5851320000000  0.4764200000000 1.0
C      1  0.5090410000000  0.5816760000000  0.5580280000000 1.0
C      1  0.4991020000000  0.5221080000000  0.5725010000000 1.0
C      1  0.5525940000000  0.5180390000000  0.4590420000000 1.0
C      1  0.4431770000000  0.5138660000000  0.4673990000000 1.0
C      1  0.6172670000000  0.4834680000000  0.5010040000000 1.0
C      1  0.4449620000000  0.4907260000000  0.3921310000000 1.0
C      1  0.4397920000000  0.4849590000000  0.5982090000000 1.0
C      1  0.5571300000000  0.4113670000000  0.4746920000000 1.0
C      1  0.4449720000000  0.4138950000000  0.4685640000000 1.0
C      1  0.4963060000000  0.4155540000000  0.5680670000000 1.0
C      1  0.5088190000000  0.4754880000000  0.5196500000000 1.0
C      1  0.5133390000000  0.4752160000000  0.4868520000000 1.0
C      1  0.4836160000000  0.4800190000000  0.4979900000000 1.0
C      1  0.5245740000000  0.4789900000000  0.5714190000000 1.0
C      1  0.5466720000000  0.4731670000000  0.4427450000000 1.0
C      1  0.4316030000000  0.4782340000000  0.4810450000000 1.0
C      1  0.5318930000000  0.4720670000000  0.5403320000000 1.0
C      1  0.5182330000000  0.4760400000000  0.4562450000000 1.0
C      1  0.4535040000000  0.4780310000000  0.5048380000000 1.0
C      1  0.5034150000000  0.5819510000000  0.5184390000000 1.0
C      1  0.5273430000000  0.5796700000000  0.4943910000000 1.0
C      1  0.4895300000000  0.5912310000000  0.4900890000000 1.0
C      1  0.5118400000000  0.5479570000000  0.5544330000000 1.0
C      1  0.5318680000000  0.5449880000000  0.4597450000000 1.0
C      1  0.4486870000000  0.5527610000000  0.4874180000000 1.0
C      1  0.5347360000000  0.6062210000000  0.5143240000000 1.0
C      1  0.4874640000000  0.6066650000000  0.4664210000000 1.0
C      1  0.4799090000000  0.6059240000000  0.5244990000000 1.0
C      1  0.4668480000000  0.5726460000000  0.5066140000000 1.0
C      1  0.5279690000000  0.5607680000000  0.5278330000000 1.0
C      1  0.5118930000000  0.5662340000000  0.4689400000000 1.0
C      1  0.4699970000000  0.5830910000000  0.4308000000000 1.0
C      1  0.4605130000000  0.5689670000000  0.5473310000000 1.0
C      1  0.5594800000000  0.5768370000000  0.5056070000000 1.0
C      1  0.4721110000000  0.4676210000000  0.5501240000000 1.0
C      1  0.5514290000000  0.4505480000000  0.5014400000000 1.0
C      1  0.4740100000000  0.4624730000000  0.4495820000000 1.0
C      1  0.5685130000000  0.5324830000000  0.4137980000000 1.0
C      1  0.3911710000000  0.5208890000000  0.4836800000000 1.0
C      1  0.5399940000000  0.5199790000000  0.5994040000000 1.0
C      1  0.4265770000000  0.5407540000000  0.4203040000000 1.0
C      1  0.4641670000000  0.5481290000000  0.6039220000000 1.0
C      1  0.5973420000000  0.5366150000000  0.4738300000000 1.0
C      1  0.5741560000000  0.5604470000000  0.4309840000000 1.0
C      1  0.4024720000000  0.5477250000000  0.4690920000000 1.0
C      1  0.5153640000000  0.5421550000000  0.5946340000000 1.0
C      1  0.3947280000000  0.5240120000000  0.5146440000000 1.0
C      1  0.5679030000000  0.5276750000000  0.5815640000000 1.0
C      1  0.5392930000000  0.5290190000000  0.3986680000000 1.0
C      1  0.4647800000000  0.4137740000000  0.4467860000000 1.0
C      1  0.4712390000000  0.4222870000000  0.5569570000000 1.0
C      1  0.5675450000000  0.4137710000000  0.5015210000000 1.0
C      1  0.4307070000000  0.5093360000000  0.4126290000000 1.0
C      1  0.4653870000000  0.5067960000000  0.6019380000000 1.0
C      1  0.6003020000000  0.5044550000000  0.4847570000000 1.0
C      1  0.5246530000000  0.6067570000000  0.5409180000000 1.0
C      1  0.5162020000000  0.5985750000000  0.4612410000000 1.0
C      1  0.4543810000000  0.6040550000000  0.5028460000000 1.0
C      1  0.4583980000000  0.4959620000000  0.5470820000000 1.0
C      1  0.5687900000000  0.4758050000000  0.5167060000000 1.0
C      1  0.4790400000000  0.4857120000000  0.4307550000000 1.0
C      1  0.5765070000000  0.5082380000000  0.4369390000000 1.0
C      1  0.4110560000000  0.5102180000000  0.4582090000000 1.0
C      1  0.5105970000000  0.5049560000000  0.6075660000000 1.0
C      1  0.5629160000000  0.5358130000000  0.5269750000000 1.0
C      1  0.4929380000000  0.5397480000000  0.4282280000000 1.0
C      1  0.4404730000000  0.5362290000000  0.5371200000000 1.0
C      1  0.5466770000000  0.5007160000000  0.5168650000000 1.0
C      1  0.4935180000000  0.5070590000000  0.4511550000000 1.0
C      1  0.4673810000000  0.5110370000000  0.5218020000000 1.0
C      1  0.4077190000000  0.5396010000000  0.4414220000000 1.0
C      1  0.4879550000000  0.5302640000000  0.6109310000000 1.0
C      1  0.5898640000000  0.5378760000000  0.4469130000000 1.0
C      1  0.5252540000000  0.5687500000000  0.4276680000000 1.0
C      1  0.4210130000000  0.5689550000000  0.5110390000000 1.0
C      1  0.5468950000000  0.5652000000000  0.5625640000000 1.0
C      1  0.4779880000000  0.5564360000000  0.4026490000000 1.0
C      1  0.4266940000000  0.5541120000000  0.5625470000000 1.0
C      1  0.5884450000000  0.5582770000000  0.5266190000000 1.0
C      1  0.4561410000000  0.5532350000000  0.5771580000000 1.0
C      1  0.5811570000000  0.5564290000000  0.4934150000000 1.0
C      1  0.4530710000000  0.5572470000000  0.4265010000000 1.0
END
