TITL C-3289327-5623-713 -0.00178400957105363 125000 -853.620643629542 0 0 154 (C1) n - 1
REM
REM in /nfs/bkarasulu/CARBON/AIRSS/Generating-Clusters/AIREBO/with-SteepDescent/Higher-Symm/SD-CG/HFTN-CG
REM
REM
REM
REM
REM
REM ./C.cell (b20cbc046b6831c77cfcea5457e17084)
REM
REM compiler GCC version 9.2.1 20190827 (Red Hat 9.2.1-1)
REM options -cpp -mtune=generic -march=x86-64 -g -O0 -fpre-include=/usr/include/finclude/math-vector-fortran.h
REM seed 2141636015 -150618247 -1778063703 1759190114 1854430010 1870486457 940546103 49348831 -115413482 683743436 -1606210967 1763016433 534889599 -1047505913 1659372667 -1545811877 2114246501 2114475472 189624401 985026272 -1808579180 -649463239 771214344 455177076 -1185659900 1924114430 -843319223 -1283025777 262460624 2023848682 -1861484283 346850386 261460847
REM
CELL 1.54180   50.00000   50.00000   50.00000   90.00000   90.00000   90.00000
LATT -1
SFAC C  
C      1  0.4362150000000  0.4804520000000  0.5653020000000 1.0
C      1  0.4380210000000  0.5072420000000  0.4370450000000 1.0
C      1  0.5705540000000  0.4842060000000  0.5697090000000 1.0
C      1  0.5687340000000  0.5187380000000  0.4330780000000 1.0
C      1  0.4361970000000  0.4762060000000  0.4349590000000 1.0
C      1  0.4428710000000  0.5122250000000  0.5609460000000 1.0
C      1  0.5708810000000  0.4885000000000  0.4334230000000 1.0
C      1  0.5602820000000  0.5152160000000  0.5743580000000 1.0
C      1  0.4358100000000  0.5406050000000  0.4308650000000 1.0
C      1  0.4453940000000  0.4675950000000  0.5366620000000 1.0
C      1  0.5565960000000  0.5420230000000  0.4545970000000 1.0
C      1  0.5620000000000  0.4553050000000  0.5542000000000 1.0
C      1  0.4471640000000  0.5458610000000  0.5583670000000 1.0
C      1  0.4472860000000  0.4602370000000  0.4613350000000 1.0
C      1  0.5542380000000  0.5438880000000  0.5570990000000 1.0
C      1  0.5569290000000  0.4625610000000  0.4502820000000 1.0
C      1  0.4126890000000  0.4797950000000  0.4581260000000 1.0
C      1  0.4157140000000  0.5250860000000  0.5463890000000 1.0
C      1  0.5970000000000  0.4761570000000  0.4512710000000 1.0
C      1  0.5847300000000  0.5183830000000  0.5549500000000 1.0
C      1  0.4083880000000  0.4665110000000  0.5513870000000 1.0
C      1  0.4147550000000  0.5193350000000  0.4562210000000 1.0
C      1  0.5919850000000  0.4796910000000  0.5447560000000 1.0
C      1  0.5945220000000  0.5306650000000  0.4518110000000 1.0
C      1  0.4160690000000  0.4467540000000  0.4631640000000 1.0
C      1  0.4380950000000  0.5555660000000  0.5330080000000 1.0
C      1  0.5770320000000  0.4458050000000  0.4664880000000 1.0
C      1  0.5720360000000  0.5555090000000  0.5351680000000 1.0
C      1  0.4123110000000  0.4266030000000  0.5158550000000 1.0
C      1  0.4188270000000  0.5533980000000  0.4574110000000 1.0
C      1  0.5758050000000  0.4467840000000  0.5291070000000 1.0
C      1  0.5836960000000  0.5615470000000  0.4610400000000 1.0
C      1  0.5514050000000  0.4613550000000  0.5860620000000 1.0
C      1  0.5497760000000  0.5323580000000  0.4117200000000 1.0
C      1  0.4556320000000  0.4663460000000  0.5848040000000 1.0
C      1  0.4534740000000  0.5455470000000  0.4051730000000 1.0
C      1  0.5461260000000  0.4687270000000  0.4208910000000 1.0
C      1  0.5496090000000  0.5509300000000  0.5887580000000 1.0
C      1  0.4515110000000  0.4663110000000  0.4116830000000 1.0
C      1  0.4607090000000  0.5570430000000  0.5798920000000 1.0
C      1  0.5316580000000  0.4827940000000  0.6019580000000 1.0
C      1  0.5227440000000  0.5147700000000  0.4067780000000 1.0
C      1  0.4766520000000  0.4883530000000  0.5985030000000 1.0
C      1  0.4722310000000  0.5182600000000  0.3974430000000 1.0
C      1  0.5246810000000  0.4838870000000  0.4018730000000 1.0
C      1  0.5354740000000  0.5129560000000  0.5926380000000 1.0
C      1  0.4766480000000  0.4869350000000  0.4048120000000 1.0
C      1  0.4734370000000  0.5189230000000  0.6042150000000 1.0
C      1  0.5042940000000  0.5201850000000  0.4339380000000 1.0
C      1  0.5193450000000  0.4845710000000  0.5695810000000 1.0
C      1  0.4706320000000  0.5161360000000  0.4313500000000 1.0
C      1  0.4872710000000  0.4831110000000  0.5670620000000 1.0
C      1  0.5092250000000  0.5158580000000  0.5726010000000 1.0
C      1  0.5131520000000  0.4873590000000  0.4336970000000 1.0
C      1  0.4752930000000  0.5165460000000  0.5703410000000 1.0
C      1  0.4800790000000  0.4828710000000  0.4378190000000 1.0
C      1  0.4359530000000  0.4267700000000  0.5015380000000 1.0
C      1  0.4387780000000  0.5705770000000  0.4734890000000 1.0
C      1  0.5592170000000  0.4344820000000  0.5073050000000 1.0
C      1  0.5610880000000  0.5736770000000  0.4786130000000 1.0
C      1  0.4340720000000  0.4244150000000  0.4729960000000 1.0
C      1  0.4432640000000  0.5627980000000  0.5002540000000 1.0
C      1  0.5633070000000  0.4267150000000  0.4805090000000 1.0
C      1  0.5624450000000  0.5642630000000  0.5049190000000 1.0
C      1  0.5034520000000  0.5570400000000  0.4716130000000 1.0
C      1  0.5163860000000  0.4420160000000  0.5130670000000 1.0
C      1  0.4736160000000  0.5510790000000  0.4714240000000 1.0
C      1  0.4839320000000  0.4368580000000  0.5207100000000 1.0
C      1  0.5229810000000  0.5571220000000  0.5221400000000 1.0
C      1  0.5114810000000  0.4284700000000  0.4856460000000 1.0
C      1  0.4900570000000  0.5629460000000  0.5276830000000 1.0
C      1  0.4875290000000  0.4304770000000  0.4734510000000 1.0
C      1  0.4808520000000  0.5933960000000  0.5299340000000 1.0
C      1  0.4741200000000  0.4048490000000  0.4753070000000 1.0
C      1  0.5204080000000  0.5886200000000  0.5302060000000 1.0
C      1  0.5242680000000  0.4001920000000  0.4811230000000 1.0
C      1  0.4755160000000  0.5831070000000  0.4827480000000 1.0
C      1  0.4773690000000  0.4064970000000  0.5217650000000 1.0
C      1  0.5151130000000  0.5810500000000  0.4792760000000 1.0
C      1  0.5168090000000  0.4095460000000  0.5202850000000 1.0
C      1  0.5468440000000  0.5349070000000  0.5120810000000 1.0
C      1  0.5447230000000  0.4732050000000  0.4802580000000 1.0
C      1  0.4700320000000  0.5463070000000  0.5109370000000 1.0
C      1  0.4579650000000  0.4702040000000  0.4899110000000 1.0
C      1  0.5454350000000  0.5256370000000  0.4817140000000 1.0
C      1  0.5425770000000  0.4637050000000  0.5123820000000 1.0
C      1  0.4599330000000  0.5274660000000  0.4871660000000 1.0
C      1  0.4552830000000  0.4488650000000  0.5118910000000 1.0
C      1  0.5930150000000  0.5392370000000  0.4849450000000 1.0
C      1  0.5949250000000  0.4690800000000  0.5124530000000 1.0
C      1  0.4076760000000  0.5364620000000  0.4845730000000 1.0
C      1  0.4001510000000  0.4531850000000  0.5177440000000 1.0
C      1  0.5933750000000  0.5408550000000  0.5140300000000 1.0
C      1  0.5999660000000  0.4627820000000  0.4827640000000 1.0
C      1  0.4138640000000  0.5405550000000  0.5159860000000 1.0
C      1  0.4033340000000  0.4664510000000  0.4884030000000 1.0
C      1  0.4338160000000  0.5165770000000  0.4912040000000 1.0
C      1  0.4185150000000  0.4793090000000  0.5230490000000 1.0
C      1  0.5751500000000  0.5140620000000  0.4756780000000 1.0
C      1  0.5674590000000  0.4851030000000  0.5218290000000 1.0
C      1  0.4184550000000  0.5069840000000  0.5188170000000 1.0
C      1  0.4303210000000  0.4869500000000  0.4856510000000 1.0
C      1  0.5727320000000  0.5169770000000  0.5249350000000 1.0
C      1  0.5758950000000  0.4857980000000  0.4761250000000 1.0
C      1  0.5228870000000  0.4332750000000  0.5675940000000 1.0
C      1  0.5306730000000  0.5685800000000  0.4335890000000 1.0
C      1  0.4719430000000  0.4406230000000  0.5703640000000 1.0
C      1  0.4733750000000  0.5735700000000  0.4264820000000 1.0
C      1  0.5287310000000  0.4350020000000  0.4409690000000 1.0
C      1  0.5154080000000  0.5641810000000  0.5729930000000 1.0
C      1  0.4681750000000  0.4295810000000  0.4280790000000 1.0
C      1  0.4861560000000  0.5777100000000  0.5838320000000 1.0
C      1  0.4880340000000  0.5328300000000  0.5433450000000 1.0
C      1  0.4775400000000  0.4516370000000  0.4515020000000 1.0
C      1  0.5211630000000  0.5390110000000  0.5508580000000 1.0
C      1  0.5102300000000  0.4609180000000  0.4526260000000 1.0
C      1  0.4655910000000  0.5472500000000  0.4432070000000 1.0
C      1  0.4764430000000  0.4610600000000  0.5435540000000 1.0
C      1  0.5226430000000  0.5416960000000  0.4528250000000 1.0
C      1  0.5306480000000  0.4605100000000  0.5520420000000 1.0
C      1  0.5183290000000  0.5138620000000  0.4719340000000 1.0
C      1  0.5216630000000  0.4841560000000  0.5297250000000 1.0
C      1  0.4900440000000  0.5135220000000  0.4847570000000 1.0
C      1  0.4923870000000  0.4836260000000  0.5241250000000 1.0
C      1  0.5302780000000  0.5125180000000  0.5315830000000 1.0
C      1  0.5141680000000  0.4829720000000  0.4756850000000 1.0
C      1  0.4818120000000  0.5142680000000  0.5177520000000 1.0
C      1  0.4851290000000  0.4826700000000  0.4936230000000 1.0
C      1  0.4777050000000  0.4116890000000  0.5675670000000 1.0
C      1  0.4924180000000  0.5955310000000  0.4155640000000 1.0
C      1  0.5046300000000  0.4062980000000  0.5709810000000 1.0
C      1  0.5172690000000  0.5913380000000  0.4158150000000 1.0
C      1  0.4904340000000  0.4102070000000  0.4160860000000 1.0
C      1  0.4838320000000  0.6061450000000  0.5748480000000 1.0
C      1  0.5150130000000  0.4132710000000  0.4200760000000 1.0
C      1  0.5116970000000  0.6141050000000  0.5720240000000 1.0
C      1  0.5232080000000  0.5915980000000  0.5581170000000 1.0
C      1  0.5427830000000  0.4157360000000  0.4646650000000 1.0
C      1  0.4705220000000  0.6075110000000  0.5499210000000 1.0
C      1  0.4548040000000  0.4153640000000  0.4561500000000 1.0
C      1  0.5386580000000  0.5810080000000  0.4642650000000 1.0
C      1  0.5250860000000  0.4061830000000  0.5470350000000 1.0
C      1  0.4589880000000  0.5845640000000  0.4554460000000 1.0
C      1  0.4665600000000  0.3989110000000  0.5452330000000 1.0
C      1  0.4871490000000  0.5469140000000  0.4096680000000 1.0
C      1  0.4870940000000  0.4560310000000  0.5963680000000 1.0
C      1  0.5189310000000  0.5479550000000  0.4092340000000 1.0
C      1  0.5185430000000  0.4526340000000  0.5933250000000 1.0
C      1  0.4886460000000  0.5468180000000  0.5970710000000 1.0
C      1  0.4837160000000  0.4541270000000  0.4103070000000 1.0
C      1  0.5210170000000  0.5431240000000  0.5991620000000 1.0
C      1  0.5168830000000  0.4526370000000  0.4143810000000 1.0
C      1  0.5003090000000  0.5932700000000  0.5031740000000 1.0
C      1  0.4959830000000  0.3937950000000  0.4979780000000 1.0
END
