TITL C-3289326-3776-173 -1.76098175483545e-05 125000 -719.364822749263 0 0 136 (C1) n - 1
REM
REM in /nfs/bkarasulu/CARBON/AIRSS/Generating-Clusters/AIREBO/with-SteepDescent/Higher-Symm/SD-CG/HFTN-CG
REM
REM
REM
REM
REM
REM ./C.cell (b20cbc046b6831c77cfcea5457e17084)
REM
REM compiler GCC version 9.2.1 20190827 (Red Hat 9.2.1-1)
REM options -cpp -mtune=generic -march=x86-64 -g -O0 -fpre-include=/usr/include/finclude/math-vector-fortran.h
REM seed 2114444315 1766060879 2121951265 1019775071 1560260589 250894281 1854463830 -832910569 1357686760 -1536034203 1353015223 -2044785410 842008304 -1207220702 1430157086 1855064839 1150996972 657797862 -593969147 -22689965 -1861647518 2116378179 -1493116682 -1657527440 -947152366 213899012 -487482380 1325004383 -2067352735 482953799 -1031412631 -881651493 1515693795
REM
CELL 1.54180   50.00000   50.00000   50.00000   90.00000   90.00000   90.00000
LATT -1
SFAC C  
C      1  0.4723970000000  0.4470840000000  0.5113290000000 1.0
C      1  0.5439590000000  0.5796220000000  0.4924390000000 1.0
C      1  0.4573220000000  0.5472790000000  0.5850610000000 1.0
C      1  0.4451050000000  0.5175460000000  0.5287650000000 1.0
C      1  0.5165650000000  0.4710140000000  0.5450540000000 1.0
C      1  0.5510900000000  0.5758330000000  0.4537310000000 1.0
C      1  0.5041390000000  0.5088790000000  0.6045760000000 1.0
C      1  0.5334530000000  0.4960900000000  0.5711450000000 1.0
C      1  0.4490740000000  0.5227810000000  0.4375240000000 1.0
C      1  0.5607220000000  0.4666410000000  0.4651660000000 1.0
C      1  0.5145530000000  0.6000740000000  0.5222420000000 1.0
C      1  0.4940050000000  0.4951670000000  0.5080060000000 1.0
C      1  0.5514120000000  0.5014500000000  0.5479770000000 1.0
C      1  0.5470900000000  0.4103840000000  0.5503740000000 1.0
C      1  0.4932550000000  0.5779770000000  0.4550780000000 1.0
C      1  0.5008190000000  0.4603510000000  0.4248420000000 1.0
C      1  0.4426850000000  0.4286290000000  0.5741820000000 1.0
C      1  0.4736230000000  0.4428620000000  0.5742340000000 1.0
C      1  0.4186550000000  0.5286690000000  0.5177310000000 1.0
C      1  0.5353260000000  0.5097250000000  0.4136900000000 1.0
C      1  0.4081710000000  0.5431090000000  0.4902950000000 1.0
C      1  0.5176100000000  0.5205110000000  0.4331490000000 1.0
C      1  0.4963660000000  0.4820640000000  0.6007480000000 1.0
C      1  0.5895020000000  0.5162260000000  0.4982850000000 1.0
C      1  0.4565700000000  0.5546670000000  0.4648550000000 1.0
C      1  0.5526290000000  0.5464690000000  0.4378190000000 1.0
C      1  0.4881160000000  0.4164130000000  0.4584150000000 1.0
C      1  0.5975890000000  0.5230960000000  0.5366970000000 1.0
C      1  0.4490580000000  0.5478030000000  0.4973160000000 1.0
C      1  0.4645020000000  0.4080980000000  0.5086370000000 1.0
C      1  0.4735080000000  0.4914290000000  0.4396520000000 1.0
C      1  0.5217130000000  0.5539010000000  0.4923400000000 1.0
C      1  0.4371540000000  0.5119010000000  0.5603530000000 1.0
C      1  0.5614310000000  0.5674930000000  0.5553970000000 1.0
C      1  0.4824470000000  0.5958000000000  0.4826320000000 1.0
C      1  0.5295390000000  0.4624430000000  0.5741360000000 1.0
C      1  0.4390140000000  0.4596640000000  0.4220510000000 1.0
C      1  0.5142720000000  0.5665320000000  0.5230330000000 1.0
C      1  0.5699250000000  0.5019940000000  0.4810730000000 1.0
C      1  0.4256340000000  0.5709220000000  0.4887380000000 1.0
C      1  0.5204610000000  0.4746070000000  0.5021670000000 1.0
C      1  0.4879180000000  0.5247450000000  0.4204160000000 1.0
C      1  0.4997870000000  0.5667640000000  0.5602990000000 1.0
C      1  0.5811590000000  0.4978760000000  0.5513410000000 1.0
C      1  0.5054490000000  0.4552500000000  0.4581410000000 1.0
C      1  0.5271410000000  0.5294920000000  0.5153900000000 1.0
C      1  0.4266460000000  0.4841040000000  0.5451330000000 1.0
C      1  0.5571560000000  0.5456610000000  0.5089050000000 1.0
C      1  0.4578000000000  0.5236800000000  0.4046670000000 1.0
C      1  0.4602650000000  0.4130330000000  0.4763760000000 1.0
C      1  0.4551570000000  0.5549540000000  0.5522770000000 1.0
C      1  0.5555820000000  0.5211170000000  0.4567960000000 1.0
C      1  0.4983040000000  0.5123860000000  0.4793990000000 1.0
C      1  0.5211160000000  0.5597660000000  0.4331660000000 1.0
C      1  0.5272880000000  0.5073800000000  0.4687860000000 1.0
C      1  0.4068530000000  0.4974810000000  0.4639720000000 1.0
C      1  0.5199350000000  0.4254750000000  0.4504100000000 1.0
C      1  0.4483740000000  0.4632300000000  0.4715380000000 1.0
C      1  0.5173260000000  0.5175920000000  0.5810200000000 1.0
C      1  0.5534460000000  0.4164270000000  0.4964070000000 1.0
C      1  0.4929520000000  0.4774280000000  0.5686980000000 1.0
C      1  0.4602000000000  0.4296920000000  0.5450980000000 1.0
C      1  0.5469080000000  0.4194780000000  0.4702770000000 1.0
C      1  0.4913110000000  0.4258790000000  0.4976270000000 1.0
C      1  0.4634880000000  0.4696250000000  0.5428110000000 1.0
C      1  0.5374090000000  0.3982900000000  0.5099930000000 1.0
C      1  0.4905010000000  0.4672050000000  0.5270440000000 1.0
C      1  0.4437510000000  0.5186600000000  0.4882850000000 1.0
C      1  0.4396180000000  0.4595800000000  0.5619040000000 1.0
C      1  0.4753040000000  0.4676590000000  0.4584690000000 1.0
C      1  0.4612390000000  0.4987070000000  0.5055050000000 1.0
C      1  0.5321810000000  0.4599920000000  0.4148500000000 1.0
C      1  0.5580540000000  0.5270050000000  0.4126420000000 1.0
C      1  0.4513840000000  0.4416070000000  0.4380290000000 1.0
C      1  0.5916050000000  0.4607140000000  0.4787980000000 1.0
C      1  0.5298750000000  0.4449170000000  0.5161490000000 1.0
C      1  0.5194040000000  0.4158270000000  0.5314420000000 1.0
C      1  0.5398710000000  0.5807280000000  0.5403300000000 1.0
C      1  0.5337120000000  0.6009880000000  0.4716250000000 1.0
C      1  0.5627950000000  0.4329740000000  0.5483690000000 1.0
C      1  0.4755380000000  0.5168270000000  0.4585770000000 1.0
C      1  0.4280280000000  0.4791850000000  0.4553580000000 1.0
C      1  0.5095920000000  0.6074070000000  0.4928760000000 1.0
C      1  0.4891540000000  0.5841430000000  0.5375600000000 1.0
C      1  0.4959530000000  0.3963580000000  0.4842710000000 1.0
C      1  0.4380610000000  0.4330750000000  0.4681250000000 1.0
C      1  0.5296040000000  0.4779350000000  0.4619570000000 1.0
C      1  0.4962220000000  0.5561300000000  0.4102880000000 1.0
C      1  0.5887360000000  0.4625120000000  0.5093530000000 1.0
C      1  0.4209390000000  0.4458170000000  0.4946520000000 1.0
C      1  0.4294240000000  0.5181370000000  0.4640200000000 1.0
C      1  0.4416670000000  0.4352370000000  0.5171150000000 1.0
C      1  0.5667800000000  0.5606080000000  0.4799200000000 1.0
C      1  0.4857230000000  0.4125140000000  0.5348360000000 1.0
C      1  0.5415780000000  0.4820460000000  0.5253000000000 1.0
C      1  0.4263300000000  0.4779370000000  0.5175570000000 1.0
C      1  0.4987440000000  0.5195160000000  0.5312800000000 1.0
C      1  0.4712030000000  0.5347760000000  0.5196050000000 1.0
C      1  0.5228770000000  0.4857760000000  0.4036150000000 1.0
C      1  0.4924790000000  0.4915950000000  0.4142700000000 1.0
C      1  0.4425030000000  0.4902520000000  0.4301060000000 1.0
C      1  0.5637080000000  0.4414630000000  0.5170420000000 1.0
C      1  0.5574850000000  0.4387710000000  0.4509910000000 1.0
C      1  0.4487060000000  0.5563010000000  0.4318140000000 1.0
C      1  0.5212760000000  0.5894800000000  0.4447130000000 1.0
C      1  0.5767720000000  0.5465330000000  0.5366620000000 1.0
C      1  0.4685500000000  0.5249550000000  0.5610700000000 1.0
C      1  0.5736450000000  0.4934610000000  0.4487380000000 1.0
C      1  0.5600830000000  0.4763330000000  0.4977840000000 1.0
C      1  0.4790300000000  0.4981770000000  0.5489590000000 1.0
C      1  0.5685060000000  0.5721400000000  0.5800860000000 1.0
C      1  0.4619590000000  0.4737930000000  0.5822030000000 1.0
C      1  0.5107980000000  0.4472080000000  0.4885140000000 1.0
C      1  0.5935350000000  0.4923260000000  0.5220510000000 1.0
C      1  0.5415390000000  0.4365360000000  0.4258960000000 1.0
C      1  0.5924980000000  0.5425110000000  0.4906970000000 1.0
C      1  0.5530640000000  0.5929630000000  0.5157750000000 1.0
C      1  0.5054730000000  0.4396160000000  0.5817570000000 1.0
C      1  0.5584860000000  0.4505150000000  0.5687940000000 1.0
C      1  0.4511720000000  0.5000360000000  0.5882630000000 1.0
C      1  0.5046840000000  0.4152690000000  0.5629330000000 1.0
C      1  0.4040270000000  0.4753070000000  0.4965650000000 1.0
C      1  0.4519680000000  0.4701500000000  0.5008790000000 1.0
C      1  0.4538170000000  0.5872480000000  0.4985340000000 1.0
C      1  0.4794350000000  0.4358630000000  0.4347770000000 1.0
C      1  0.4917040000000  0.5385570000000  0.4968300000000 1.0
C      1  0.4828200000000  0.5631100000000  0.4825330000000 1.0
C      1  0.4676320000000  0.5643340000000  0.4127110000000 1.0
C      1  0.4598190000000  0.5796520000000  0.5295960000000 1.0
C      1  0.5207480000000  0.5398360000000  0.4610010000000 1.0
C      1  0.5033900000000  0.4565350000000  0.6093770000000 1.0
C      1  0.5007320000000  0.5359080000000  0.5617280000000 1.0
C      1  0.5485740000000  0.5292470000000  0.5381290000000 1.0
C      1  0.4839700000000  0.5460140000000  0.4466680000000 1.0
C      1  0.4055030000000  0.5093110000000  0.4948240000000 1.0
C      1  0.4350300000000  0.5561930000000  0.5271450000000 1.0
END
