TITL C-3289328-6581-507 0.000366162134604009 125000 -425.858209793727 0 0 83 (C1) n - 1
REM
REM in /nfs/bkarasulu/CARBON/AIRSS/Generating-Clusters/AIREBO/with-SteepDescent/Higher-Symm/SD-CG/HFTN-CG
REM
REM
REM
REM
REM
REM ./C.cell (b20cbc046b6831c77cfcea5457e17084)
REM
REM compiler GCC version 9.2.1 20190827 (Red Hat 9.2.1-1)
REM options -cpp -mtune=generic -march=x86-64 -g -O0 -fpre-include=/usr/include/finclude/math-vector-fortran.h
REM seed 1084909324 -1141174130 -269983781 1525520733 1001958474 -1219447738 2062291601 1444752416 628277767 -1464218606 -502534723 -1830964936 835739086 1896774959 -477395603 1084142301 1998834627 1119881047 -1636769705 447967687 1114118554 -2124193249 -817700209 -1342224703 673766142 -1689558802 731903234 1293453351 147566406 1867913874 -1194893537 -1523642113 -901654761
REM
CELL 1.54180   50.00000   50.00000   50.00000   90.00000   90.00000   90.00000
LATT -1
SFAC C  
C      1  0.4395710000000  0.5263950000000  0.5005180000000 1.0
C      1  0.4939500000000  0.5605160000000  0.5202040000000 1.0
C      1  0.5601710000000  0.5179460000000  0.5079300000000 1.0
C      1  0.5313240000000  0.4567810000000  0.5118470000000 1.0
C      1  0.4641360000000  0.4526580000000  0.5096780000000 1.0
C      1  0.4903260000000  0.5799940000000  0.4942610000000 1.0
C      1  0.5708270000000  0.5439700000000  0.4796470000000 1.0
C      1  0.5706470000000  0.4402970000000  0.4915980000000 1.0
C      1  0.4546170000000  0.4196160000000  0.4903420000000 1.0
C      1  0.4174860000000  0.4987100000000  0.4799120000000 1.0
C      1  0.4704440000000  0.5275570000000  0.5768430000000 1.0
C      1  0.5200090000000  0.5469040000000  0.5621460000000 1.0
C      1  0.5561800000000  0.4902350000000  0.5847160000000 1.0
C      1  0.5177700000000  0.4651660000000  0.5727960000000 1.0
C      1  0.4661280000000  0.4736440000000  0.5619980000000 1.0
C      1  0.4403650000000  0.5542960000000  0.4911840000000 1.0
C      1  0.5316200000000  0.5812190000000  0.4843810000000 1.0
C      1  0.5876400000000  0.4839880000000  0.4866310000000 1.0
C      1  0.5090700000000  0.4136010000000  0.4655080000000 1.0
C      1  0.4234670000000  0.4595420000000  0.4753680000000 1.0
C      1  0.5328780000000  0.5588550000000  0.4680740000000 1.0
C      1  0.5688940000000  0.4805400000000  0.4623320000000 1.0
C      1  0.5005840000000  0.4319010000000  0.4453950000000 1.0
C      1  0.4326570000000  0.4663850000000  0.4504240000000 1.0
C      1  0.4562200000000  0.5580350000000  0.4692590000000 1.0
C      1  0.5532140000000  0.5601550000000  0.5428590000000 1.0
C      1  0.5657600000000  0.4548250000000  0.5497710000000 1.0
C      1  0.4984020000000  0.4278380000000  0.5404750000000 1.0
C      1  0.4249950000000  0.5020270000000  0.5453480000000 1.0
C      1  0.4740070000000  0.5742200000000  0.5518370000000 1.0
C      1  0.4727520000000  0.4811340000000  0.4832080000000 1.0
C      1  0.4789870000000  0.5220040000000  0.4668280000000 1.0
C      1  0.5161920000000  0.5371040000000  0.4869030000000 1.0
C      1  0.5301020000000  0.4914350000000  0.4764300000000 1.0
C      1  0.5006910000000  0.4869910000000  0.4681390000000 1.0
C      1  0.5215980000000  0.4778890000000  0.5342590000000 1.0
C      1  0.4927730000000  0.4637570000000  0.5245180000000 1.0
C      1  0.4745220000000  0.4889760000000  0.5221230000000 1.0
C      1  0.4829840000000  0.5289550000000  0.5265900000000 1.0
C      1  0.5149460000000  0.5270240000000  0.5151230000000 1.0
C      1  0.5656270000000  0.5104540000000  0.4420370000000 1.0
C      1  0.5163160000000  0.4542910000000  0.4389990000000 1.0
C      1  0.4575500000000  0.4587320000000  0.4353280000000 1.0
C      1  0.4568110000000  0.5193890000000  0.4221740000000 1.0
C      1  0.5104860000000  0.5497420000000  0.4263870000000 1.0
C      1  0.4742170000000  0.4840050000000  0.4261040000000 1.0
C      1  0.4855810000000  0.5140340000000  0.4373200000000 1.0
C      1  0.5163330000000  0.5178270000000  0.4305490000000 1.0
C      1  0.5365540000000  0.4950570000000  0.4439690000000 1.0
C      1  0.5002670000000  0.4771530000000  0.4415900000000 1.0
C      1  0.5007810000000  0.5637450000000  0.4447430000000 1.0
C      1  0.5416120000000  0.5344030000000  0.4461230000000 1.0
C      1  0.5446940000000  0.4621840000000  0.4470160000000 1.0
C      1  0.4737320000000  0.4408260000000  0.4493570000000 1.0
C      1  0.4450530000000  0.4957790000000  0.4432890000000 1.0
C      1  0.5447710000000  0.5220750000000  0.4778980000000 1.0
C      1  0.5477820000000  0.4630260000000  0.4824670000000 1.0
C      1  0.4700790000000  0.4476240000000  0.4779800000000 1.0
C      1  0.4502920000000  0.5054260000000  0.4753540000000 1.0
C      1  0.4896730000000  0.5536020000000  0.4734350000000 1.0
C      1  0.4403520000000  0.5744190000000  0.5094300000000 1.0
C      1  0.5417060000000  0.5769550000000  0.5097680000000 1.0
C      1  0.5724880000000  0.4884630000000  0.5114560000000 1.0
C      1  0.5067410000000  0.4169750000000  0.4928300000000 1.0
C      1  0.4345670000000  0.4682170000000  0.5044050000000 1.0
C      1  0.5186900000000  0.4301790000000  0.5165700000000 1.0
C      1  0.4467160000000  0.4781970000000  0.5345530000000 1.0
C      1  0.4507240000000  0.5197100000000  0.5309740000000 1.0
C      1  0.5204850000000  0.5657700000000  0.5338640000000 1.0
C      1  0.5569420000000  0.5038930000000  0.5382330000000 1.0
C      1  0.4865510000000  0.5451500000000  0.5563010000000 1.0
C      1  0.5378590000000  0.5301270000000  0.5385550000000 1.0
C      1  0.5452610000000  0.4793270000000  0.5586470000000 1.0
C      1  0.4928340000000  0.4559270000000  0.5567410000000 1.0
C      1  0.4545430000000  0.5057600000000  0.5617600000000 1.0
C      1  0.4680650000000  0.5818640000000  0.5201620000000 1.0
C      1  0.5617730000000  0.5504750000000  0.5114090000000 1.0
C      1  0.5637710000000  0.4594460000000  0.5188400000000 1.0
C      1  0.4798420000000  0.4232630000000  0.5126700000000 1.0
C      1  0.4223940000000  0.4992240000000  0.5115970000000 1.0
C      1  0.4826190000000  0.5099140000000  0.4984000000000 1.0
C      1  0.5121280000000  0.5159540000000  0.5654840000000 1.0
C      1  0.5074740000000  0.5044030000000  0.5390640000000 1.0
END
