TITL C-3289334-2237-528 0.00241434520543142 125000 -649.303615914287 0 0 125 (C1) n - 1
REM
REM in /nfs/bkarasulu/CARBON/AIRSS/Generating-Clusters/AIREBO/with-SteepDescent/Higher-Symm/SD-CG/HFTN-CG
REM
REM
REM
REM
REM
REM ./C.cell (b20cbc046b6831c77cfcea5457e17084)
REM
REM compiler GCC version 9.2.1 20190827 (Red Hat 9.2.1-1)
REM options -cpp -mtune=generic -march=x86-64 -g -O0 -fpre-include=/usr/include/finclude/math-vector-fortran.h
REM seed -408829219 1233163181 -1711166280 1607974357 823570370 -11541063 370649215 -1100606392 -1061832872 -177650317 1168098045 -111092863 254116008 1218376086 165948389 596378675 -999265259 1283612097 -1088123647 1281800817 1346123684 -468529693 -1470306109 -1462995327 1418706457 -140861898 912725467 1204972615 1651966733 -1182050889 1321210626 -899511191 -1577472949
REM
CELL 1.54180   50.00000   50.00000   50.00000   90.00000   90.00000   90.00000
LATT -1
SFAC C  
C      1  0.4779260000000  0.5521380000000  0.5375390000000 1.0
C      1  0.4980490000000  0.5959230000000  0.4617440000000 1.0
C      1  0.4744680000000  0.4932460000000  0.4306350000000 1.0
C      1  0.5335160000000  0.4844150000000  0.4442980000000 1.0
C      1  0.4125190000000  0.4815290000000  0.5061680000000 1.0
C      1  0.5145520000000  0.4461040000000  0.4123150000000 1.0
C      1  0.5032820000000  0.4724750000000  0.4955150000000 1.0
C      1  0.4488760000000  0.4966640000000  0.5446500000000 1.0
C      1  0.4636110000000  0.4523570000000  0.4297670000000 1.0
C      1  0.4780280000000  0.5566940000000  0.4241510000000 1.0
C      1  0.4636770000000  0.5017350000000  0.5168640000000 1.0
C      1  0.4720750000000  0.4306270000000  0.5809950000000 1.0
C      1  0.5082740000000  0.5697780000000  0.5036650000000 1.0
C      1  0.4952460000000  0.5230390000000  0.5344620000000 1.0
C      1  0.4728480000000  0.5017700000000  0.4635100000000 1.0
C      1  0.4306300000000  0.5579830000000  0.5218080000000 1.0
C      1  0.4987920000000  0.5460130000000  0.4563380000000 1.0
C      1  0.5018700000000  0.5603030000000  0.5681490000000 1.0
C      1  0.4757610000000  0.4573290000000  0.5322360000000 1.0
C      1  0.4652950000000  0.5560050000000  0.3993770000000 1.0
C      1  0.5043040000000  0.4980600000000  0.4759170000000 1.0
C      1  0.4884250000000  0.6028310000000  0.5376210000000 1.0
C      1  0.5609100000000  0.4392150000000  0.4601610000000 1.0
C      1  0.4868910000000  0.3987700000000  0.5314050000000 1.0
C      1  0.5277020000000  0.5445400000000  0.4967270000000 1.0
C      1  0.5588080000000  0.4197380000000  0.5182690000000 1.0
C      1  0.4783710000000  0.4831120000000  0.6038190000000 1.0
C      1  0.5752580000000  0.5496840000000  0.4662110000000 1.0
C      1  0.4379940000000  0.4170300000000  0.5001370000000 1.0
C      1  0.5047460000000  0.5730230000000  0.5365450000000 1.0
C      1  0.4419590000000  0.4727250000000  0.4196180000000 1.0
C      1  0.5316360000000  0.4911200000000  0.5453430000000 1.0
C      1  0.5570980000000  0.5180320000000  0.4916130000000 1.0
C      1  0.5142130000000  0.4401790000000  0.5397410000000 1.0
C      1  0.4560220000000  0.4483770000000  0.5580810000000 1.0
C      1  0.4936270000000  0.4837240000000  0.5797750000000 1.0
C      1  0.4407000000000  0.4907890000000  0.4654520000000 1.0
C      1  0.4380570000000  0.5601690000000  0.5735300000000 1.0
C      1  0.5582400000000  0.5461350000000  0.5107240000000 1.0
C      1  0.5056500000000  0.4982840000000  0.3895900000000 1.0
C      1  0.5474630000000  0.4147680000000  0.4317290000000 1.0
C      1  0.4236260000000  0.4752860000000  0.5359120000000 1.0
C      1  0.5012230000000  0.3998870000000  0.5032560000000 1.0
C      1  0.5429610000000  0.4693770000000  0.4927040000000 1.0
C      1  0.4192300000000  0.5228810000000  0.5074610000000 1.0
C      1  0.5609450000000  0.4837960000000  0.5609450000000 1.0
C      1  0.5456850000000  0.5588910000000  0.4715880000000 1.0
C      1  0.4497960000000  0.5013230000000  0.4161330000000 1.0
C      1  0.5363190000000  0.5057650000000  0.4676290000000 1.0
C      1  0.5581400000000  0.5531120000000  0.5423600000000 1.0
C      1  0.4214500000000  0.5385840000000  0.5671550000000 1.0
C      1  0.5330090000000  0.5831010000000  0.4879750000000 1.0
C      1  0.5707520000000  0.5081740000000  0.5802040000000 1.0
C      1  0.4747340000000  0.5201380000000  0.4920760000000 1.0
C      1  0.4345090000000  0.5147510000000  0.5772920000000 1.0
C      1  0.4435360000000  0.5319910000000  0.4854880000000 1.0
C      1  0.5107410000000  0.5257720000000  0.4317510000000 1.0
C      1  0.4565880000000  0.5721500000000  0.4602370000000 1.0
C      1  0.4990290000000  0.4572950000000  0.4550770000000 1.0
C      1  0.4291020000000  0.4870320000000  0.5814740000000 1.0
C      1  0.5319390000000  0.4139680000000  0.4982440000000 1.0
C      1  0.4146930000000  0.5049600000000  0.4805860000000 1.0
C      1  0.5575270000000  0.5372560000000  0.5685650000000 1.0
C      1  0.5403670000000  0.4482890000000  0.5194640000000 1.0
C      1  0.4967250000000  0.4532360000000  0.5658660000000 1.0
C      1  0.5279520000000  0.4337390000000  0.4382370000000 1.0
C      1  0.4674370000000  0.4224820000000  0.5060630000000 1.0
C      1  0.5079570000000  0.5176700000000  0.5034560000000 1.0
C      1  0.4798300000000  0.5030080000000  0.5572260000000 1.0
C      1  0.5401740000000  0.4675330000000  0.5764300000000 1.0
C      1  0.5619940000000  0.5071150000000  0.5217710000000 1.0
C      1  0.5410100000000  0.5216870000000  0.4278970000000 1.0
C      1  0.5715960000000  0.4728130000000  0.4801220000000 1.0
C      1  0.5709940000000  0.4469340000000  0.5325420000000 1.0
C      1  0.4839060000000  0.4149470000000  0.4781530000000 1.0
C      1  0.5171400000000  0.5171670000000  0.5547480000000 1.0
C      1  0.5386600000000  0.5161230000000  0.5881360000000 1.0
C      1  0.4404820000000  0.5827930000000  0.5221430000000 1.0
C      1  0.5185190000000  0.5390340000000  0.5748320000000 1.0
C      1  0.4734240000000  0.4683670000000  0.4699430000000 1.0
C      1  0.4784670000000  0.5846380000000  0.4422240000000 1.0
C      1  0.5022940000000  0.4764320000000  0.5416350000000 1.0
C      1  0.5318830000000  0.4950070000000  0.5121200000000 1.0
C      1  0.5136820000000  0.4942610000000  0.4184770000000 1.0
C      1  0.5571930000000  0.5257780000000  0.4524870000000 1.0
C      1  0.4935930000000  0.4674610000000  0.4243760000000 1.0
C      1  0.4158240000000  0.5238100000000  0.4555820000000 1.0
C      1  0.4311120000000  0.4687390000000  0.4463340000000 1.0
C      1  0.5910720000000  0.4897130000000  0.5260890000000 1.0
C      1  0.5846150000000  0.4460750000000  0.4802400000000 1.0
C      1  0.4667200000000  0.5838520000000  0.5311440000000 1.0
C      1  0.4702850000000  0.4714660000000  0.5036710000000 1.0
C      1  0.4647690000000  0.4370710000000  0.4605830000000 1.0
C      1  0.6157890000000  0.5218140000000  0.4458550000000 1.0
C      1  0.5808980000000  0.4698290000000  0.5437740000000 1.0
C      1  0.5635850000000  0.4195580000000  0.4862320000000 1.0
C      1  0.4391790000000  0.5483420000000  0.4585520000000 1.0
C      1  0.4388850000000  0.4760660000000  0.4932670000000 1.0
C      1  0.4338400000000  0.4431570000000  0.4555370000000 1.0
C      1  0.5152830000000  0.4418980000000  0.4883190000000 1.0
C      1  0.4187950000000  0.5072030000000  0.5360310000000 1.0
C      1  0.5352280000000  0.4429650000000  0.5663260000000 1.0
C      1  0.4678230000000  0.5527300000000  0.4989520000000 1.0
C      1  0.5098860000000  0.5673830000000  0.4245430000000 1.0
C      1  0.4541860000000  0.5336820000000  0.5235940000000 1.0
C      1  0.5906110000000  0.5394060000000  0.5079720000000 1.0
C      1  0.5321170000000  0.4569870000000  0.4629170000000 1.0
C      1  0.4994760000000  0.4318430000000  0.5129320000000 1.0
C      1  0.5228460000000  0.6034920000000  0.4722150000000 1.0
C      1  0.5992220000000  0.5207000000000  0.5261280000000 1.0
C      1  0.5020150000000  0.4243760000000  0.4552390000000 1.0
C      1  0.5768820000000  0.5185550000000  0.5493180000000 1.0
C      1  0.4622770000000  0.5219410000000  0.5751980000000 1.0
C      1  0.5903730000000  0.5211030000000  0.4553140000000 1.0
C      1  0.4410170000000  0.5260220000000  0.4328560000000 1.0
C      1  0.5474030000000  0.4941470000000  0.4140690000000 1.0
C      1  0.4723300000000  0.5305230000000  0.4453320000000 1.0
C      1  0.4326310000000  0.4659440000000  0.5641540000000 1.0
C      1  0.5270140000000  0.5588070000000  0.4472430000000 1.0
C      1  0.5770960000000  0.4995090000000  0.4750130000000 1.0
C      1  0.4696070000000  0.5529050000000  0.5704970000000 1.0
C      1  0.4858940000000  0.5686720000000  0.4780540000000 1.0
C      1  0.5232910000000  0.4887740000000  0.5858320000000 1.0
C      1  0.4110210000000  0.5380780000000  0.5368790000000 1.0
C      1  0.4709240000000  0.4244290000000  0.5395600000000 1.0
END
