TITL C-3289327-5623-697 0.000633452527239543 125000 -259.652837157585 0 0 50 (C1) n - 1
REM
REM in /nfs/bkarasulu/CARBON/AIRSS/Generating-Clusters/AIREBO/with-SteepDescent/Higher-Symm/SD-CG/HFTN-CG
REM
REM
REM
REM
REM
REM ./C.cell (b20cbc046b6831c77cfcea5457e17084)
REM
REM compiler GCC version 9.2.1 20190827 (Red Hat 9.2.1-1)
REM options -cpp -mtune=generic -march=x86-64 -g -O0 -fpre-include=/usr/include/finclude/math-vector-fortran.h
REM seed 731493941 1484903587 900556006 -777616878 1031080230 1641168516 325708153 1583116418 2096674288 1219217694 -1212665688 -1856947302 -177857237 -1365507502 -17567850 -932334368 1752197520 2095497899 728127425 424856407 -203276165 -2038204420 -1733246778 699866484 1258979666 -534495844 455999158 1696000560 -723963848 414510831 534990703 250404969 -545965890
REM
CELL 1.54180   50.00000   50.00000   50.00000   90.00000   90.00000   90.00000
LATT -1
SFAC C  
C      1  0.5301500000000  0.5031110000000  0.4556620000000 1.0
C      1  0.4737350000000  0.4966200000000  0.4637910000000 1.0
C      1  0.5243900000000  0.4974570000000  0.5335430000000 1.0
C      1  0.4695730000000  0.5073510000000  0.5422350000000 1.0
C      1  0.5062470000000  0.5264660000000  0.4588260000000 1.0
C      1  0.4941120000000  0.4689110000000  0.4610960000000 1.0
C      1  0.4975010000000  0.5261480000000  0.5403350000000 1.0
C      1  0.5043820000000  0.4693710000000  0.5361770000000 1.0
C      1  0.5711620000000  0.5068680000000  0.5158240000000 1.0
C      1  0.4271300000000  0.4850180000000  0.5110730000000 1.0
C      1  0.5716680000000  0.4920160000000  0.4865960000000 1.0
C      1  0.4325860000000  0.5074610000000  0.4860760000000 1.0
C      1  0.5104300000000  0.5650820000000  0.5100400000000 1.0
C      1  0.4882970000000  0.4312110000000  0.5084060000000 1.0
C      1  0.4918680000000  0.5699770000000  0.4835120000000 1.0
C      1  0.5134670000000  0.4300140000000  0.4875710000000 1.0
C      1  0.4727200000000  0.4444340000000  0.4558510000000 1.0
C      1  0.5226500000000  0.5528100000000  0.4518450000000 1.0
C      1  0.4733780000000  0.5460920000000  0.5513360000000 1.0
C      1  0.5260780000000  0.4451830000000  0.5420670000000 1.0
C      1  0.4567560000000  0.4722650000000  0.4472210000000 1.0
C      1  0.5454060000000  0.5331070000000  0.4567730000000 1.0
C      1  0.5417680000000  0.4731790000000  0.5498090000000 1.0
C      1  0.4453900000000  0.5296600000000  0.5456240000000 1.0
C      1  0.5095720000000  0.5311510000000  0.5123190000000 1.0
C      1  0.4855480000000  0.4651520000000  0.5082880000000 1.0
C      1  0.5133440000000  0.4639970000000  0.4887370000000 1.0
C      1  0.4920700000000  0.5300400000000  0.4848280000000 1.0
C      1  0.5328910000000  0.5076770000000  0.5044920000000 1.0
C      1  0.4662060000000  0.4900610000000  0.5177270000000 1.0
C      1  0.4655360000000  0.5110820000000  0.4936430000000 1.0
C      1  0.5325200000000  0.4878570000000  0.4804410000000 1.0
C      1  0.4804830000000  0.5569580000000  0.5215230000000 1.0
C      1  0.5354850000000  0.4582360000000  0.5139010000000 1.0
C      1  0.4629900000000  0.4584890000000  0.4837220000000 1.0
C      1  0.5080190000000  0.5751020000000  0.4604210000000 1.0
C      1  0.5583210000000  0.4798880000000  0.5222580000000 1.0
C      1  0.4585390000000  0.5355800000000  0.5161730000000 1.0
C      1  0.4403000000000  0.4778050000000  0.4743450000000 1.0
C      1  0.5550520000000  0.5205710000000  0.4820730000000 1.0
C      1  0.4461170000000  0.4634920000000  0.5194350000000 1.0
C      1  0.5627620000000  0.5344920000000  0.5193090000000 1.0
C      1  0.4420300000000  0.5391310000000  0.4778210000000 1.0
C      1  0.5552780000000  0.4653960000000  0.4801420000000 1.0
C      1  0.4585870000000  0.4375740000000  0.5183980000000 1.0
C      1  0.5392840000000  0.5472080000000  0.5162490000000 1.0
C      1  0.5433030000000  0.4390940000000  0.4797250000000 1.0
C      1  0.4666520000000  0.5512030000000  0.4804660000000 1.0
C      1  0.5006900000000  0.4971270000000  0.4434830000000 1.0
C      1  0.4975790000000  0.4958220000000  0.5543930000000 1.0
END
