TITL C-3289320-4661-307 -0.00172615144102693 125000 -657.968634203823 0 0 118 (C1) n - 1
REM
REM in /nfs/bkarasulu/CARBON/AIRSS/Generating-Clusters/AIREBO/with-SteepDescent/Higher-Symm/SD-CG/HFTN-CG
REM
REM
REM
REM
REM
REM ./C.cell (b20cbc046b6831c77cfcea5457e17084)
REM
REM compiler GCC version 9.2.1 20190827 (Red Hat 9.2.1-1)
REM options -cpp -mtune=generic -march=x86-64 -g -O0 -fpre-include=/usr/include/finclude/math-vector-fortran.h
REM seed 387968583 -271591978 -560119293 -310089878 -997244521 268123769 -2085631730 -380330937 -273587259 1134706026 419373540 247659387 -948175970 -597255360 1440141581 -655164139 1753845069 -222748565 -491475597 -1686710439 -443182360 1092794369 -1790061041 1254286659 -1642938100 1374349992 -471136783 1343116614 1938216575 968377711 -976973555 -1380171466 -1457675440
REM
CELL 1.54180   50.00000   50.00000   50.00000   90.00000   90.00000   90.00000
LATT -1
SFAC C  
C      1  0.5663050000000  0.5397030000000  0.5538760000000 1.0
C      1  0.5562500000000  0.5634520000000  0.4751230000000 1.0
C      1  0.5579060000000  0.5019770000000  0.4322750000000 1.0
C      1  0.5558080000000  0.4320840000000  0.4814580000000 1.0
C      1  0.5491640000000  0.4562510000000  0.5575040000000 1.0
C      1  0.4283070000000  0.5436910000000  0.4356980000000 1.0
C      1  0.4415130000000  0.5646990000000  0.5222070000000 1.0
C      1  0.4457130000000  0.4997130000000  0.5728490000000 1.0
C      1  0.4437010000000  0.4330120000000  0.5202790000000 1.0
C      1  0.4468320000000  0.4591860000000  0.4437590000000 1.0
C      1  0.5604620000000  0.4399230000000  0.5377400000000 1.0
C      1  0.5743750000000  0.5125460000000  0.5583360000000 1.0
C      1  0.5699030000000  0.5622480000000  0.4997520000000 1.0
C      1  0.5641530000000  0.5273080000000  0.4436170000000 1.0
C      1  0.5666110000000  0.4520570000000  0.4634330000000 1.0
C      1  0.4353590000000  0.4455780000000  0.4654880000000 1.0
C      1  0.4258090000000  0.5149880000000  0.4377530000000 1.0
C      1  0.4310320000000  0.5577910000000  0.4972340000000 1.0
C      1  0.4337950000000  0.5242620000000  0.5644870000000 1.0
C      1  0.4305930000000  0.4511960000000  0.5375330000000 1.0
C      1  0.4812340000000  0.4603480000000  0.4236840000000 1.0
C      1  0.4804170000000  0.4098830000000  0.5189150000000 1.0
C      1  0.4715810000000  0.4890080000000  0.6010440000000 1.0
C      1  0.4790530000000  0.5825970000000  0.5402090000000 1.0
C      1  0.4770560000000  0.5582390000000  0.4348660000000 1.0
C      1  0.5155790000000  0.4606540000000  0.5779600000000 1.0
C      1  0.5187490000000  0.4061460000000  0.4847500000000 1.0
C      1  0.5290520000000  0.4919260000000  0.4065050000000 1.0
C      1  0.5148610000000  0.5826500000000  0.4617870000000 1.0
C      1  0.5255730000000  0.5646540000000  0.5604820000000 1.0
C      1  0.4702400000000  0.5466860000000  0.5250730000000 1.0
C      1  0.4726950000000  0.5326880000000  0.4651190000000 1.0
C      1  0.4711970000000  0.4826480000000  0.4473340000000 1.0
C      1  0.4721500000000  0.4476260000000  0.5086780000000 1.0
C      1  0.4700790000000  0.4908360000000  0.5508000000000 1.0
C      1  0.5271530000000  0.5461190000000  0.4718510000000 1.0
C      1  0.5325610000000  0.5370800000000  0.5418380000000 1.0
C      1  0.5265760000000  0.4814220000000  0.5537990000000 1.0
C      1  0.5260890000000  0.4446690000000  0.4922170000000 1.0
C      1  0.5297530000000  0.4898020000000  0.4469470000000 1.0
C      1  0.5545490000000  0.5752170000000  0.5205220000000 1.0
C      1  0.5448630000000  0.5480820000000  0.4361600000000 1.0
C      1  0.5463440000000  0.4542630000000  0.4420970000000 1.0
C      1  0.5436000000000  0.4168130000000  0.5272460000000 1.0
C      1  0.5549070000000  0.4996360000000  0.5768620000000 1.0
C      1  0.4493280000000  0.5636220000000  0.4748160000000 1.0
C      1  0.4523490000000  0.5481880000000  0.5646800000000 1.0
C      1  0.4506940000000  0.4565290000000  0.5576090000000 1.0
C      1  0.4529200000000  0.4227170000000  0.4752030000000 1.0
C      1  0.4444720000000  0.5003740000000  0.4192390000000 1.0
C      1  0.4176750000000  0.5272620000000  0.4961170000000 1.0
C      1  0.4276120000000  0.5034290000000  0.4659580000000 1.0
C      1  0.4245800000000  0.4618100000000  0.4860940000000 1.0
C      1  0.4139160000000  0.4724180000000  0.5232470000000 1.0
C      1  0.4268690000000  0.5160740000000  0.5379440000000 1.0
C      1  0.5793100000000  0.5367820000000  0.5073850000000 1.0
C      1  0.5744690000000  0.4958990000000  0.5286820000000 1.0
C      1  0.5721800000000  0.4541440000000  0.5161450000000 1.0
C      1  0.5784650000000  0.4791110000000  0.4732540000000 1.0
C      1  0.5686550000000  0.5256730000000  0.4710720000000 1.0
C      1  0.5448740000000  0.4811750000000  0.5267340000000 1.0
C      1  0.5539660000000  0.5197950000000  0.5218580000000 1.0
C      1  0.5415010000000  0.5221600000000  0.4912460000000 1.0
C      1  0.5472380000000  0.4922960000000  0.4760310000000 1.0
C      1  0.5488220000000  0.4693340000000  0.4971190000000 1.0
C      1  0.4541810000000  0.4856370000000  0.4742200000000 1.0
C      1  0.4487950000000  0.5241480000000  0.4826320000000 1.0
C      1  0.4462500000000  0.5250750000000  0.5144230000000 1.0
C      1  0.4430130000000  0.4885250000000  0.5303410000000 1.0
C      1  0.4493270000000  0.4725580000000  0.5049750000000 1.0
C      1  0.4742720000000  0.5615510000000  0.4947430000000 1.0
C      1  0.4651020000000  0.5203770000000  0.4342970000000 1.0
C      1  0.4755020000000  0.4395000000000  0.4668900000000 1.0
C      1  0.4766880000000  0.4524610000000  0.5420380000000 1.0
C      1  0.4731550000000  0.5240120000000  0.5576280000000 1.0
C      1  0.5269520000000  0.5727440000000  0.5100090000000 1.0
C      1  0.5314390000000  0.5175630000000  0.5698320000000 1.0
C      1  0.5210170000000  0.4338440000000  0.5365830000000 1.0
C      1  0.5184470000000  0.4555690000000  0.4622110000000 1.0
C      1  0.5202120000000  0.5334740000000  0.4347030000000 1.0
C      1  0.5418300000000  0.5758550000000  0.4498840000000 1.0
C      1  0.5519300000000  0.4725520000000  0.4191030000000 1.0
C      1  0.5444720000000  0.4099360000000  0.4991510000000 1.0
C      1  0.5476080000000  0.4723070000000  0.5855570000000 1.0
C      1  0.5566340000000  0.5681720000000  0.5482340000000 1.0
C      1  0.4523060000000  0.5725550000000  0.5494500000000 1.0
C      1  0.4521450000000  0.4714550000000  0.5808310000000 1.0
C      1  0.4545660000000  0.4124320000000  0.5015320000000 1.0
C      1  0.4501710000000  0.4729770000000  0.4153480000000 1.0
C      1  0.4499260000000  0.5601170000000  0.4462410000000 1.0
C      1  0.4889870000000  0.5185980000000  0.5291860000000 1.0
C      1  0.4912890000000  0.5346410000000  0.4935310000000 1.0
C      1  0.4920360000000  0.5061320000000  0.4423330000000 1.0
C      1  0.4814990000000  0.4670540000000  0.4822610000000 1.0
C      1  0.4899750000000  0.4791820000000  0.5257300000000 1.0
C      1  0.5100560000000  0.5188550000000  0.4636730000000 1.0
C      1  0.5196880000000  0.5400760000000  0.5105020000000 1.0
C      1  0.5081040000000  0.5063980000000  0.5493780000000 1.0
C      1  0.5182180000000  0.4608050000000  0.5211570000000 1.0
C      1  0.5080500000000  0.4861650000000  0.4729210000000 1.0
C      1  0.5064080000000  0.5393470000000  0.5718520000000 1.0
C      1  0.5138270000000  0.5917860000000  0.4885710000000 1.0
C      1  0.5123710000000  0.5187520000000  0.4103050000000 1.0
C      1  0.5111800000000  0.4230380000000  0.4607570000000 1.0
C      1  0.5078190000000  0.4340950000000  0.5631760000000 1.0
C      1  0.4861070000000  0.5354120000000  0.4140500000000 1.0
C      1  0.4912750000000  0.5832810000000  0.5108910000000 1.0
C      1  0.4896030000000  0.5132790000000  0.5851850000000 1.0
C      1  0.4840450000000  0.4215260000000  0.5445120000000 1.0
C      1  0.4891090000000  0.4359830000000  0.4409050000000 1.0
C      1  0.4973180000000  0.5558240000000  0.5435320000000 1.0
C      1  0.4918400000000  0.4808310000000  0.5752780000000 1.0
C      1  0.5044350000000  0.4825880000000  0.4253030000000 1.0
C      1  0.4973700000000  0.4274090000000  0.4980380000000 1.0
C      1  0.4967770000000  0.5562500000000  0.4604070000000 1.0
C      1  0.4163270000000  0.4931810000000  0.4963600000000 1.0
C      1  0.5797810000000  0.5048760000000  0.4955780000000 1.0
C      1  0.4948630000000  0.5014690000000  0.5003190000000 1.0
END
