TITL C-3289326-3776-373 0.00179671366698738 125000 -535.118501942101 0 0 100 (C1) n - 1
REM
REM in /nfs/bkarasulu/CARBON/AIRSS/Generating-Clusters/AIREBO/with-SteepDescent/Higher-Symm/SD-CG/HFTN-CG
REM
REM
REM
REM
REM
REM ./C.cell (b20cbc046b6831c77cfcea5457e17084)
REM
REM compiler GCC version 9.2.1 20190827 (Red Hat 9.2.1-1)
REM options -cpp -mtune=generic -march=x86-64 -g -O0 -fpre-include=/usr/include/finclude/math-vector-fortran.h
REM seed 1226362246 -2089699037 -2063067656 859806798 -300589321 -1946780647 1584495758 -1260340594 -376003447 -1334265831 622248924 75114091 446796649 -1304819117 -1957005885 1414992662 1778010703 1390640231 -1953981918 1683266798 -186310306 244228002 1404186686 -253693205 2060605998 651531457 -1541056774 1084134319 -49468278 7861576 -2049791175 -675714179 1689231714
REM
CELL 1.54180   50.00000   50.00000   50.00000   90.00000   90.00000   90.00000
LATT -1
SFAC C  
C      1  0.5211130000000  0.5069490000000  0.4305100000000 1.0
C      1  0.5115180000000  0.4802370000000  0.4303150000000 1.0
C      1  0.4837490000000  0.4803860000000  0.4284890000000 1.0
C      1  0.4755140000000  0.5073650000000  0.4288650000000 1.0
C      1  0.4984480000000  0.5235430000000  0.4313080000000 1.0
C      1  0.4699460000000  0.5119570000000  0.4787750000000 1.0
C      1  0.4995730000000  0.5281190000000  0.4847730000000 1.0
C      1  0.5249980000000  0.5058610000000  0.4794740000000 1.0
C      1  0.5128930000000  0.4743210000000  0.4833790000000 1.0
C      1  0.4793810000000  0.4792090000000  0.4781990000000 1.0
C      1  0.4272390000000  0.4806170000000  0.5243140000000 1.0
C      1  0.4595800000000  0.5577860000000  0.5220480000000 1.0
C      1  0.5513250000000  0.5557120000000  0.5291330000000 1.0
C      1  0.5715910000000  0.4804840000000  0.5357330000000 1.0
C      1  0.5034640000000  0.4303530000000  0.5218890000000 1.0
C      1  0.4404660000000  0.5300420000000  0.4832210000000 1.0
C      1  0.5106770000000  0.5599180000000  0.4895690000000 1.0
C      1  0.5576140000000  0.4996110000000  0.4867810000000 1.0
C      1  0.5246350000000  0.4430070000000  0.4896350000000 1.0
C      1  0.4512740000000  0.4610570000000  0.4843500000000 1.0
C      1  0.5222360000000  0.4626280000000  0.4528300000000 1.0
C      1  0.4702920000000  0.4638180000000  0.4493800000000 1.0
C      1  0.4558500000000  0.5149330000000  0.4495510000000 1.0
C      1  0.4982880000000  0.5432520000000  0.4543350000000 1.0
C      1  0.5421450000000  0.5110340000000  0.4518370000000 1.0
C      1  0.5635960000000  0.4848900000000  0.5676810000000 1.0
C      1  0.5008510000000  0.4388820000000  0.5548380000000 1.0
C      1  0.4326980000000  0.4843910000000  0.5559170000000 1.0
C      1  0.4542050000000  0.5561140000000  0.5555760000000 1.0
C      1  0.5554300000000  0.5449740000000  0.5589330000000 1.0
C      1  0.5074970000000  0.4808960000000  0.5737530000000 1.0
C      1  0.4807520000000  0.4837770000000  0.5613690000000 1.0
C      1  0.4768850000000  0.5158540000000  0.5597840000000 1.0
C      1  0.5034130000000  0.5329470000000  0.5618580000000 1.0
C      1  0.5222140000000  0.5049700000000  0.5631540000000 1.0
C      1  0.4744240000000  0.5056120000000  0.5289060000000 1.0
C      1  0.4983440000000  0.5246460000000  0.5186530000000 1.0
C      1  0.5250370000000  0.5093470000000  0.5298610000000 1.0
C      1  0.5177990000000  0.4796180000000  0.5166220000000 1.0
C      1  0.4883260000000  0.4760630000000  0.5290820000000 1.0
C      1  0.5494920000000  0.4403090000000  0.5083560000000 1.0
C      1  0.4550570000000  0.4381420000000  0.5055480000000 1.0
C      1  0.4334810000000  0.5287740000000  0.5141930000000 1.0
C      1  0.5065300000000  0.5725240000000  0.5200650000000 1.0
C      1  0.5781610000000  0.5189420000000  0.5033000000000 1.0
C      1  0.5349110000000  0.5757230000000  0.4743040000000 1.0
C      1  0.5839680000000  0.4884040000000  0.4674640000000 1.0
C      1  0.5182390000000  0.4136670000000  0.4734640000000 1.0
C      1  0.4209130000000  0.4579530000000  0.4683660000000 1.0
C      1  0.4231730000000  0.5487960000000  0.4607100000000 1.0
C      1  0.5102900000000  0.4346440000000  0.4534150000000 1.0
C      1  0.4410170000000  0.4659480000000  0.4461000000000 1.0
C      1  0.4485220000000  0.5438770000000  0.4467090000000 1.0
C      1  0.5249690000000  0.5570600000000  0.4523740000000 1.0
C      1  0.5623210000000  0.4888050000000  0.4485950000000 1.0
C      1  0.4634160000000  0.4126080000000  0.4503390000000 1.0
C      1  0.4067020000000  0.5034070000000  0.4456800000000 1.0
C      1  0.4747540000000  0.5879570000000  0.4412530000000 1.0
C      1  0.5809210000000  0.5485050000000  0.4538680000000 1.0
C      1  0.5623540000000  0.4435090000000  0.4295080000000 1.0
C      1  0.4262300000000  0.4504150000000  0.5135970000000 1.0
C      1  0.4263770000000  0.5537160000000  0.5270340000000 1.0
C      1  0.5317350000000  0.5791000000000  0.5318250000000 1.0
C      1  0.5914120000000  0.5021390000000  0.5249380000000 1.0
C      1  0.5306560000000  0.4153230000000  0.5177370000000 1.0
C      1  0.5546500000000  0.5215600000000  0.5269640000000 1.0
C      1  0.5431470000000  0.4634240000000  0.5268060000000 1.0
C      1  0.4752010000000  0.4470260000000  0.5258070000000 1.0
C      1  0.4451350000000  0.5061090000000  0.5247140000000 1.0
C      1  0.4894130000000  0.5517230000000  0.5371970000000 1.0
C      1  0.4320930000000  0.4882040000000  0.4915020000000 1.0
C      1  0.4582980000000  0.5588410000000  0.4862400000000 1.0
C      1  0.5524240000000  0.5487780000000  0.4979210000000 1.0
C      1  0.5728590000000  0.4747640000000  0.5029990000000 1.0
C      1  0.4919730000000  0.4380660000000  0.4907460000000 1.0
C      1  0.4790380000000  0.5722450000000  0.5628820000000 1.0
C      1  0.5710900000000  0.5161050000000  0.5562210000000 1.0
C      1  0.5448900000000  0.4607430000000  0.5577400000000 1.0
C      1  0.4698030000000  0.4454580000000  0.5580240000000 1.0
C      1  0.4300130000000  0.5107700000000  0.5673520000000 1.0
C      1  0.5191540000000  0.4564200000000  0.5679080000000 1.0
C      1  0.4538570000000  0.4692850000000  0.5660260000000 1.0
C      1  0.4513420000000  0.5300150000000  0.5660230000000 1.0
C      1  0.5302140000000  0.5413230000000  0.5768650000000 1.0
C      1  0.5486500000000  0.5124240000000  0.5808950000000 1.0
C      1  0.5960180000000  0.4641670000000  0.4804660000000 1.0
C      1  0.4957000000000  0.3988840000000  0.4838390000000 1.0
C      1  0.4016460000000  0.4808910000000  0.4782200000000 1.0
C      1  0.4628050000000  0.5918420000000  0.4794020000000 1.0
C      1  0.5640120000000  0.5753310000000  0.4801230000000 1.0
C      1  0.4107050000000  0.5135790000000  0.4840700000000 1.0
C      1  0.4863750000000  0.5810710000000  0.4960530000000 1.0
C      1  0.5834420000000  0.5448730000000  0.4854820000000 1.0
C      1  0.5776540000000  0.4421370000000  0.4952870000000 1.0
C      1  0.4700930000000  0.4120650000000  0.4919080000000 1.0
C      1  0.4797070000000  0.4366900000000  0.4590480000000 1.0
C      1  0.4337690000000  0.4943590000000  0.4580760000000 1.0
C      1  0.4730290000000  0.5613310000000  0.4556820000000 1.0
C      1  0.5498130000000  0.5399500000000  0.4646060000000 1.0
C      1  0.5511060000000  0.4641230000000  0.4434800000000 1.0
END
