TITL C-3289331-6719-520 -0.000538974442808857 125000 -120.302544046189 0 0 23 (C1) n - 1
REM
REM in /nfs/bkarasulu/CARBON/AIRSS/Generating-Clusters/AIREBO/with-SteepDescent/Higher-Symm/SD-CG/HFTN-CG
REM
REM
REM
REM
REM
REM ./C.cell (b20cbc046b6831c77cfcea5457e17084)
REM
REM compiler GCC version 9.2.1 20190827 (Red Hat 9.2.1-1)
REM options -cpp -mtune=generic -march=x86-64 -g -O0 -fpre-include=/usr/include/finclude/math-vector-fortran.h
REM seed 63323561 1318371275 -1553232410 1789003641 -24748140 1578124549 365580018 1102754622 878376732 -1092233397 -1050381999 -1976549135 1628256764 1887958162 1525166703 -1893215550 1106895337 1180722859 210218167 -15936496 1470157630 1794267322 -1118586107 160354313 -307519287 15846677 947686284 330490894 -1130604638 -555485509 -48200673 1363377395 1275185217
REM
CELL 1.54180   50.00000   50.00000   50.00000   90.00000   90.00000   90.00000
LATT -1
SFAC C  
C      1  0.4567290000000  0.4662400000000  0.4737730000000 1.0
C      1  0.5417550000000  0.5350760000000  0.5281730000000 1.0
C      1  0.4913370000000  0.4320620000000  0.5172940000000 1.0
C      1  0.5068710000000  0.5595260000000  0.4776290000000 1.0
C      1  0.4795930000000  0.4506940000000  0.4743430000000 1.0
C      1  0.5181920000000  0.5493150000000  0.5240870000000 1.0
C      1  0.4758120000000  0.5125460000000  0.4756530000000 1.0
C      1  0.5146600000000  0.4965810000000  0.5253660000000 1.0
C      1  0.4270720000000  0.5194470000000  0.5194310000000 1.0
C      1  0.5706580000000  0.4732340000000  0.4985750000000 1.0
C      1  0.4523120000000  0.4922840000000  0.4824090000000 1.0
C      1  0.5424930000000  0.5071840000000  0.5244940000000 1.0
C      1  0.5061410000000  0.5254680000000  0.4748990000000 1.0
C      1  0.4912360000000  0.4752360000000  0.5170650000000 1.0
C      1  0.4819210000000  0.4519330000000  0.5365540000000 1.0
C      1  0.5230620000000  0.5461150000000  0.4538420000000 1.0
C      1  0.4746040000000  0.5334690000000  0.5024740000000 1.0
C      1  0.5203370000000  0.4687830000000  0.5006880000000 1.0
C      1  0.5466770000000  0.4812900000000  0.5075820000000 1.0
C      1  0.4488060000000  0.5150300000000  0.5044360000000 1.0
C      1  0.4971980000000  0.5502980000000  0.5048940000000 1.0
C      1  0.5002870000000  0.4447830000000  0.4929440000000 1.0
C      1  0.4989320000000  0.5021360000000  0.4974390000000 1.0
END
