TITL C-3289328-6581-67 0.000819746905580841 125000 -580.126686030179 0 0 107 (C1) n - 1
REM
REM in /nfs/bkarasulu/CARBON/AIRSS/Generating-Clusters/AIREBO/with-SteepDescent/Higher-Symm/SD-CG/HFTN-CG
REM
REM
REM
REM
REM
REM ./C.cell (b20cbc046b6831c77cfcea5457e17084)
REM
REM compiler GCC version 9.2.1 20190827 (Red Hat 9.2.1-1)
REM options -cpp -mtune=generic -march=x86-64 -g -O0 -fpre-include=/usr/include/finclude/math-vector-fortran.h
REM seed -1972198601 -902032718 282768234 -68591207 239422859 2101820132 574291664 2108255236 1370777181 -365684188 1358730395 1517829164 915283043 1835060468 -1480480219 922255224 999174288 -940478930 798439756 -1004755952 1157082478 -889352063 -2106144906 1318878146 -1465207362 -199014001 886878733 299860446 1386757982 1725587806 89072880 1490160234 -2037488996
REM
CELL 1.54180   50.00000   50.00000   50.00000   90.00000   90.00000   90.00000
LATT -1
SFAC C  
C      1  0.4724610000000  0.4989730000000  0.5322630000000 1.0
C      1  0.4671400000000  0.4953080000000  0.4660880000000 1.0
C      1  0.5092570000000  0.5105070000000  0.4455890000000 1.0
C      1  0.5103440000000  0.5123180000000  0.5545350000000 1.0
C      1  0.5849640000000  0.4798160000000  0.4610150000000 1.0
C      1  0.5840530000000  0.4788130000000  0.5419620000000 1.0
C      1  0.5318520000000  0.5149020000000  0.4641180000000 1.0
C      1  0.5324530000000  0.5176330000000  0.5292040000000 1.0
C      1  0.4611170000000  0.4274500000000  0.5389630000000 1.0
C      1  0.4476190000000  0.4292350000000  0.4585750000000 1.0
C      1  0.4906300000000  0.5722650000000  0.4653460000000 1.0
C      1  0.4831690000000  0.5799980000000  0.5304250000000 1.0
C      1  0.5660840000000  0.4305930000000  0.4753060000000 1.0
C      1  0.5665070000000  0.4301210000000  0.5289410000000 1.0
C      1  0.5031780000000  0.4906580000000  0.5292570000000 1.0
C      1  0.4965330000000  0.4860110000000  0.4744640000000 1.0
C      1  0.4355690000000  0.5449580000000  0.5327030000000 1.0
C      1  0.4343140000000  0.5383030000000  0.4677740000000 1.0
C      1  0.4711360000000  0.5297530000000  0.5422980000000 1.0
C      1  0.4693480000000  0.5255440000000  0.4506700000000 1.0
C      1  0.4608590000000  0.4743580000000  0.4400550000000 1.0
C      1  0.4629580000000  0.4779410000000  0.5553940000000 1.0
C      1  0.4621730000000  0.5203850000000  0.4198270000000 1.0
C      1  0.4668740000000  0.5243250000000  0.5739700000000 1.0
C      1  0.4103630000000  0.5581830000000  0.5144840000000 1.0
C      1  0.4078500000000  0.5456800000000  0.4834350000000 1.0
C      1  0.4502760000000  0.4462370000000  0.4364540000000 1.0
C      1  0.4758330000000  0.4541370000000  0.5369870000000 1.0
C      1  0.5497130000000  0.4963300000000  0.5719720000000 1.0
C      1  0.5482380000000  0.4936300000000  0.4320990000000 1.0
C      1  0.4468270000000  0.5051410000000  0.5622330000000 1.0
C      1  0.4438200000000  0.5004650000000  0.4333990000000 1.0
C      1  0.5577590000000  0.5260730000000  0.4280690000000 1.0
C      1  0.5577150000000  0.5284650000000  0.5715670000000 1.0
C      1  0.4964400000000  0.5341410000000  0.5235350000000 1.0
C      1  0.4861010000000  0.5290610000000  0.4754960000000 1.0
C      1  0.5340180000000  0.4687410000000  0.4167260000000 1.0
C      1  0.5357260000000  0.4686610000000  0.5848090000000 1.0
C      1  0.5727660000000  0.5390120000000  0.5283530000000 1.0
C      1  0.5691380000000  0.5286360000000  0.4787340000000 1.0
C      1  0.4614920000000  0.5556980000000  0.4586810000000 1.0
C      1  0.4605890000000  0.5600120000000  0.5448240000000 1.0
C      1  0.4706070000000  0.5824070000000  0.4412830000000 1.0
C      1  0.4776820000000  0.5825210000000  0.5627910000000 1.0
C      1  0.5354710000000  0.4218990000000  0.4704710000000 1.0
C      1  0.5362900000000  0.4203500000000  0.5343270000000 1.0
C      1  0.5129020000000  0.4552220000000  0.5687300000000 1.0
C      1  0.5151480000000  0.4558200000000  0.4329620000000 1.0
C      1  0.4303940000000  0.5107780000000  0.4554090000000 1.0
C      1  0.4303510000000  0.5161050000000  0.5431530000000 1.0
C      1  0.4627740000000  0.4077150000000  0.4648450000000 1.0
C      1  0.4701540000000  0.4031710000000  0.5276620000000 1.0
C      1  0.5191040000000  0.4312070000000  0.4432290000000 1.0
C      1  0.5168760000000  0.4302330000000  0.5593560000000 1.0
C      1  0.5740460000000  0.4511650000000  0.5464300000000 1.0
C      1  0.5733990000000  0.4521320000000  0.4572080000000 1.0
C      1  0.5402680000000  0.5613320000000  0.4650970000000 1.0
C      1  0.5239720000000  0.5498510000000  0.5360090000000 1.0
C      1  0.5571490000000  0.5425380000000  0.4501280000000 1.0
C      1  0.5546860000000  0.5439890000000  0.5490590000000 1.0
C      1  0.4943270000000  0.4803070000000  0.4408910000000 1.0
C      1  0.4961420000000  0.4821960000000  0.5614610000000 1.0
C      1  0.5636440000000  0.5034400000000  0.4602360000000 1.0
C      1  0.5608420000000  0.5030260000000  0.5409130000000 1.0
C      1  0.5477490000000  0.4675160000000  0.5536420000000 1.0
C      1  0.5475570000000  0.4675970000000  0.4540130000000 1.0
C      1  0.5150660000000  0.5779200000000  0.5246630000000 1.0
C      1  0.5197780000000  0.5807660000000  0.4749030000000 1.0
C      1  0.4913910000000  0.5138100000000  0.4194570000000 1.0
C      1  0.4928390000000  0.5166050000000  0.5813130000000 1.0
C      1  0.4368290000000  0.4426680000000  0.4813630000000 1.0
C      1  0.4413190000000  0.4428850000000  0.5209970000000 1.0
C      1  0.4167290000000  0.5061340000000  0.5204890000000 1.0
C      1  0.4203100000000  0.4930630000000  0.4730250000000 1.0
C      1  0.5298570000000  0.4546930000000  0.4735430000000 1.0
C      1  0.5316790000000  0.4531230000000  0.5303900000000 1.0
C      1  0.4952970000000  0.4908070000000  0.5949880000000 1.0
C      1  0.4958420000000  0.4865330000000  0.4067880000000 1.0
C      1  0.5271500000000  0.3993950000000  0.5144670000000 1.0
C      1  0.5269920000000  0.4000910000000  0.4895770000000 1.0
C      1  0.4676870000000  0.5964270000000  0.4203770000000 1.0
C      1  0.4819750000000  0.5938040000000  0.5850240000000 1.0
C      1  0.5274950000000  0.5250300000000  0.4963760000000 1.0
C      1  0.4865830000000  0.5774510000000  0.4969250000000 1.0
C      1  0.5483330000000  0.4834070000000  0.5050060000000 1.0
C      1  0.5016640000000  0.5470730000000  0.4943870000000 1.0
C      1  0.4014620000000  0.5257690000000  0.5079270000000 1.0
C      1  0.4441220000000  0.5427350000000  0.4998590000000 1.0
C      1  0.4849230000000  0.4642970000000  0.5057870000000 1.0
C      1  0.4808320000000  0.3833660000000  0.4725410000000 1.0
C      1  0.4314380000000  0.4871630000000  0.5019400000000 1.0
C      1  0.5708830000000  0.4665310000000  0.5031100000000 1.0
C      1  0.5426020000000  0.5541640000000  0.4940670000000 1.0
C      1  0.5706190000000  0.5513270000000  0.5023860000000 1.0
C      1  0.5662310000000  0.5121110000000  0.5085880000000 1.0
C      1  0.5952250000000  0.4999800000000  0.5071900000000 1.0
C      1  0.4694320000000  0.5252080000000  0.5026530000000 1.0
C      1  0.4378650000000  0.5752160000000  0.5068560000000 1.0
C      1  0.5236800000000  0.5915230000000  0.5018880000000 1.0
C      1  0.4723010000000  0.4060270000000  0.4965680000000 1.0
C      1  0.4665260000000  0.4378490000000  0.5007200000000 1.0
C      1  0.5709780000000  0.4382340000000  0.5021180000000 1.0
C      1  0.4239580000000  0.4576870000000  0.5042180000000 1.0
C      1  0.4582960000000  0.5918820000000  0.5016000000000 1.0
C      1  0.5104130000000  0.4980460000000  0.4993170000000 1.0
C      1  0.5190210000000  0.4664310000000  0.5017690000000 1.0
C      1  0.4652620000000  0.4915600000000  0.4998600000000 1.0
END
