TITL C-3289325-7307-533 -487.963167276357 125000 -625.827338705035 0 0 119 (C1) n - 1
REM
REM in /nfs/bkarasulu/CARBON/AIRSS/Generating-Clusters/AIREBO/with-SteepDescent/Higher-Symm/SD-CG/HFTN-CG
REM
REM
REM
REM
REM
REM ./C.cell (b20cbc046b6831c77cfcea5457e17084)
REM
REM compiler GCC version 9.2.1 20190827 (Red Hat 9.2.1-1)
REM options -cpp -mtune=generic -march=x86-64 -g -O0 -fpre-include=/usr/include/finclude/math-vector-fortran.h
REM seed 554271228 -1033497697 159776525 1028292154 428717244 -675808764 872873878 1269101906 303112047 1760636181 -134057766 -2108218718 2111681268 -774070882 -1924535878 1419189536 1490171032 435054789 -1419841679 -58916630 80211832 -654206173 512786051 -827676629 2103024334 322769136 1262903284 1544726534 -519039335 2091034777 516169880 338668835 1834422320
REM
CELL 1.54180   50.00000   50.00000   50.00000   90.00000   90.00000   90.00000
LATT -1
SFAC C  
C      1  0.4166450000000  0.4646980000000  0.5331140000000 1.0
C      1  0.4156250000000  0.4874690000000  0.4513480000000 1.0
C      1  0.4132500000000  0.5528790000000  0.5130050000000 1.0
C      1  0.5844150000000  0.4643930000000  0.5303210000000 1.0
C      1  0.5828350000000  0.4859460000000  0.4501940000000 1.0
C      1  0.5778440000000  0.5491840000000  0.5144820000000 1.0
C      1  0.4598870000000  0.5127800000000  0.4784150000000 1.0
C      1  0.4536800000000  0.5248590000000  0.5268120000000 1.0
C      1  0.4582300000000  0.4701510000000  0.5014810000000 1.0
C      1  0.5421590000000  0.5109290000000  0.4723870000000 1.0
C      1  0.5361150000000  0.5171360000000  0.5258820000000 1.0
C      1  0.5395470000000  0.4686670000000  0.5027780000000 1.0
C      1  0.4406020000000  0.5168970000000  0.5724560000000 1.0
C      1  0.4401820000000  0.4241450000000  0.4778320000000 1.0
C      1  0.4470460000000  0.5607370000000  0.4442420000000 1.0
C      1  0.5622630000000  0.5151690000000  0.5762850000000 1.0
C      1  0.5610890000000  0.4225540000000  0.4765090000000 1.0
C      1  0.5601110000000  0.5534030000000  0.4421530000000 1.0
C      1  0.5201650000000  0.5335570000000  0.4209330000000 1.0
C      1  0.5137050000000  0.5444320000000  0.5778400000000 1.0
C      1  0.5196200000000  0.4128870000000  0.5124090000000 1.0
C      1  0.4877210000000  0.5265190000000  0.4283020000000 1.0
C      1  0.4841840000000  0.5466360000000  0.5665730000000 1.0
C      1  0.4864100000000  0.4202320000000  0.5117520000000 1.0
C      1  0.5590770000000  0.4689070000000  0.4391910000000 1.0
C      1  0.5564850000000  0.5588060000000  0.4968220000000 1.0
C      1  0.5614540000000  0.4606730000000  0.5511420000000 1.0
C      1  0.4430440000000  0.4746190000000  0.4444840000000 1.0
C      1  0.4392730000000  0.5687600000000  0.5073300000000 1.0
C      1  0.4433590000000  0.4610830000000  0.5504570000000 1.0
C      1  0.4810440000000  0.5749920000000  0.5004260000000 1.0
C      1  0.4958490000000  0.4640570000000  0.5496330000000 1.0
C      1  0.4816090000000  0.4649650000000  0.4413680000000 1.0
C      1  0.5082660000000  0.5677720000000  0.5147710000000 1.0
C      1  0.5242990000000  0.4563630000000  0.5650120000000 1.0
C      1  0.5099380000000  0.4763620000000  0.4390870000000 1.0
C      1  0.5785450000000  0.5679640000000  0.4301770000000 1.0
C      1  0.5846560000000  0.5162870000000  0.5900060000000 1.0
C      1  0.5805210000000  0.4065950000000  0.4686780000000 1.0
C      1  0.4368180000000  0.5778510000000  0.4269490000000 1.0
C      1  0.4203920000000  0.5167170000000  0.5898510000000 1.0
C      1  0.4206750000000  0.4077060000000  0.4711680000000 1.0
C      1  0.4008530000000  0.5218470000000  0.5213250000000 1.0
C      1  0.4059280000000  0.4716690000000  0.5011050000000 1.0
C      1  0.4040230000000  0.5136450000000  0.4696830000000 1.0
C      1  0.5907020000000  0.5209200000000  0.5282720000000 1.0
C      1  0.5932780000000  0.4709150000000  0.4977450000000 1.0
C      1  0.5966670000000  0.5140690000000  0.4742280000000 1.0
C      1  0.5321700000000  0.5732610000000  0.5578590000000 1.0
C      1  0.5451440000000  0.4323490000000  0.5409620000000 1.0
C      1  0.5418150000000  0.4920340000000  0.4207140000000 1.0
C      1  0.4545420000000  0.5726530000000  0.5374990000000 1.0
C      1  0.4601780000000  0.4336320000000  0.5392910000000 1.0
C      1  0.4580060000000  0.4999810000000  0.4274390000000 1.0
C      1  0.4170470000000  0.4957400000000  0.5192450000000 1.0
C      1  0.3944980000000  0.4813430000000  0.4761640000000 1.0
C      1  0.3973930000000  0.5332380000000  0.4902280000000 1.0
C      1  0.5804210000000  0.4948270000000  0.5156990000000 1.0
C      1  0.6033420000000  0.4834800000000  0.4731380000000 1.0
C      1  0.5994900000000  0.5300200000000  0.4967080000000 1.0
C      1  0.4815970000000  0.5724300000000  0.5512280000000 1.0
C      1  0.4897730000000  0.4243260000000  0.5431710000000 1.0
C      1  0.4820350000000  0.4997220000000  0.4081630000000 1.0
C      1  0.5093780000000  0.5798750000000  0.5437630000000 1.0
C      1  0.5157070000000  0.4276590000000  0.5519470000000 1.0
C      1  0.5112980000000  0.4954890000000  0.4138500000000 1.0
C      1  0.5163950000000  0.5222400000000  0.4914850000000 1.0
C      1  0.5141090000000  0.4913090000000  0.5236040000000 1.0
C      1  0.5156650000000  0.4831330000000  0.4833700000000 1.0
C      1  0.4837880000000  0.5224820000000  0.5006080000000 1.0
C      1  0.4830910000000  0.4957190000000  0.5192100000000 1.0
C      1  0.4862800000000  0.4845800000000  0.4885190000000 1.0
C      1  0.5160960000000  0.4381490000000  0.4674920000000 1.0
C      1  0.5133720000000  0.5571160000000  0.4646790000000 1.0
C      1  0.5201040000000  0.4960810000000  0.5633540000000 1.0
C      1  0.4851820000000  0.4421420000000  0.4630950000000 1.0
C      1  0.4830650000000  0.5602230000000  0.4713050000000 1.0
C      1  0.4870470000000  0.4954770000000  0.5592030000000 1.0
C      1  0.4760010000000  0.5217440000000  0.5484570000000 1.0
C      1  0.4804370000000  0.4455100000000  0.4940180000000 1.0
C      1  0.4831670000000  0.5300930000000  0.4609280000000 1.0
C      1  0.5155330000000  0.5254160000000  0.5516470000000 1.0
C      1  0.5199190000000  0.4414800000000  0.4972060000000 1.0
C      1  0.5221260000000  0.5302290000000  0.4528180000000 1.0
C      1  0.5467260000000  0.4409030000000  0.4549080000000 1.0
C      1  0.5445990000000  0.5658050000000  0.4657440000000 1.0
C      1  0.5494710000000  0.4871870000000  0.5689620000000 1.0
C      1  0.4517750000000  0.4436260000000  0.4569260000000 1.0
C      1  0.4507690000000  0.5701970000000  0.4750080000000 1.0
C      1  0.4546720000000  0.4890110000000  0.5673540000000 1.0
C      1  0.4740570000000  0.4620390000000  0.5756610000000 1.0
C      1  0.4626270000000  0.4464270000000  0.4243880000000 1.0
C      1  0.4618660000000  0.5980020000000  0.4920690000000 1.0
C      1  0.5437830000000  0.4614570000000  0.5904470000000 1.0
C      1  0.5259220000000  0.4486310000000  0.4302200000000 1.0
C      1  0.5306760000000  0.5809370000000  0.4928290000000 1.0
C      1  0.5523370000000  0.4219520000000  0.5093680000000 1.0
C      1  0.5521080000000  0.5236940000000  0.4276520000000 1.0
C      1  0.5464010000000  0.5441950000000  0.5683780000000 1.0
C      1  0.4500530000000  0.4249270000000  0.5094450000000 1.0
C      1  0.4521650000000  0.5321850000000  0.4361180000000 1.0
C      1  0.4479320000000  0.5474180000000  0.5593230000000 1.0
C      1  0.4256460000000  0.5342840000000  0.5391240000000 1.0
C      1  0.4318320000000  0.4518010000000  0.5051260000000 1.0
C      1  0.4349820000000  0.5152870000000  0.4570100000000 1.0
C      1  0.5620820000000  0.5332100000000  0.5408290000000 1.0
C      1  0.5671540000000  0.4507940000000  0.5038830000000 1.0
C      1  0.5703330000000  0.5170330000000  0.4549270000000 1.0
C      1  0.4671300000000  0.4723500000000  0.5334280000000 1.0
C      1  0.4681130000000  0.4839240000000  0.4633830000000 1.0
C      1  0.4642020000000  0.5484250000000  0.5073070000000 1.0
C      1  0.5342350000000  0.4703370000000  0.5363200000000 1.0
C      1  0.5372310000000  0.4807700000000  0.4587810000000 1.0
C      1  0.5310270000000  0.5440570000000  0.5074610000000 1.0
C      1  0.5015410000000  0.4605310000000  0.5162870000000 1.0
C      1  0.4971370000000  0.5382980000000  0.5275940000000 1.0
C      1  0.5045760000000  0.5037090000000  0.4586740000000 1.0
C      1  0.4452520000000  0.5011390000000  0.5067330000000 1.0
C      1  0.5529040000000  0.4999260000000  0.5027250000000 1.0
END
