TITL C-3289325-7307-656 -0.00214746678953722 125000 -826.457998898212 0 0 150 (C1) n - 1
REM
REM in /nfs/bkarasulu/CARBON/AIRSS/Generating-Clusters/AIREBO/with-SteepDescent/Higher-Symm/SD-CG/HFTN-CG
REM
REM
REM
REM
REM
REM ./C.cell (b20cbc046b6831c77cfcea5457e17084)
REM
REM compiler GCC version 9.2.1 20190827 (Red Hat 9.2.1-1)
REM options -cpp -mtune=generic -march=x86-64 -g -O0 -fpre-include=/usr/include/finclude/math-vector-fortran.h
REM seed 640008332 1158146283 -1628275480 1731697126 -582277267 1171280506 29748189 -2006202257 -360824418 -1489072651 1299518218 -158069903 -2031487181 324243285 573768758 -1551687190 340922327 787780307 922417408 -900535032 1021314071 -2080283201 -1085555107 -324576713 -1578623887 1482446230 -896261887 -1232319747 464041979 1122293072 1673756417 -1862818765 -841291514
REM
CELL 1.54180   50.00000   50.00000   50.00000   90.00000   90.00000   90.00000
LATT -1
SFAC C  
C      1  0.4722820000000  0.3778720000000  0.5139020000000 1.0
C      1  0.4705440000000  0.3916810000000  0.4895520000000 1.0
C      1  0.4945970000000  0.4013830000000  0.4751710000000 1.0
C      1  0.5199170000000  0.3904810000000  0.4809630000000 1.0
C      1  0.5302940000000  0.3969440000000  0.5064990000000 1.0
C      1  0.5183750000000  0.3826180000000  0.5280150000000 1.0
C      1  0.4907950000000  0.3877030000000  0.5329010000000 1.0
C      1  0.4860580000000  0.4964670000000  0.5286260000000 1.0
C      1  0.4577790000000  0.4800840000000  0.4981510000000 1.0
C      1  0.4789280000000  0.4779580000000  0.4721540000000 1.0
C      1  0.5029220000000  0.4878650000000  0.4501820000000 1.0
C      1  0.5233830000000  0.4967580000000  0.4758460000000 1.0
C      1  0.5233150000000  0.4742520000000  0.5135720000000 1.0
C      1  0.5157340000000  0.4862620000000  0.5441910000000 1.0
C      1  0.4956960000000  0.4480880000000  0.5824530000000 1.0
C      1  0.4327760000000  0.4637040000000  0.5375370000000 1.0
C      1  0.4317840000000  0.4591370000000  0.4668320000000 1.0
C      1  0.4659040000000  0.4610070000000  0.4334450000000 1.0
C      1  0.5411990000000  0.4581330000000  0.4427660000000 1.0
C      1  0.5694930000000  0.4642310000000  0.4861300000000 1.0
C      1  0.5671390000000  0.4631830000000  0.5602880000000 1.0
C      1  0.5286710000000  0.4447740000000  0.5906900000000 1.0
C      1  0.4521470000000  0.4692490000000  0.5721780000000 1.0
C      1  0.4032650000000  0.4620430000000  0.5056740000000 1.0
C      1  0.4261850000000  0.4305530000000  0.4280490000000 1.0
C      1  0.5077910000000  0.4468730000000  0.4091670000000 1.0
C      1  0.5815250000000  0.4385140000000  0.4338280000000 1.0
C      1  0.6040650000000  0.4371520000000  0.5179360000000 1.0
C      1  0.4651540000000  0.4242880000000  0.4891950000000 1.0
C      1  0.4936510000000  0.4339860000000  0.4733720000000 1.0
C      1  0.5206340000000  0.4452610000000  0.4843800000000 1.0
C      1  0.5319550000000  0.4267140000000  0.5108220000000 1.0
C      1  0.5103850000000  0.4339180000000  0.5344250000000 1.0
C      1  0.4853780000000  0.4156790000000  0.5416880000000 1.0
C      1  0.4745920000000  0.4360140000000  0.5172980000000 1.0
C      1  0.5277640000000  0.5745280000000  0.5168250000000 1.0
C      1  0.5047070000000  0.5646100000000  0.5346150000000 1.0
C      1  0.4780140000000  0.5767650000000  0.5243190000000 1.0
C      1  0.4697590000000  0.5607170000000  0.4957530000000 1.0
C      1  0.4792750000000  0.5813210000000  0.4724970000000 1.0
C      1  0.5103710000000  0.5803020000000  0.4673380000000 1.0
C      1  0.5282390000000  0.5605570000000  0.4885540000000 1.0
C      1  0.5951790000000  0.4641440000000  0.5084200000000 1.0
C      1  0.5493160000000  0.4666640000000  0.5828180000000 1.0
C      1  0.4777520000000  0.4714770000000  0.5933470000000 1.0
C      1  0.4054440000000  0.4749000000000  0.5314380000000 1.0
C      1  0.4175720000000  0.4550730000000  0.4367800000000 1.0
C      1  0.4841780000000  0.4638740000000  0.4074150000000 1.0
C      1  0.5689950000000  0.4629560000000  0.4311790000000 1.0
C      1  0.5478490000000  0.4567690000000  0.5112810000000 1.0
C      1  0.5137790000000  0.4559060000000  0.5559280000000 1.0
C      1  0.4632130000000  0.4768040000000  0.5412160000000 1.0
C      1  0.4503970000000  0.4539650000000  0.5115330000000 1.0
C      1  0.4639640000000  0.4482660000000  0.4649110000000 1.0
C      1  0.5184680000000  0.4716580000000  0.4264490000000 1.0
C      1  0.5383940000000  0.4663650000000  0.4725400000000 1.0
C      1  0.5100870000000  0.4227260000000  0.4257800000000 1.0
C      1  0.5645810000000  0.4236450000000  0.4523390000000 1.0
C      1  0.5714630000000  0.4323730000000  0.5131180000000 1.0
C      1  0.5395130000000  0.4343710000000  0.5614210000000 1.0
C      1  0.4497070000000  0.4389230000000  0.5638530000000 1.0
C      1  0.4231510000000  0.4365100000000  0.5064050000000 1.0
C      1  0.4506200000000  0.4223070000000  0.4474420000000 1.0
C      1  0.5924480000000  0.4919050000000  0.5270910000000 1.0
C      1  0.5430140000000  0.4943470000000  0.5845500000000 1.0
C      1  0.4607870000000  0.5020620000000  0.5931120000000 1.0
C      1  0.3979810000000  0.4939230000000  0.5501000000000 1.0
C      1  0.4212860000000  0.4844200000000  0.4377150000000 1.0
C      1  0.4930160000000  0.4921650000000  0.3979000000000 1.0
C      1  0.5753740000000  0.4928230000000  0.4332100000000 1.0
C      1  0.4181310000000  0.5396680000000  0.5483640000000 1.0
C      1  0.4174630000000  0.5249800000000  0.4679980000000 1.0
C      1  0.4844690000000  0.5242770000000  0.4050970000000 1.0
C      1  0.5627260000000  0.5240810000000  0.4288480000000 1.0
C      1  0.5923100000000  0.5205550000000  0.5106320000000 1.0
C      1  0.5601200000000  0.5384230000000  0.5748420000000 1.0
C      1  0.4794950000000  0.5310710000000  0.5963300000000 1.0
C      1  0.5259970000000  0.4956690000000  0.4062330000000 1.0
C      1  0.5838390000000  0.4880390000000  0.4658710000000 1.0
C      1  0.5715820000000  0.4907960000000  0.5479250000000 1.0
C      1  0.5159800000000  0.5010220000000  0.5731780000000 1.0
C      1  0.4439510000000  0.5011290000000  0.5659070000000 1.0
C      1  0.4087330000000  0.4757450000000  0.4819810000000 1.0
C      1  0.4509150000000  0.4894900000000  0.4327820000000 1.0
C      1  0.5208740000000  0.5339330000000  0.4598210000000 1.0
C      1  0.5291610000000  0.5267230000000  0.4920000000000 1.0
C      1  0.5195120000000  0.5184260000000  0.5208390000000 1.0
C      1  0.4971610000000  0.5336660000000  0.5375440000000 1.0
C      1  0.4761920000000  0.5246450000000  0.5123350000000 1.0
C      1  0.4724490000000  0.5305050000000  0.4803770000000 1.0
C      1  0.4905080000000  0.5303330000000  0.4532980000000 1.0
C      1  0.5871990000000  0.5489550000000  0.5264760000000 1.0
C      1  0.5313600000000  0.5471910000000  0.5857000000000 1.0
C      1  0.4509800000000  0.5406360000000  0.5896160000000 1.0
C      1  0.4121120000000  0.5342940000000  0.5172470000000 1.0
C      1  0.4289640000000  0.5388500000000  0.4401460000000 1.0
C      1  0.4964010000000  0.5503290000000  0.4160910000000 1.0
C      1  0.5728230000000  0.5463420000000  0.4507200000000 1.0
C      1  0.5361180000000  0.6168370000000  0.4927740000000 1.0
C      1  0.5267390000000  0.6050010000000  0.5162420000000 1.0
C      1  0.5052610000000  0.6172160000000  0.5297450000000 1.0
C      1  0.4803120000000  0.6067430000000  0.5220740000000 1.0
C      1  0.4651550000000  0.6190110000000  0.5020550000000 1.0
C      1  0.4677820000000  0.6097930000000  0.4763920000000 1.0
C      1  0.5253600000000  0.6083040000000  0.4691660000000 1.0
C      1  0.5353580000000  0.4249840000000  0.4403900000000 1.0
C      1  0.5693420000000  0.4309510000000  0.4791140000000 1.0
C      1  0.5622820000000  0.4393260000000  0.5441660000000 1.0
C      1  0.4753590000000  0.4272530000000  0.5678240000000 1.0
C      1  0.4326720000000  0.4307230000000  0.5388300000000 1.0
C      1  0.4299330000000  0.4266270000000  0.4745850000000 1.0
C      1  0.4800500000000  0.4294880000000  0.4319920000000 1.0
C      1  0.4612590000000  0.5013730000000  0.4068700000000 1.0
C      1  0.5555610000000  0.5018520000000  0.4064090000000 1.0
C      1  0.6004100000000  0.4927060000000  0.4932340000000 1.0
C      1  0.5637060000000  0.5113430000000  0.5729340000000 1.0
C      1  0.4935780000000  0.5003860000000  0.5923090000000 1.0
C      1  0.4168810000000  0.5109700000000  0.5593080000000 1.0
C      1  0.4099380000000  0.4959520000000  0.4609330000000 1.0
C      1  0.4484400000000  0.5404200000000  0.5608310000000 1.0
C      1  0.4264660000000  0.5214030000000  0.4986690000000 1.0
C      1  0.4587450000000  0.5319780000000  0.4429170000000 1.0
C      1  0.5271280000000  0.5420290000000  0.4279920000000 1.0
C      1  0.5713590000000  0.5169950000000  0.4668260000000 1.0
C      1  0.5570290000000  0.5302860000000  0.5259210000000 1.0
C      1  0.5095460000000  0.5302090000000  0.5690310000000 1.0
C      1  0.4568770000000  0.5611650000000  0.4579290000000 1.0
C      1  0.5084350000000  0.5763800000000  0.4348690000000 1.0
C      1  0.5545060000000  0.5668450000000  0.4677550000000 1.0
C      1  0.5568270000000  0.5642020000000  0.5280270000000 1.0
C      1  0.5152000000000  0.5694400000000  0.5657030000000 1.0
C      1  0.4623520000000  0.5674910000000  0.5502740000000 1.0
C      1  0.4388420000000  0.5612530000000  0.5046800000000 1.0
C      1  0.5068070000000  0.5137630000000  0.4284810000000 1.0
C      1  0.5432140000000  0.5110890000000  0.4522360000000 1.0
C      1  0.5629330000000  0.5237010000000  0.4946640000000 1.0
C      1  0.5435200000000  0.5051880000000  0.5390120000000 1.0
C      1  0.4703700000000  0.5166950000000  0.5510310000000 1.0
C      1  0.4502840000000  0.5070290000000  0.5039200000000 1.0
C      1  0.4619200000000  0.5041100000000  0.4607280000000 1.0
C      1  0.4329180000000  0.5540420000000  0.4766880000000 1.0
C      1  0.4753140000000  0.5705650000000  0.4329650000000 1.0
C      1  0.5406430000000  0.5697860000000  0.4398360000000 1.0
C      1  0.5665590000000  0.5747280000000  0.4971870000000 1.0
C      1  0.5487970000000  0.5655560000000  0.5587180000000 1.0
C      1  0.4850800000000  0.5531830000000  0.5702960000000 1.0
C      1  0.4347990000000  0.5637220000000  0.5317540000000 1.0
C      1  0.5004710000000  0.4511180000000  0.5088210000000 1.0
C      1  0.5081410000000  0.6381800000000  0.5463340000000 1.0
C      1  0.4983030000000  0.4892320000000  0.4977260000000 1.0
END
