TITL C-3289321-8710-232 0.00251914297881547 125000 -467.55020535107 0 0 87 (C1) n - 1
REM
REM in /nfs/bkarasulu/CARBON/AIRSS/Generating-Clusters/AIREBO/with-SteepDescent/Higher-Symm/SD-CG/HFTN-CG
REM
REM
REM
REM
REM
REM ./C.cell (b20cbc046b6831c77cfcea5457e17084)
REM
REM compiler GCC version 9.2.1 20190827 (Red Hat 9.2.1-1)
REM options -cpp -mtune=generic -march=x86-64 -g -O0 -fpre-include=/usr/include/finclude/math-vector-fortran.h
REM seed 590504562 -2093424751 -1008810399 823789957 1223604833 -66369514 -1647158576 -242141480 -793430733 97439653 -1882198193 -785140001 467750801 435170947 1398282072 -236353200 -1998112333 -689247168 1295707487 -73720977 -5273053 -838528550 197595714 365372357 523248491 -1222299067 -150234197 1729991789 380759039 -382623301 -1097963186 -2130495927 -1730847853
REM
CELL 1.54180   50.00000   50.00000   50.00000   90.00000   90.00000   90.00000
LATT -1
SFAC C  
C      1  0.4654290000000  0.5319480000000  0.6112070000000 1.0
C      1  0.5629230000000  0.5220860000000  0.5691080000000 1.0
C      1  0.5745650000000  0.5202890000000  0.4532910000000 1.0
C      1  0.4526830000000  0.5317790000000  0.3940170000000 1.0
C      1  0.4059460000000  0.5167820000000  0.4888440000000 1.0
C      1  0.5316780000000  0.4398740000000  0.4342330000000 1.0
C      1  0.4450430000000  0.4332490000000  0.4482020000000 1.0
C      1  0.4416640000000  0.4449660000000  0.5282060000000 1.0
C      1  0.5162420000000  0.4467950000000  0.5724560000000 1.0
C      1  0.5667930000000  0.4349110000000  0.5006080000000 1.0
C      1  0.4887590000000  0.5317790000000  0.5683230000000 1.0
C      1  0.5664170000000  0.5325640000000  0.5307160000000 1.0
C      1  0.5454860000000  0.5458270000000  0.4275740000000 1.0
C      1  0.4667560000000  0.5309490000000  0.4408310000000 1.0
C      1  0.4255940000000  0.5375280000000  0.5163840000000 1.0
C      1  0.5596470000000  0.5158050000000  0.4795640000000 1.0
C      1  0.4978110000000  0.5234950000000  0.4424950000000 1.0
C      1  0.4383590000000  0.5220700000000  0.4885980000000 1.0
C      1  0.4697400000000  0.5228590000000  0.5448780000000 1.0
C      1  0.5387530000000  0.5184450000000  0.5454720000000 1.0
C      1  0.5014550000000  0.4928310000000  0.5298880000000 1.0
C      1  0.5377690000000  0.4947210000000  0.5133510000000 1.0
C      1  0.5289300000000  0.4919270000000  0.4707710000000 1.0
C      1  0.4897230000000  0.4857240000000  0.4734030000000 1.0
C      1  0.4552600000000  0.4972450000000  0.4981410000000 1.0
C      1  0.3950100000000  0.5268580000000  0.5143090000000 1.0
C      1  0.4850160000000  0.5210780000000  0.5953300000000 1.0
C      1  0.5880980000000  0.5279070000000  0.5545980000000 1.0
C      1  0.5672440000000  0.5289440000000  0.4275950000000 1.0
C      1  0.4506680000000  0.5201060000000  0.4187810000000 1.0
C      1  0.5148670000000  0.5842730000000  0.4768650000000 1.0
C      1  0.4822830000000  0.5865760000000  0.4774430000000 1.0
C      1  0.4736950000000  0.5863230000000  0.5091080000000 1.0
C      1  0.5003170000000  0.5853270000000  0.5280910000000 1.0
C      1  0.5258760000000  0.5834140000000  0.5073640000000 1.0
C      1  0.4676390000000  0.5632880000000  0.4484720000000 1.0
C      1  0.4388180000000  0.5672700000000  0.5126710000000 1.0
C      1  0.4920070000000  0.5640830000000  0.5609400000000 1.0
C      1  0.5549510000000  0.5628080000000  0.5251660000000 1.0
C      1  0.5415180000000  0.5644350000000  0.4533910000000 1.0
C      1  0.5187090000000  0.5434260000000  0.5568850000000 1.0
C      1  0.5594460000000  0.5416720000000  0.4987070000000 1.0
C      1  0.5146560000000  0.5487150000000  0.4392180000000 1.0
C      1  0.4521680000000  0.5417920000000  0.4698000000000 1.0
C      1  0.4512870000000  0.5462110000000  0.5365370000000 1.0
C      1  0.5425610000000  0.5656000000000  0.4848240000000 1.0
C      1  0.4980100000000  0.5718550000000  0.4512740000000 1.0
C      1  0.4551070000000  0.5698930000000  0.4857840000000 1.0
C      1  0.4709170000000  0.5714000000000  0.5383660000000 1.0
C      1  0.5263460000000  0.5677020000000  0.5376370000000 1.0
C      1  0.5518720000000  0.4530840000000  0.4872270000000 1.0
C      1  0.5094880000000  0.4577370000000  0.4528000000000 1.0
C      1  0.4636710000000  0.4451780000000  0.4736720000000 1.0
C      1  0.4631330000000  0.4621230000000  0.5343160000000 1.0
C      1  0.5313660000000  0.4565040000000  0.5508520000000 1.0
C      1  0.4676330000000  0.4265980000000  0.3994420000000 1.0
C      1  0.4399930000000  0.3973320000000  0.5159180000000 1.0
C      1  0.4759740000000  0.4194350000000  0.5765970000000 1.0
C      1  0.5627870000000  0.4021120000000  0.5365530000000 1.0
C      1  0.5283530000000  0.3949970000000  0.4597000000000 1.0
C      1  0.6146920000000  0.5262510000000  0.5573940000000 1.0
C      1  0.5804080000000  0.5213370000000  0.4054060000000 1.0
C      1  0.4356410000000  0.4975590000000  0.4231600000000 1.0
C      1  0.3720430000000  0.5292530000000  0.5278820000000 1.0
C      1  0.4997530000000  0.4993150000000  0.6032350000000 1.0
C      1  0.4865840000000  0.4462170000000  0.5366800000000 1.0
C      1  0.5306030000000  0.4382080000000  0.5291410000000 1.0
C      1  0.5229090000000  0.4432030000000  0.4809860000000 1.0
C      1  0.4828590000000  0.4438990000000  0.4475660000000 1.0
C      1  0.4728400000000  0.4286810000000  0.4970990000000 1.0
C      1  0.5560040000000  0.4832540000000  0.4888220000000 1.0
C      1  0.5080250000000  0.4908710000000  0.4452060000000 1.0
C      1  0.4631330000000  0.4742390000000  0.4796360000000 1.0
C      1  0.4674280000000  0.4923700000000  0.5295140000000 1.0
C      1  0.5298820000000  0.4855640000000  0.5451350000000 1.0
C      1  0.5271260000000  0.5220010000000  0.4861110000000 1.0
C      1  0.4984720000000  0.5176590000000  0.4730620000000 1.0
C      1  0.4776430000000  0.5199930000000  0.4954890000000 1.0
C      1  0.4913720000000  0.5231930000000  0.5214450000000 1.0
C      1  0.5218350000000  0.5245730000000  0.5166620000000 1.0
C      1  0.5539850000000  0.4234470000000  0.5228720000000 1.0
C      1  0.5263780000000  0.4219580000000  0.4574490000000 1.0
C      1  0.4658800000000  0.4339150000000  0.4246860000000 1.0
C      1  0.4507960000000  0.4218270000000  0.5139950000000 1.0
C      1  0.4918810000000  0.4361700000000  0.5629310000000 1.0
C      1  0.5035850000000  0.4374780000000  0.5084870000000 1.0
C      1  0.5085580000000  0.4890580000000  0.4989760000000 1.0
END
