TITL C-3289328-6581-566 -0.000695278085268679 125000 -523.050644601194 0 0 93 (C1) n - 1
REM
REM in /nfs/bkarasulu/CARBON/AIRSS/Generating-Clusters/AIREBO/with-SteepDescent/Higher-Symm/SD-CG/HFTN-CG
REM
REM
REM
REM
REM
REM ./C.cell (b20cbc046b6831c77cfcea5457e17084)
REM
REM compiler GCC version 9.2.1 20190827 (Red Hat 9.2.1-1)
REM options -cpp -mtune=generic -march=x86-64 -g -O0 -fpre-include=/usr/include/finclude/math-vector-fortran.h
REM seed -1357533442 123179271 -1464403853 -1524237176 1909833220 401790477 -1826561770 -890333757 -1149770207 -338238616 1727160936 1615148583 -646986755 -1738081715 1421043210 1252490952 -810601535 1790219702 -41584644 1513916756 -54984649 -1182336333 1994965147 -962742887 -397230747 542439230 -216006716 1299525101 1482122135 -84866283 2092964932 -437094205 -1985696559
REM
CELL 1.54180   50.00000   50.00000   50.00000   90.00000   90.00000   90.00000
LATT -1
SFAC C  
C      1  0.5221140000000  0.4659510000000  0.4619100000000 1.0
C      1  0.4782360000000  0.4628030000000  0.4642980000000 1.0
C      1  0.5364540000000  0.4360270000000  0.4404650000000 1.0
C      1  0.4642060000000  0.4266040000000  0.4459580000000 1.0
C      1  0.4653080000000  0.4833320000000  0.5118200000000 1.0
C      1  0.5282480000000  0.4924330000000  0.5059620000000 1.0
C      1  0.4830810000000  0.4772420000000  0.5586920000000 1.0
C      1  0.5141000000000  0.4824530000000  0.5590150000000 1.0
C      1  0.4717060000000  0.5014430000000  0.5375950000000 1.0
C      1  0.5209720000000  0.5019820000000  0.5364550000000 1.0
C      1  0.5168500000000  0.5784480000000  0.5260440000000 1.0
C      1  0.4864530000000  0.5854550000000  0.5216880000000 1.0
C      1  0.5152570000000  0.5644940000000  0.4678920000000 1.0
C      1  0.4913840000000  0.5718880000000  0.4654260000000 1.0
C      1  0.5573980000000  0.5033890000000  0.4499840000000 1.0
C      1  0.4482490000000  0.5019710000000  0.4585280000000 1.0
C      1  0.5642640000000  0.5484450000000  0.4756390000000 1.0
C      1  0.4362080000000  0.5449490000000  0.4771110000000 1.0
C      1  0.4260610000000  0.5060550000000  0.5318790000000 1.0
C      1  0.5686260000000  0.5084690000000  0.5340510000000 1.0
C      1  0.5330590000000  0.5437250000000  0.5593690000000 1.0
C      1  0.4719570000000  0.5415090000000  0.5643230000000 1.0
C      1  0.5585870000000  0.4931470000000  0.5875020000000 1.0
C      1  0.4383920000000  0.4895730000000  0.5861130000000 1.0
C      1  0.5285800000000  0.4990090000000  0.4665290000000 1.0
C      1  0.4750030000000  0.4931010000000  0.4742720000000 1.0
C      1  0.4396820000000  0.5450830000000  0.4429000000000 1.0
C      1  0.5635550000000  0.5424920000000  0.4448040000000 1.0
C      1  0.5637450000000  0.5551600000000  0.5032830000000 1.0
C      1  0.4344540000000  0.5575010000000  0.5074000000000 1.0
C      1  0.5438780000000  0.4357500000000  0.4985880000000 1.0
C      1  0.4525620000000  0.4308290000000  0.4962760000000 1.0
C      1  0.5296370000000  0.5146400000000  0.4118010000000 1.0
C      1  0.4719880000000  0.5152330000000  0.4193270000000 1.0
C      1  0.4322060000000  0.4768490000000  0.5155670000000 1.0
C      1  0.5607880000000  0.4845260000000  0.5119040000000 1.0
C      1  0.4576200000000  0.4355220000000  0.5590400000000 1.0
C      1  0.5318000000000  0.4432250000000  0.5606010000000 1.0
C      1  0.5477660000000  0.5149780000000  0.4896190000000 1.0
C      1  0.4573130000000  0.5117170000000  0.4957800000000 1.0
C      1  0.4862120000000  0.5602330000000  0.5439790000000 1.0
C      1  0.5184070000000  0.5664550000000  0.5535420000000 1.0
C      1  0.5385450000000  0.4370390000000  0.5327350000000 1.0
C      1  0.4544740000000  0.4288940000000  0.5307540000000 1.0
C      1  0.5613820000000  0.5339430000000  0.5553820000000 1.0
C      1  0.4491280000000  0.5240610000000  0.5492240000000 1.0
C      1  0.5754090000000  0.4866100000000  0.4847820000000 1.0
C      1  0.4216420000000  0.4822530000000  0.4863300000000 1.0
C      1  0.4484950000000  0.5171710000000  0.4355040000000 1.0
C      1  0.5558160000000  0.5158400000000  0.4236030000000 1.0
C      1  0.4271580000000  0.5401660000000  0.5288350000000 1.0
C      1  0.5749780000000  0.5406070000000  0.5248920000000 1.0
C      1  0.5360320000000  0.5667930000000  0.5092940000000 1.0
C      1  0.4623310000000  0.5699940000000  0.5134280000000 1.0
C      1  0.4268500000000  0.5127940000000  0.4808760000000 1.0
C      1  0.5768540000000  0.5170060000000  0.4725470000000 1.0
C      1  0.4269470000000  0.4772230000000  0.5498820000000 1.0
C      1  0.5677210000000  0.4803420000000  0.5508600000000 1.0
C      1  0.5140460000000  0.4197710000000  0.4375020000000 1.0
C      1  0.4889190000000  0.4331890000000  0.4373280000000 1.0
C      1  0.5688910000000  0.5147940000000  0.5799350000000 1.0
C      1  0.4348920000000  0.5129000000000  0.5772440000000 1.0
C      1  0.5123940000000  0.4381960000000  0.5109180000000 1.0
C      1  0.4825410000000  0.4312020000000  0.5119880000000 1.0
C      1  0.5417250000000  0.4711780000000  0.5696870000000 1.0
C      1  0.4514480000000  0.4673770000000  0.5672020000000 1.0
C      1  0.5157870000000  0.5219060000000  0.5619790000000 1.0
C      1  0.4918880000000  0.5267660000000  0.5766320000000 1.0
C      1  0.5741260000000  0.4634230000000  0.4695370000000 1.0
C      1  0.4258630000000  0.4617650000000  0.4681090000000 1.0
C      1  0.5262860000000  0.4655680000000  0.4292940000000 1.0
C      1  0.4927260000000  0.4648890000000  0.4348300000000 1.0
C      1  0.5136490000000  0.5401640000000  0.4154350000000 1.0
C      1  0.4854120000000  0.5407410000000  0.4193760000000 1.0
C      1  0.4832420000000  0.4621790000000  0.4979890000000 1.0
C      1  0.5167830000000  0.4650140000000  0.4931790000000 1.0
C      1  0.5102880000000  0.5256950000000  0.5187630000000 1.0
C      1  0.4824060000000  0.5321640000000  0.5270260000000 1.0
C      1  0.5092620000000  0.4344650000000  0.5722010000000 1.0
C      1  0.4845130000000  0.4454690000000  0.5671190000000 1.0
C      1  0.5621970000000  0.4553620000000  0.5194640000000 1.0
C      1  0.4298080000000  0.4448360000000  0.5159330000000 1.0
C      1  0.4688880000000  0.5496280000000  0.4689000000000 1.0
C      1  0.5220990000000  0.5325130000000  0.4649210000000 1.0
C      1  0.4515610000000  0.4438980000000  0.4695560000000 1.0
C      1  0.5478930000000  0.4459740000000  0.4704570000000 1.0
C      1  0.5325390000000  0.5449060000000  0.4377830000000 1.0
C      1  0.4686990000000  0.5579350000000  0.4359240000000 1.0
C      1  0.4860430000000  0.4916790000000  0.4167000000000 1.0
C      1  0.5155860000000  0.4906300000000  0.4141930000000 1.0
C      1  0.4691490000000  0.5401150000000  0.4991890000000 1.0
C      1  0.5273180000000  0.5390830000000  0.4978720000000 1.0
C      1  0.5017080000000  0.5013570000000  0.4862090000000 1.0
END
