TITL C-3289320-4661-741 0.00118960562502782 125000 -656.990380586993 0 0 113 (C1) n - 1
REM
REM in /nfs/bkarasulu/CARBON/AIRSS/Generating-Clusters/AIREBO/with-SteepDescent/Higher-Symm/SD-CG/HFTN-CG
REM
REM
REM
REM
REM
REM ./C.cell (b20cbc046b6831c77cfcea5457e17084)
REM
REM compiler GCC version 9.2.1 20190827 (Red Hat 9.2.1-1)
REM options -cpp -mtune=generic -march=x86-64 -g -O0 -fpre-include=/usr/include/finclude/math-vector-fortran.h
REM seed 2101614739 -373067637 -1115984597 244703491 1649891155 358770000 -1251914569 1460882666 -2072590890 -857674715 -1727041171 -1129577061 628402314 1435932387 -1468943485 -2053352864 -110065833 -294631585 1493778592 -1960806457 -888567925 517336497 -708391814 -1310861163 -792142155 -910439104 1379978393 1532108655 -844252590 653275759 -1198694798 1084616840 791747315
REM
CELL 1.54180   50.00000   50.00000   50.00000   90.00000   90.00000   90.00000
LATT -1
SFAC C  
C      1  0.4422760000000  0.4652800000000  0.4207010000000 1.0
C      1  0.4252540000000  0.4404580000000  0.4629070000000 1.0
C      1  0.4662990000000  0.4217270000000  0.4381890000000 1.0
C      1  0.5561320000000  0.5364610000000  0.4215650000000 1.0
C      1  0.5549640000000  0.4620790000000  0.5750900000000 1.0
C      1  0.4516020000000  0.5342920000000  0.5813660000000 1.0
C      1  0.5621600000000  0.5530390000000  0.4744560000000 1.0
C      1  0.5556360000000  0.4447920000000  0.5310730000000 1.0
C      1  0.4312570000000  0.5455870000000  0.5372390000000 1.0
C      1  0.5328000000000  0.5778840000000  0.4379810000000 1.0
C      1  0.5284760000000  0.4173490000000  0.5614600000000 1.0
C      1  0.4652860000000  0.5778470000000  0.5606180000000 1.0
C      1  0.4663290000000  0.4438800000000  0.4213320000000 1.0
C      1  0.4454350000000  0.4210890000000  0.4618680000000 1.0
C      1  0.4242790000000  0.4654420000000  0.4421640000000 1.0
C      1  0.5345010000000  0.5589630000000  0.4172480000000 1.0
C      1  0.4699220000000  0.5599340000000  0.5818410000000 1.0
C      1  0.5320680000000  0.4384860000000  0.5797550000000 1.0
C      1  0.5518050000000  0.5805680000000  0.4643160000000 1.0
C      1  0.4445450000000  0.5707320000000  0.5360350000000 1.0
C      1  0.5474740000000  0.4186970000000  0.5363960000000 1.0
C      1  0.5709900000000  0.5392360000000  0.4440670000000 1.0
C      1  0.4427520000000  0.5278100000000  0.5555690000000 1.0
C      1  0.5679160000000  0.4617360000000  0.5497170000000 1.0
C      1  0.4643300000000  0.4105520000000  0.4841930000000 1.0
C      1  0.4895160000000  0.4642140000000  0.4172230000000 1.0
C      1  0.4175680000000  0.4877970000000  0.4642380000000 1.0
C      1  0.5289750000000  0.5905340000000  0.4845510000000 1.0
C      1  0.5281940000000  0.4097380000000  0.5137980000000 1.0
C      1  0.4634320000000  0.5814730000000  0.5130060000000 1.0
C      1  0.5183130000000  0.5325390000000  0.4104990000000 1.0
C      1  0.5164660000000  0.4642140000000  0.5847670000000 1.0
C      1  0.4905730000000  0.5363800000000  0.5880500000000 1.0
C      1  0.5848030000000  0.5222820000000  0.4632340000000 1.0
C      1  0.5825340000000  0.4810740000000  0.5355600000000 1.0
C      1  0.4113610000000  0.5063090000000  0.5219430000000 1.0
C      1  0.4216520000000  0.4643670000000  0.4817090000000 1.0
C      1  0.4669580000000  0.4832770000000  0.4162280000000 1.0
C      1  0.4843800000000  0.4129950000000  0.4621150000000 1.0
C      1  0.5908330000000  0.5404320000000  0.4877130000000 1.0
C      1  0.4190090000000  0.5315590000000  0.5161360000000 1.0
C      1  0.5905430000000  0.4723810000000  0.5108830000000 1.0
C      1  0.5389880000000  0.5107970000000  0.4141540000000 1.0
C      1  0.4721660000000  0.5126570000000  0.5906990000000 1.0
C      1  0.5362300000000  0.4857930000000  0.5857980000000 1.0
C      1  0.5125870000000  0.5828000000000  0.4605570000000 1.0
C      1  0.4818370000000  0.5845780000000  0.5357320000000 1.0
C      1  0.5085390000000  0.4118630000000  0.5369790000000 1.0
C      1  0.4922700000000  0.4689290000000  0.5683130000000 1.0
C      1  0.5633210000000  0.4999630000000  0.4756690000000 1.0
C      1  0.4739580000000  0.5650630000000  0.4877270000000 1.0
C      1  0.5134010000000  0.5341800000000  0.5689940000000 1.0
C      1  0.5099850000000  0.4689290000000  0.4399780000000 1.0
C      1  0.4946680000000  0.5274050000000  0.4279970000000 1.0
C      1  0.4339420000000  0.5129300000000  0.4682960000000 1.0
C      1  0.4341850000000  0.4863120000000  0.5288880000000 1.0
C      1  0.5673000000000  0.5064230000000  0.5322820000000 1.0
C      1  0.5306610000000  0.4301520000000  0.4914060000000 1.0
C      1  0.5277530000000  0.5733750000000  0.5100880000000 1.0
C      1  0.4700830000000  0.4293040000000  0.5067190000000 1.0
C      1  0.4695390000000  0.4898520000000  0.5708890000000 1.0
C      1  0.4918230000000  0.5617640000000  0.4637600000000 1.0
C      1  0.5666850000000  0.4707540000000  0.4906110000000 1.0
C      1  0.5324180000000  0.5096740000000  0.5686620000000 1.0
C      1  0.4689020000000  0.5092280000000  0.4307360000000 1.0
C      1  0.5298670000000  0.4907620000000  0.4372630000000 1.0
C      1  0.5081150000000  0.4315820000000  0.4718790000000 1.0
C      1  0.4863360000000  0.4314220000000  0.5338240000000 1.0
C      1  0.5081780000000  0.5705650000000  0.5330600000000 1.0
C      1  0.4339510000000  0.5340270000000  0.4903600000000 1.0
C      1  0.5706970000000  0.5182170000000  0.5037560000000 1.0
C      1  0.4402860000000  0.4670770000000  0.5044810000000 1.0
C      1  0.5748070000000  0.5273480000000  0.5542270000000 1.0
C      1  0.5569950000000  0.5681820000000  0.5216860000000 1.0
C      1  0.5312130000000  0.5597210000000  0.5736020000000 1.0
C      1  0.4265300000000  0.4722870000000  0.5563180000000 1.0
C      1  0.4269310000000  0.5294300000000  0.4421790000000 1.0
C      1  0.5756670000000  0.4831350000000  0.4488240000000 1.0
C      1  0.4457020000000  0.4258290000000  0.5269480000000 1.0
C      1  0.4459340000000  0.5783570000000  0.4774890000000 1.0
C      1  0.5573070000000  0.4264290000000  0.4748690000000 1.0
C      1  0.4705140000000  0.4470810000000  0.5764980000000 1.0
C      1  0.4741520000000  0.5505710000000  0.4211830000000 1.0
C      1  0.5207550000000  0.4413740000000  0.4269670000000 1.0
C      1  0.5265210000000  0.5786900000000  0.5574900000000 1.0
C      1  0.5699010000000  0.5472280000000  0.5199460000000 1.0
C      1  0.5573450000000  0.5295620000000  0.5725290000000 1.0
C      1  0.4680940000000  0.4284530000000  0.5595850000000 1.0
C      1  0.5182640000000  0.4217830000000  0.4429850000000 1.0
C      1  0.4711790000000  0.5665030000000  0.4404950000000 1.0
C      1  0.4310630000000  0.4464920000000  0.5270500000000 1.0
C      1  0.5710880000000  0.4471800000000  0.4706820000000 1.0
C      1  0.4266880000000  0.5617560000000  0.4775190000000 1.0
C      1  0.4420970000000  0.4751140000000  0.5758700000000 1.0
C      1  0.5590010000000  0.4800470000000  0.4300040000000 1.0
C      1  0.4431000000000  0.5257690000000  0.4230690000000 1.0
C      1  0.5010170000000  0.5396960000000  0.5398410000000 1.0
C      1  0.5399830000000  0.4593220000000  0.5067120000000 1.0
C      1  0.5062840000000  0.5313170000000  0.4585490000000 1.0
C      1  0.4597930000000  0.5045290000000  0.5417630000000 1.0
C      1  0.4639970000000  0.5380750000000  0.5019940000000 1.0
C      1  0.4986100000000  0.4618130000000  0.5380980000000 1.0
C      1  0.5371120000000  0.4997380000000  0.5390380000000 1.0
C      1  0.5325280000000  0.5082550000000  0.4632790000000 1.0
C      1  0.4641380000000  0.5038630000000  0.4624200000000 1.0
C      1  0.4705650000000  0.4599260000000  0.4938280000000 1.0
C      1  0.5375950000000  0.5462080000000  0.4945380000000 1.0
C      1  0.4955280000000  0.4611550000000  0.4697980000000 1.0
C      1  0.5184450000000  0.5230920000000  0.4877180000000 1.0
C      1  0.4818020000000  0.5207240000000  0.5221840000000 1.0
C      1  0.5181780000000  0.4813510000000  0.5207450000000 1.0
C      1  0.4825670000000  0.4886860000000  0.4824860000000 1.0
C      1  0.5004440000000  0.5032340000000  0.5035400000000 1.0
END
