TITL C-3289327-5623-756 0.00299966052944099 125000 -283.023920567131 0 0 54 (C1) n - 1
REM
REM in /nfs/bkarasulu/CARBON/AIRSS/Generating-Clusters/AIREBO/with-SteepDescent/Higher-Symm/SD-CG/HFTN-CG
REM
REM
REM
REM
REM
REM ./C.cell (b20cbc046b6831c77cfcea5457e17084)
REM
REM compiler GCC version 9.2.1 20190827 (Red Hat 9.2.1-1)
REM options -cpp -mtune=generic -march=x86-64 -g -O0 -fpre-include=/usr/include/finclude/math-vector-fortran.h
REM seed 18006562 1494856992 -893939094 -963050888 -1218726934 -1420523330 1703597663 1755841297 1080063056 -1959536895 1398444531 511927543 -2142197933 1755012260 -2143819449 1575252920 720381704 -960335051 2086272257 -862289855 42172480 1101437828 1497181950 -1191525584 2075534586 2042870593 -425959341 -258256025 -1484294024 -1268952513 -569730242 1911506749 -2117478230
REM
CELL 1.54180   50.00000   50.00000   50.00000   90.00000   90.00000   90.00000
LATT -1
SFAC C  
C      1  0.4816540000000  0.4828820000000  0.5262060000000 1.0
C      1  0.4843630000000  0.5287360000000  0.5012520000000 1.0
C      1  0.4851480000000  0.4874700000000  0.4742190000000 1.0
C      1  0.5183430000000  0.4829340000000  0.4738560000000 1.0
C      1  0.5153980000000  0.5287570000000  0.4988750000000 1.0
C      1  0.5148460000000  0.4874550000000  0.5258430000000 1.0
C      1  0.5262970000000  0.5135280000000  0.4746620000000 1.0
C      1  0.5267010000000  0.4724740000000  0.5030110000000 1.0
C      1  0.5253410000000  0.5155850000000  0.5229120000000 1.0
C      1  0.4736170000000  0.5134500000000  0.5254280000000 1.0
C      1  0.4733160000000  0.4724540000000  0.4970410000000 1.0
C      1  0.4745670000000  0.5155870000000  0.4770980000000 1.0
C      1  0.4709360000000  0.4420160000000  0.4928830000000 1.0
C      1  0.4749550000000  0.5289730000000  0.5485800000000 1.0
C      1  0.4660140000000  0.5342170000000  0.4537340000000 1.0
C      1  0.5291160000000  0.4420340000000  0.5071430000000 1.0
C      1  0.5250720000000  0.5290410000000  0.4514910000000 1.0
C      1  0.5340700000000  0.5340900000000  0.5463060000000 1.0
C      1  0.5390310000000  0.5533140000000  0.5198090000000 1.0
C      1  0.5382040000000  0.4794260000000  0.4464540000000 1.0
C      1  0.5379200000000  0.4551610000000  0.5372620000000 1.0
C      1  0.4606410000000  0.5542360000000  0.4795590000000 1.0
C      1  0.4618180000000  0.4793430000000  0.5536220000000 1.0
C      1  0.4621240000000  0.4551590000000  0.4627730000000 1.0
C      1  0.5213370000000  0.4523290000000  0.4592990000000 1.0
C      1  0.5230700000000  0.4798920000000  0.5556090000000 1.0
C      1  0.5227590000000  0.5595350000000  0.4904670000000 1.0
C      1  0.4787060000000  0.4522680000000  0.5407510000000 1.0
C      1  0.4769570000000  0.4799210000000  0.4444510000000 1.0
C      1  0.4765630000000  0.5595480000000  0.5092270000000 1.0
C      1  0.4822590000000  0.5554480000000  0.5409380000000 1.0
C      1  0.4778310000000  0.5102540000000  0.4325190000000 1.0
C      1  0.4764030000000  0.4283160000000  0.5209490000000 1.0
C      1  0.5177340000000  0.5555400000000  0.4590530000000 1.0
C      1  0.5221720000000  0.5102340000000  0.5675510000000 1.0
C      1  0.5236600000000  0.4283570000000  0.4790690000000 1.0
C      1  0.4910160000000  0.4290690000000  0.4707560000000 1.0
C      1  0.4893720000000  0.5162300000000  0.5731060000000 1.0
C      1  0.4873090000000  0.5605690000000  0.4506450000000 1.0
C      1  0.5090480000000  0.4290530000000  0.5292610000000 1.0
C      1  0.5106570000000  0.5162900000000  0.4269470000000 1.0
C      1  0.5129280000000  0.5606040000000  0.5490420000000 1.0
C      1  0.5211300000000  0.5809350000000  0.5240660000000 1.0
C      1  0.5229920000000  0.4893340000000  0.4203830000000 1.0
C      1  0.5161010000000  0.4405820000000  0.5579890000000 1.0
C      1  0.4798240000000  0.5810540000000  0.4756620000000 1.0
C      1  0.4770430000000  0.4892740000000  0.5796820000000 1.0
C      1  0.4839570000000  0.4406180000000  0.4420380000000 1.0
C      1  0.4887850000000  0.5414860000000  0.4227770000000 1.0
C      1  0.5000370000000  0.4142570000000  0.5000020000000 1.0
C      1  0.5111770000000  0.5415310000000  0.5770940000000 1.0
C      1  0.4960400000000  0.4645490000000  0.5673040000000 1.0
C      1  0.4996380000000  0.5799940000000  0.5005970000000 1.0
C      1  0.5040040000000  0.4646060000000  0.4327440000000 1.0
END
