TITL C-3289326-3776-275 0.00128222869075174 125000 -464.90786668014 0 0 91 (C1) n - 1
REM
REM in /nfs/bkarasulu/CARBON/AIRSS/Generating-Clusters/AIREBO/with-SteepDescent/Higher-Symm/SD-CG/HFTN-CG
REM
REM
REM
REM
REM
REM ./C.cell (b20cbc046b6831c77cfcea5457e17084)
REM
REM compiler GCC version 9.2.1 20190827 (Red Hat 9.2.1-1)
REM options -cpp -mtune=generic -march=x86-64 -g -O0 -fpre-include=/usr/include/finclude/math-vector-fortran.h
REM seed -1310827178 230855830 -17019876 -1040368821 -1740734475 1933523806 -94607995 -790333936 -1840384077 1414956274 862567469 483591370 -608612239 -24967600 -1867733898 -1718771295 1749809005 1493058661 888410643 2141757429 1940749750 -2118310339 -558109288 1765162456 1556118802 -1794809688 101128060 -2064275258 -367000317 -319691033 278590745 1958466208 1826467837
REM
CELL 1.54180   50.00000   50.00000   50.00000   90.00000   90.00000   90.00000
LATT -1
SFAC C  
C      1  0.4645930000000  0.5537460000000  0.5192780000000 1.0
C      1  0.4794830000000  0.5558540000000  0.4635020000000 1.0
C      1  0.5363830000000  0.5577730000000  0.4826260000000 1.0
C      1  0.5202190000000  0.5573930000000  0.5375620000000 1.0
C      1  0.5366740000000  0.4462180000000  0.5204370000000 1.0
C      1  0.5218510000000  0.4430190000000  0.4637610000000 1.0
C      1  0.4619940000000  0.4438620000000  0.4820290000000 1.0
C      1  0.4789870000000  0.4423470000000  0.5365240000000 1.0
C      1  0.5097920000000  0.4256160000000  0.5173900000000 1.0
C      1  0.4768250000000  0.4198480000000  0.5123370000000 1.0
C      1  0.4901580000000  0.4245400000000  0.4822260000000 1.0
C      1  0.5233680000000  0.4195390000000  0.4874560000000 1.0
C      1  0.4902260000000  0.5756450000000  0.5185660000000 1.0
C      1  0.5231380000000  0.5801120000000  0.5130150000000 1.0
C      1  0.5094430000000  0.5766450000000  0.4821590000000 1.0
C      1  0.4774350000000  0.5792320000000  0.4879030000000 1.0
C      1  0.5713300000000  0.5376110000000  0.4430160000000 1.0
C      1  0.5574850000000  0.5351800000000  0.5713680000000 1.0
C      1  0.4306160000000  0.5366020000000  0.5583160000000 1.0
C      1  0.4448220000000  0.5362640000000  0.4294460000000 1.0
C      1  0.4284270000000  0.4630600000000  0.4429960000000 1.0
C      1  0.4434560000000  0.4638960000000  0.5714460000000 1.0
C      1  0.5700430000000  0.4639940000000  0.5579710000000 1.0
C      1  0.5567350000000  0.4630240000000  0.4280260000000 1.0
C      1  0.4363350000000  0.5283430000000  0.4805800000000 1.0
C      1  0.5195490000000  0.5288730000000  0.4374150000000 1.0
C      1  0.5649000000000  0.5297710000000  0.5189010000000 1.0
C      1  0.4830440000000  0.5309960000000  0.5639490000000 1.0
C      1  0.5652490000000  0.4696920000000  0.4807960000000 1.0
C      1  0.4809400000000  0.4685330000000  0.4401080000000 1.0
C      1  0.4326060000000  0.4687890000000  0.5199780000000 1.0
C      1  0.5166800000000  0.4687240000000  0.5625140000000 1.0
C      1  0.5199660000000  0.5030220000000  0.4264130000000 1.0
C      1  0.5763410000000  0.5039280000000  0.5218590000000 1.0
C      1  0.4803670000000  0.5044410000000  0.5742240000000 1.0
C      1  0.4245070000000  0.5027570000000  0.4792120000000 1.0
C      1  0.4805200000000  0.4944720000000  0.4291670000000 1.0
C      1  0.4221430000000  0.4949400000000  0.5246850000000 1.0
C      1  0.5193110000000  0.4943860000000  0.5745160000000 1.0
C      1  0.5765090000000  0.4955880000000  0.4786000000000 1.0
C      1  0.5311290000000  0.4848970000000  0.5289390000000 1.0
C      1  0.4738890000000  0.4848020000000  0.5306400000000 1.0
C      1  0.4695210000000  0.4825920000000  0.4756830000000 1.0
C      1  0.5295850000000  0.4853690000000  0.4688390000000 1.0
C      1  0.4686190000000  0.5139040000000  0.5288560000000 1.0
C      1  0.5259410000000  0.5137410000000  0.5327420000000 1.0
C      1  0.5324050000000  0.5146050000000  0.4741730000000 1.0
C      1  0.4732230000000  0.5117290000000  0.4692590000000 1.0
C      1  0.4580820000000  0.5486430000000  0.5518990000000 1.0
C      1  0.4480320000000  0.5482360000000  0.4574720000000 1.0
C      1  0.5419560000000  0.5495430000000  0.4501040000000 1.0
C      1  0.5523280000000  0.5479860000000  0.5438590000000 1.0
C      1  0.5427150000000  0.4512460000000  0.5527640000000 1.0
C      1  0.5532790000000  0.4502430000000  0.4573610000000 1.0
C      1  0.4566770000000  0.4491110000000  0.4491910000000 1.0
C      1  0.4469810000000  0.4511480000000  0.5439480000000 1.0
C      1  0.4615000000000  0.4693340000000  0.5048670000000 1.0
C      1  0.4966120000000  0.4629100000000  0.4697570000000 1.0
C      1  0.5345990000000  0.4654540000000  0.4942690000000 1.0
C      1  0.5025900000000  0.4665960000000  0.5316340000000 1.0
C      1  0.5338510000000  0.5321190000000  0.5052420000000 1.0
C      1  0.5066130000000  0.5357620000000  0.4675380000000 1.0
C      1  0.4674430000000  0.5326320000000  0.4936160000000 1.0
C      1  0.4965160000000  0.5329470000000  0.5327880000000 1.0
C      1  0.4387240000000  0.5215520000000  0.5298160000000 1.0
C      1  0.4744470000000  0.5242620000000  0.4394950000000 1.0
C      1  0.5631830000000  0.5236870000000  0.4719400000000 1.0
C      1  0.5277220000000  0.5234550000000  0.5636220000000 1.0
C      1  0.5611690000000  0.4768370000000  0.5282690000000 1.0
C      1  0.5274790000000  0.4748200000000  0.4392810000000 1.0
C      1  0.4374240000000  0.4746540000000  0.4730490000000 1.0
C      1  0.4730060000000  0.4755950000000  0.5619660000000 1.0
C      1  0.5092630000000  0.5502090000000  0.5684150000000 1.0
C      1  0.4331110000000  0.5455730000000  0.5091550000000 1.0
C      1  0.4942260000000  0.5512190000000  0.4332170000000 1.0
C      1  0.5677590000000  0.5484870000000  0.4917490000000 1.0
C      1  0.4911310000000  0.4482800000000  0.5669270000000 1.0
C      1  0.5682950000000  0.4501580000000  0.5084620000000 1.0
C      1  0.5069100000000  0.4482120000000  0.4342530000000 1.0
C      1  0.4298930000000  0.4489660000000  0.4920320000000 1.0
C      1  0.4485390000000  0.5650340000000  0.4864450000000 1.0
C      1  0.5160940000000  0.5705850000000  0.4507580000000 1.0
C      1  0.5524420000000  0.5657420000000  0.5162750000000 1.0
C      1  0.4854660000000  0.5666010000000  0.5504310000000 1.0
C      1  0.5536240000000  0.4317450000000  0.4848230000000 1.0
C      1  0.4834580000000  0.4302680000000  0.4511740000000 1.0
C      1  0.4471850000000  0.4337170000000  0.5157470000000 1.0
C      1  0.5152490000000  0.4330390000000  0.5491320000000 1.0
C      1  0.5042410000000  0.4737000000000  0.4984230000000 1.0
C      1  0.5004630000000  0.5300250000000  0.4991410000000 1.0
C      1  0.5020390000000  0.5009650000000  0.4984900000000 1.0
END
