TITL C-3289329-2751-355 -0.00157758613237817 125000 -733.545216878854 0 0 136 (C1) n - 1
REM
REM in /nfs/bkarasulu/CARBON/AIRSS/Generating-Clusters/AIREBO/with-SteepDescent/Higher-Symm/SD-CG/HFTN-CG
REM
REM
REM
REM
REM
REM ./C.cell (b20cbc046b6831c77cfcea5457e17084)
REM
REM compiler GCC version 9.2.1 20190827 (Red Hat 9.2.1-1)
REM options -cpp -mtune=generic -march=x86-64 -g -O0 -fpre-include=/usr/include/finclude/math-vector-fortran.h
REM seed -457305588 -1916276138 -2129508702 1470573024 1753696197 -1688125638 848813691 -1043457564 -244535291 1850218070 -1144482954 -1137940805 -1098419636 1962690525 1873814220 -501306185 -1715372737 1350823446 -946504240 2069183151 613140540 -726164522 -1826661589 -1427166716 1732919934 1802207143 -571481212 -1821940841 410388982 -1630763472 -1273997043 839575354 -1089414161
REM
CELL 1.54180   50.00000   50.00000   50.00000   90.00000   90.00000   90.00000
LATT -1
SFAC C  
C      1  0.4744030000000  0.5782860000000  0.4922320000000 1.0
C      1  0.5139710000000  0.5788840000000  0.5245810000000 1.0
C      1  0.5149600000000  0.5888110000000  0.4644010000000 1.0
C      1  0.5410400000000  0.5682640000000  0.4348330000000 1.0
C      1  0.4255440000000  0.5630840000000  0.4973900000000 1.0
C      1  0.5332060000000  0.5675680000000  0.5701780000000 1.0
C      1  0.4469100000000  0.5782910000000  0.5084650000000 1.0
C      1  0.5426700000000  0.5821580000000  0.5419960000000 1.0
C      1  0.5098680000000  0.5812650000000  0.4323840000000 1.0
C      1  0.5233000000000  0.4926870000000  0.4075430000000 1.0
C      1  0.4112590000000  0.4952120000000  0.5377320000000 1.0
C      1  0.5768210000000  0.4952270000000  0.5621720000000 1.0
C      1  0.5080150000000  0.5691010000000  0.5789660000000 1.0
C      1  0.5553360000000  0.5697210000000  0.4573260000000 1.0
C      1  0.4225260000000  0.5572390000000  0.4705000000000 1.0
C      1  0.5143470000000  0.4716300000000  0.5906320000000 1.0
C      1  0.5835620000000  0.4750780000000  0.4431160000000 1.0
C      1  0.4029040000000  0.4782230000000  0.4662470000000 1.0
C      1  0.5184720000000  0.5158910000000  0.4446390000000 1.0
C      1  0.4450170000000  0.5163090000000  0.5219740000000 1.0
C      1  0.5492710000000  0.5115480000000  0.5383400000000 1.0
C      1  0.5535960000000  0.5451670000000  0.5754450000000 1.0
C      1  0.5410620000000  0.5433960000000  0.4166970000000 1.0
C      1  0.4127960000000  0.5456390000000  0.5153260000000 1.0
C      1  0.4222710000000  0.4572650000000  0.4537870000000 1.0
C      1  0.4944170000000  0.4504020000000  0.5741680000000 1.0
C      1  0.5796440000000  0.4475090000000  0.4627120000000 1.0
C      1  0.5130360000000  0.5052040000000  0.4739970000000 1.0
C      1  0.4866660000000  0.4972950000000  0.4941650000000 1.0
C      1  0.5073510000000  0.4983030000000  0.5202320000000 1.0
C      1  0.4500310000000  0.4618260000000  0.5499910000000 1.0
C      1  0.5769370000000  0.4585470000000  0.5158470000000 1.0
C      1  0.4700490000000  0.4521090000000  0.4311080000000 1.0
C      1  0.5550530000000  0.4721950000000  0.5380170000000 1.0
C      1  0.5136990000000  0.4702690000000  0.4388580000000 1.0
C      1  0.4362110000000  0.4697910000000  0.5199490000000 1.0
C      1  0.5650260000000  0.5573540000000  0.5491500000000 1.0
C      1  0.5107310000000  0.5515060000000  0.4159880000000 1.0
C      1  0.4187320000000  0.5508700000000  0.5415800000000 1.0
C      1  0.4672970000000  0.5811210000000  0.4621930000000 1.0
C      1  0.4888150000000  0.5801120000000  0.5419290000000 1.0
C      1  0.5352480000000  0.5836540000000  0.4906540000000 1.0
C      1  0.4697300000000  0.4804680000000  0.4123280000000 1.0
C      1  0.4346540000000  0.4756600000000  0.5700190000000 1.0
C      1  0.5975480000000  0.4784610000000  0.5200560000000 1.0
C      1  0.3920940000000  0.4645730000000  0.4873740000000 1.0
C      1  0.5380900000000  0.4577960000000  0.5892280000000 1.0
C      1  0.5677060000000  0.4583090000000  0.4261530000000 1.0
C      1  0.5344030000000  0.4174650000000  0.5517400000000 1.0
C      1  0.5426830000000  0.4145830000000  0.4408720000000 1.0
C      1  0.4222350000000  0.4180690000000  0.4924450000000 1.0
C      1  0.4781010000000  0.4207340000000  0.5773450000000 1.0
C      1  0.5738190000000  0.4392220000000  0.4952070000000 1.0
C      1  0.4431040000000  0.4365910000000  0.4365630000000 1.0
C      1  0.5580230000000  0.4227020000000  0.4625880000000 1.0
C      1  0.4321980000000  0.4278770000000  0.4677330000000 1.0
C      1  0.5076660000000  0.4247010000000  0.5556620000000 1.0
C      1  0.5153180000000  0.4234620000000  0.4904270000000 1.0
C      1  0.4811250000000  0.4252830000000  0.4872650000000 1.0
C      1  0.4954840000000  0.4213460000000  0.5178370000000 1.0
C      1  0.4625300000000  0.5142700000000  0.4122960000000 1.0
C      1  0.4442450000000  0.5194720000000  0.5877610000000 1.0
C      1  0.6098940000000  0.5059310000000  0.5096010000000 1.0
C      1  0.5671220000000  0.5552040000000  0.5067470000000 1.0
C      1  0.4604690000000  0.5460420000000  0.4198470000000 1.0
C      1  0.4523550000000  0.5479810000000  0.5808030000000 1.0
C      1  0.4452100000000  0.5340650000000  0.5506120000000 1.0
C      1  0.5704760000000  0.5335770000000  0.5290100000000 1.0
C      1  0.4949830000000  0.5293000000000  0.4301950000000 1.0
C      1  0.4565110000000  0.5760860000000  0.5349700000000 1.0
C      1  0.5517170000000  0.5783660000000  0.5115820000000 1.0
C      1  0.4804360000000  0.5686650000000  0.4355220000000 1.0
C      1  0.4461350000000  0.5120770000000  0.4388820000000 1.0
C      1  0.4688700000000  0.5058500000000  0.5923910000000 1.0
C      1  0.5992980000000  0.5118450000000  0.4846090000000 1.0
C      1  0.5113390000000  0.4474860000000  0.5223070000000 1.0
C      1  0.5096680000000  0.4513620000000  0.4752340000000 1.0
C      1  0.4689000000000  0.4489560000000  0.5070100000000 1.0
C      1  0.4732720000000  0.5483700000000  0.5078480000000 1.0
C      1  0.5179860000000  0.5493120000000  0.5176800000000 1.0
C      1  0.5101970000000  0.5558440000000  0.4712250000000 1.0
C      1  0.4228620000000  0.5277580000000  0.4542700000000 1.0
C      1  0.4935650000000  0.5235260000000  0.5933050000000 1.0
C      1  0.5847440000000  0.5294370000000  0.4637900000000 1.0
C      1  0.4749870000000  0.5483630000000  0.5418250000000 1.0
C      1  0.5313880000000  0.5439480000000  0.4910620000000 1.0
C      1  0.4814440000000  0.5432480000000  0.4580960000000 1.0
C      1  0.4234270000000  0.4322430000000  0.5232870000000 1.0
C      1  0.5631960000000  0.4339630000000  0.5442850000000 1.0
C      1  0.5173180000000  0.4323710000000  0.4275660000000 1.0
C      1  0.4853260000000  0.5486360000000  0.5742290000000 1.0
C      1  0.5622890000000  0.5461700000000  0.4769410000000 1.0
C      1  0.4484240000000  0.5500570000000  0.4506120000000 1.0
C      1  0.5784270000000  0.4931140000000  0.4779090000000 1.0
C      1  0.4608900000000  0.4937600000000  0.4583100000000 1.0
C      1  0.4815920000000  0.4950380000000  0.5681450000000 1.0
C      1  0.4147930000000  0.5138700000000  0.5092810000000 1.0
C      1  0.5501890000000  0.5141820000000  0.5722610000000 1.0
C      1  0.5445260000000  0.5124850000000  0.4253800000000 1.0
C      1  0.4854730000000  0.4749410000000  0.4483890000000 1.0
C      1  0.4618780000000  0.4919830000000  0.5174880000000 1.0
C      1  0.5388630000000  0.4901150000000  0.5140620000000 1.0
C      1  0.5585570000000  0.4690010000000  0.4737370000000 1.0
C      1  0.4517960000000  0.4623330000000  0.4656570000000 1.0
C      1  0.4791350000000  0.4687050000000  0.5556410000000 1.0
C      1  0.4878740000000  0.4711810000000  0.5243980000000 1.0
C      1  0.5355190000000  0.4624690000000  0.4944000000000 1.0
C      1  0.4815590000000  0.4673020000000  0.4813260000000 1.0
C      1  0.4291070000000  0.5065930000000  0.5626590000000 1.0
C      1  0.5888950000000  0.5079300000000  0.5352830000000 1.0
C      1  0.4943480000000  0.5028740000000  0.4114200000000 1.0
C      1  0.4533380000000  0.4354880000000  0.5312410000000 1.0
C      1  0.5417960000000  0.4397230000000  0.5188930000000 1.0
C      1  0.4946550000000  0.4362230000000  0.4485460000000 1.0
C      1  0.4718020000000  0.5268310000000  0.4862230000000 1.0
C      1  0.5016690000000  0.5286640000000  0.5342910000000 1.0
C      1  0.5386340000000  0.5140980000000  0.4915320000000 1.0
C      1  0.5466790000000  0.4188980000000  0.4924760000000 1.0
C      1  0.4648770000000  0.4237300000000  0.4592950000000 1.0
C      1  0.4769410000000  0.4164450000000  0.5436350000000 1.0
C      1  0.4110630000000  0.4613960000000  0.5412670000000 1.0
C      1  0.5827470000000  0.4624440000000  0.5551900000000 1.0
C      1  0.5152580000000  0.4596440000000  0.4065940000000 1.0
C      1  0.4117840000000  0.5068460000000  0.4761390000000 1.0
C      1  0.5213800000000  0.5047730000000  0.5877510000000 1.0
C      1  0.5744100000000  0.5066780000000  0.4405550000000 1.0
C      1  0.5285130000000  0.4878470000000  0.5524040000000 1.0
C      1  0.5319970000000  0.4816840000000  0.4595950000000 1.0
C      1  0.4383180000000  0.4796030000000  0.4879570000000 1.0
C      1  0.5459960000000  0.4532420000000  0.5647760000000 1.0
C      1  0.5429000000000  0.4537330000000  0.4333100000000 1.0
C      1  0.4108710000000  0.4547400000000  0.5029400000000 1.0
C      1  0.5066640000000  0.5096660000000  0.5583790000000 1.0
C      1  0.5517900000000  0.5069880000000  0.4643180000000 1.0
C      1  0.4450200000000  0.5103170000000  0.4824330000000 1.0
C      1  0.5022700000000  0.5904690000000  0.4959030000000 1.0
END
