TITL C-3289327-5623-431 -1408.66108370991 125000 -496.741912231383 0 0 89 (C1) n - 1
REM
REM in /nfs/bkarasulu/CARBON/AIRSS/Generating-Clusters/AIREBO/with-SteepDescent/Higher-Symm/SD-CG/HFTN-CG
REM
REM
REM
REM
REM
REM ./C.cell (b20cbc046b6831c77cfcea5457e17084)
REM
REM compiler GCC version 9.2.1 20190827 (Red Hat 9.2.1-1)
REM options -cpp -mtune=generic -march=x86-64 -g -O0 -fpre-include=/usr/include/finclude/math-vector-fortran.h
REM seed -459189137 788018016 1627167834 -64833236 432606902 1988196912 -1333280726 1830828445 1377605128 -1690121473 1244572175 -1461611773 -1867317347 -13411605 -569657089 -1507847765 1818931211 -1847094227 1219076219 -165964227 -626593692 1513345734 550784075 463256356 1279969977 1278526010 -836233255 713284438 -145438334 1956147285 951543228 -1581505235 578190519
REM
CELL 1.54180   50.00000   50.00000   50.00000   90.00000   90.00000   90.00000
LATT -1
SFAC C  
C      1  0.5604000000000  0.4907350000000  0.4540960000000 1.0
C      1  0.5074460000000  0.4895130000000  0.5759320000000 1.0
C      1  0.4303770000000  0.4907290000000  0.4704170000000 1.0
C      1  0.5608750000000  0.5195240000000  0.4536320000000 1.0
C      1  0.5087540000000  0.5182920000000  0.5780700000000 1.0
C      1  0.4261540000000  0.5196950000000  0.4680280000000 1.0
C      1  0.5575130000000  0.4515730000000  0.4880760000000 1.0
C      1  0.4807040000000  0.4486120000000  0.5575650000000 1.0
C      1  0.4599400000000  0.4508450000000  0.4564460000000 1.0
C      1  0.5607230000000  0.5518840000000  0.4849930000000 1.0
C      1  0.4811440000000  0.5505010000000  0.5591800000000 1.0
C      1  0.4588010000000  0.5517350000000  0.4526590000000 1.0
C      1  0.4734880000000  0.4784030000000  0.4490680000000 1.0
C      1  0.5570440000000  0.4796190000000  0.5025790000000 1.0
C      1  0.4670130000000  0.4756470000000  0.5508080000000 1.0
C      1  0.4383080000000  0.5317720000000  0.4401530000000 1.0
C      1  0.5824690000000  0.5316730000000  0.4764830000000 1.0
C      1  0.4779720000000  0.5305990000000  0.5822620000000 1.0
C      1  0.5100780000000  0.5159280000000  0.4885510000000 1.0
C      1  0.5112430000000  0.5169220000000  0.5225230000000 1.0
C      1  0.4764340000000  0.5173310000000  0.4938070000000 1.0
C      1  0.5155120000000  0.4837370000000  0.4836730000000 1.0
C      1  0.5055350000000  0.4855120000000  0.5265340000000 1.0
C      1  0.4853820000000  0.4863310000000  0.4992130000000 1.0
C      1  0.4306950000000  0.5351780000000  0.4900550000000 1.0
C      1  0.5382900000000  0.5338800000000  0.4488120000000 1.0
C      1  0.5277110000000  0.5331530000000  0.5646890000000 1.0
C      1  0.4382160000000  0.4735790000000  0.4918650000000 1.0
C      1  0.5399690000000  0.4726640000000  0.4482000000000 1.0
C      1  0.5228310000000  0.4723590000000  0.5600680000000 1.0
C      1  0.5373210000000  0.5207400000000  0.5379440000000 1.0
C      1  0.4499860000000  0.5217200000000  0.5090590000000 1.0
C      1  0.5111780000000  0.5201030000000  0.4548030000000 1.0
C      1  0.5362610000000  0.4787540000000  0.5294760000000 1.0
C      1  0.4599640000000  0.4784520000000  0.5176030000000 1.0
C      1  0.5070550000000  0.4778700000000  0.4549910000000 1.0
C      1  0.5858700000000  0.5212370000000  0.5088530000000 1.0
C      1  0.4493080000000  0.5208190000000  0.5664590000000 1.0
C      1  0.4654380000000  0.5217530000000  0.4221090000000 1.0
C      1  0.5860770000000  0.4884670000000  0.5180180000000 1.0
C      1  0.4382710000000  0.4888970000000  0.5618660000000 1.0
C      1  0.4737080000000  0.4891200000000  0.4168010000000 1.0
C      1  0.4867180000000  0.5711680000000  0.4735870000000 1.0
C      1  0.5291540000000  0.5700410000000  0.5013760000000 1.0
C      1  0.4840930000000  0.5684130000000  0.5236140000000 1.0
C      1  0.4895850000000  0.4285890000000  0.4693800000000 1.0
C      1  0.5335020000000  0.4269370000000  0.5064520000000 1.0
C      1  0.4787930000000  0.4261090000000  0.5257500000000 1.0
C      1  0.5638890000000  0.5362390000000  0.5259010000000 1.0
C      1  0.4465200000000  0.5362670000000  0.5390540000000 1.0
C      1  0.4908350000000  0.5366670000000  0.4336870000000 1.0
C      1  0.5674820000000  0.4693750000000  0.5391410000000 1.0
C      1  0.4315460000000  0.4701290000000  0.5343110000000 1.0
C      1  0.5012710000000  0.4700210000000  0.4224730000000 1.0
C      1  0.4417440000000  0.4836560000000  0.4449400000000 1.0
C      1  0.5766640000000  0.4836910000000  0.4765530000000 1.0
C      1  0.4799330000000  0.4822530000000  0.5789010000000 1.0
C      1  0.4371960000000  0.5031710000000  0.4246620000000 1.0
C      1  0.5968690000000  0.5030170000000  0.4824710000000 1.0
C      1  0.4640200000000  0.5026020000000  0.5911110000000 1.0
C      1  0.4795590000000  0.5385680000000  0.4718540000000 1.0
C      1  0.5339730000000  0.5381770000000  0.4926490000000 1.0
C      1  0.4929350000000  0.5376510000000  0.5329630000000 1.0
C      1  0.4803130000000  0.4585230000000  0.4825760000000 1.0
C      1  0.5247400000000  0.4576670000000  0.4948240000000 1.0
C      1  0.4925050000000  0.4572040000000  0.5268420000000 1.0
C      1  0.4536740000000  0.5736360000000  0.4738120000000 1.0
C      1  0.5442400000000  0.5741510000000  0.4718090000000 1.0
C      1  0.5021440000000  0.5717620000000  0.5515630000000 1.0
C      1  0.4557250000000  0.4280800000000  0.4771780000000 1.0
C      1  0.5418270000000  0.4296040000000  0.4727580000000 1.0
C      1  0.5027750000000  0.4276530000000  0.5509850000000 1.0
C      1  0.4482980000000  0.4413130000000  0.5260000000000 1.0
C      1  0.5036080000000  0.4410290000000  0.4409100000000 1.0
C      1  0.5488150000000  0.4412370000000  0.5332710000000 1.0
C      1  0.4532470000000  0.5627050000000  0.5219190000000 1.0
C      1  0.5024670000000  0.5634300000000  0.4469030000000 1.0
C      1  0.5442840000000  0.5615240000000  0.5286360000000 1.0
C      1  0.4417950000000  0.4441640000000  0.4975290000000 1.0
C      1  0.5316970000000  0.4434550000000  0.4495600000000 1.0
C      1  0.5272000000000  0.4432060000000  0.5527160000000 1.0
C      1  0.4404710000000  0.5622000000000  0.4962310000000 1.0
C      1  0.5308690000000  0.5616740000000  0.4498640000000 1.0
C      1  0.5280090000000  0.5601600000000  0.5520050000000 1.0
C      1  0.5657180000000  0.5039700000000  0.5387770000000 1.0
C      1  0.4342710000000  0.5045880000000  0.5331380000000 1.0
C      1  0.5013220000000  0.5046510000000  0.4261620000000 1.0
C      1  0.4998970000000  0.5778100000000  0.4997460000000 1.0
C      1  0.5005150000000  0.4276510000000  0.5005990000000 1.0
END
