TITL C-3289332-8317-377 -0.000604098462876637 125000 -464.211836482345 0 0 86 (C1) n - 1
REM
REM in /nfs/bkarasulu/CARBON/AIRSS/Generating-Clusters/AIREBO/with-SteepDescent/Higher-Symm/SD-CG/HFTN-CG
REM
REM
REM
REM
REM
REM ./C.cell (b20cbc046b6831c77cfcea5457e17084)
REM
REM compiler GCC version 9.2.1 20190827 (Red Hat 9.2.1-1)
REM options -cpp -mtune=generic -march=x86-64 -g -O0 -fpre-include=/usr/include/finclude/math-vector-fortran.h
REM seed -1350018735 1582164485 16749973 -1137425394 49641932 135575720 -343962269 -1208113197 294096965 1892611317 35662134 1152801045 -88268165 -877900399 131707854 809553630 -1222240350 -1327038323 925689146 477074549 1828824586 966259205 702846037 1435688422 1339407987 1129544849 1197459609 -790225733 -313672317 1252018277 1682874814 -950581693 -2026825993
REM
CELL 1.54180   50.00000   50.00000   50.00000   90.00000   90.00000   90.00000
LATT -1
SFAC C  
C      1  0.5107830000000  0.5081980000000  0.4428290000000 1.0
C      1  0.5018170000000  0.4460480000000  0.5134680000000 1.0
C      1  0.5194500000000  0.5397340000000  0.5419240000000 1.0
C      1  0.4727550000000  0.4187120000000  0.5159740000000 1.0
C      1  0.4733960000000  0.5510070000000  0.5611940000000 1.0
C      1  0.4680180000000  0.5266760000000  0.4239730000000 1.0
C      1  0.4464750000000  0.5433020000000  0.5234310000000 1.0
C      1  0.4400640000000  0.4920270000000  0.4496930000000 1.0
C      1  0.4432950000000  0.4557230000000  0.5298840000000 1.0
C      1  0.4162290000000  0.4783580000000  0.4934650000000 1.0
C      1  0.4072110000000  0.5070570000000  0.5096630000000 1.0
C      1  0.4154820000000  0.5077250000000  0.4768760000000 1.0
C      1  0.5315980000000  0.5297910000000  0.4588470000000 1.0
C      1  0.5261120000000  0.4579260000000  0.4941750000000 1.0
C      1  0.5464610000000  0.5370090000000  0.5564890000000 1.0
C      1  0.5577720000000  0.5799850000000  0.5345380000000 1.0
C      1  0.5530540000000  0.4951150000000  0.4219690000000 1.0
C      1  0.5497240000000  0.4411890000000  0.5400480000000 1.0
C      1  0.4771140000000  0.5296600000000  0.5017800000000 1.0
C      1  0.4693510000000  0.4884780000000  0.4658200000000 1.0
C      1  0.4772470000000  0.4808000000000  0.5255810000000 1.0
C      1  0.5043770000000  0.4839580000000  0.4967650000000 1.0
C      1  0.5102670000000  0.5121390000000  0.5148540000000 1.0
C      1  0.5128250000000  0.5138270000000  0.4822870000000 1.0
C      1  0.5822260000000  0.5403180000000  0.4805210000000 1.0
C      1  0.5743670000000  0.4635690000000  0.4756320000000 1.0
C      1  0.5783580000000  0.5020100000000  0.5493370000000 1.0
C      1  0.5387720000000  0.5755320000000  0.4820550000000 1.0
C      1  0.5325000000000  0.4448240000000  0.4437260000000 1.0
C      1  0.5387870000000  0.4890420000000  0.5708030000000 1.0
C      1  0.5007130000000  0.5420690000000  0.5681310000000 1.0
C      1  0.4967430000000  0.5364130000000  0.4290230000000 1.0
C      1  0.5010390000000  0.4166610000000  0.4997190000000 1.0
C      1  0.5029350000000  0.5185910000000  0.5840100000000 1.0
C      1  0.5104720000000  0.5542930000000  0.4497220000000 1.0
C      1  0.5030170000000  0.4167130000000  0.4714910000000 1.0
C      1  0.5411060000000  0.4862240000000  0.5172890000000 1.0
C      1  0.5473580000000  0.5281090000000  0.4956600000000 1.0
C      1  0.5400700000000  0.4965800000000  0.4849100000000 1.0
C      1  0.5422990000000  0.5769950000000  0.5115900000000 1.0
C      1  0.5403490000000  0.4731310000000  0.4328000000000 1.0
C      1  0.5424800000000  0.4656440000000  0.5555150000000 1.0
C      1  0.4417940000000  0.4799870000000  0.5440700000000 1.0
C      1  0.4483190000000  0.5442490000000  0.4910990000000 1.0
C      1  0.4382860000000  0.4634950000000  0.4640460000000 1.0
C      1  0.5786290000000  0.5142050000000  0.4978730000000 1.0
C      1  0.5840100000000  0.4822240000000  0.4923630000000 1.0
C      1  0.5720200000000  0.4922800000000  0.5214520000000 1.0
C      1  0.4890540000000  0.5273690000000  0.5329980000000 1.0
C      1  0.4828950000000  0.5141670000000  0.4585570000000 1.0
C      1  0.4742300000000  0.4569200000000  0.5047680000000 1.0
C      1  0.4704870000000  0.5640300000000  0.4752910000000 1.0
C      1  0.4640330000000  0.4481240000000  0.4636410000000 1.0
C      1  0.4645540000000  0.4892110000000  0.5620390000000 1.0
C      1  0.4894240000000  0.4275700000000  0.5791720000000 1.0
C      1  0.4877370000000  0.6033130000000  0.5250470000000 1.0
C      1  0.4896530000000  0.4653830000000  0.4013450000000 1.0
C      1  0.4466290000000  0.5124390000000  0.5347030000000 1.0
C      1  0.4437130000000  0.5187900000000  0.4703570000000 1.0
C      1  0.4422560000000  0.4594750000000  0.4976010000000 1.0
C      1  0.5119120000000  0.5719560000000  0.4723520000000 1.0
C      1  0.5065360000000  0.4357460000000  0.4507560000000 1.0
C      1  0.5112190000000  0.4932770000000  0.5749340000000 1.0
C      1  0.5216060000000  0.4813580000000  0.4606990000000 1.0
C      1  0.5189080000000  0.4655970000000  0.5327530000000 1.0
C      1  0.5251290000000  0.5490400000000  0.5109970000000 1.0
C      1  0.4810960000000  0.5771150000000  0.5212400000000 1.0
C      1  0.4815340000000  0.4769110000000  0.4247830000000 1.0
C      1  0.4808680000000  0.4434260000000  0.5586470000000 1.0
C      1  0.5531600000000  0.5193590000000  0.4347140000000 1.0
C      1  0.5398340000000  0.4348720000000  0.5150990000000 1.0
C      1  0.5608970000000  0.5612650000000  0.5548080000000 1.0
C      1  0.4947540000000  0.5590990000000  0.4985970000000 1.0
C      1  0.4919940000000  0.4654910000000  0.4550710000000 1.0
C      1  0.4935690000000  0.4733580000000  0.5540870000000 1.0
C      1  0.5554770000000  0.5111220000000  0.5633940000000 1.0
C      1  0.5537650000000  0.5513560000000  0.4718600000000 1.0
C      1  0.5450520000000  0.4584150000000  0.4696800000000 1.0
C      1  0.4695270000000  0.5192460000000  0.5581010000000 1.0
C      1  0.4647670000000  0.5403150000000  0.4549510000000 1.0
C      1  0.4660870000000  0.4298050000000  0.4859330000000 1.0
C      1  0.4633960000000  0.5616740000000  0.5370400000000 1.0
C      1  0.4628500000000  0.4981820000000  0.4271130000000 1.0
C      1  0.4632420000000  0.4361590000000  0.5372440000000 1.0
C      1  0.4729580000000  0.4969990000000  0.4963580000000 1.0
C      1  0.4405240000000  0.4982490000000  0.5065170000000 1.0
END
