TITL C-3289334-2237-699 0.000172322115503742 125000 -1088.62484074584 0 0 188 (C1) n - 1
REM
REM in /nfs/bkarasulu/CARBON/AIRSS/Generating-Clusters/AIREBO/with-SteepDescent/Higher-Symm/SD-CG/HFTN-CG
REM
REM
REM
REM
REM
REM ./C.cell (b20cbc046b6831c77cfcea5457e17084)
REM
REM compiler GCC version 9.2.1 20190827 (Red Hat 9.2.1-1)
REM options -cpp -mtune=generic -march=x86-64 -g -O0 -fpre-include=/usr/include/finclude/math-vector-fortran.h
REM seed 2010786516 -424401047 -44450759 1246253372 -1838598054 -428260129 1498769704 1119116046 1260301530 1104013926 2123127169 662874514 -359170393 1105411873 -169387977 550980694 -291984593 2057294666 -166436231 -1269319844 -645601277 2093418641 328649767 -1440402500 370004217 -1370159357 -427462316 1976053581 -715242660 328757069 1015347814 -1709466541 332977702
REM
CELL 1.54180   50.00000   50.00000   50.00000   90.00000   90.00000   90.00000
LATT -1
SFAC C  
C      1  0.4044630000000  0.4422580000000  0.4516190000000 1.0
C      1  0.5871190000000  0.4498140000000  0.5441430000000 1.0
C      1  0.4181310000000  0.5459420000000  0.5439660000000 1.0
C      1  0.5894510000000  0.5515080000000  0.4537570000000 1.0
C      1  0.4511090000000  0.4428850000000  0.4179140000000 1.0
C      1  0.5439160000000  0.4628930000000  0.5789470000000 1.0
C      1  0.5477160000000  0.5395510000000  0.4275710000000 1.0
C      1  0.4508360000000  0.5609660000000  0.5885500000000 1.0
C      1  0.5827120000000  0.5606440000000  0.5459700000000 1.0
C      1  0.4446370000000  0.5648110000000  0.4619180000000 1.0
C      1  0.5535170000000  0.4477050000000  0.4576620000000 1.0
C      1  0.4378030000000  0.4296760000000  0.5417080000000 1.0
C      1  0.5296090000000  0.5569270000000  0.5644730000000 1.0
C      1  0.4505430000000  0.5638170000000  0.4310950000000 1.0
C      1  0.4602570000000  0.4482500000000  0.5592970000000 1.0
C      1  0.5278640000000  0.4380460000000  0.4419910000000 1.0
C      1  0.4380320000000  0.5430270000000  0.5096980000000 1.0
C      1  0.5771090000000  0.5402260000000  0.4822890000000 1.0
C      1  0.4261040000000  0.4570090000000  0.4816860000000 1.0
C      1  0.5758790000000  0.4610910000000  0.5076970000000 1.0
C      1  0.5019910000000  0.5385350000000  0.4028270000000 1.0
C      1  0.4890200000000  0.5416130000000  0.5728940000000 1.0
C      1  0.4864320000000  0.4543670000000  0.4309930000000 1.0
C      1  0.4910390000000  0.4543660000000  0.5724000000000 1.0
C      1  0.4692350000000  0.5184460000000  0.5160560000000 1.0
C      1  0.5274610000000  0.5287250000000  0.4927070000000 1.0
C      1  0.4645090000000  0.4737230000000  0.4883730000000 1.0
C      1  0.5381630000000  0.4789300000000  0.5104160000000 1.0
C      1  0.5041890000000  0.5265550000000  0.4680110000000 1.0
C      1  0.4961420000000  0.5086850000000  0.5319830000000 1.0
C      1  0.4910710000000  0.4860780000000  0.4756510000000 1.0
C      1  0.5098510000000  0.4823430000000  0.5303800000000 1.0
C      1  0.4982840000000  0.4534380000000  0.4820580000000 1.0
C      1  0.4956100000000  0.4526400000000  0.5219330000000 1.0
C      1  0.5073610000000  0.5405980000000  0.5284540000000 1.0
C      1  0.5009490000000  0.5565190000000  0.4818120000000 1.0
C      1  0.4709020000000  0.4444430000000  0.4991230000000 1.0
C      1  0.5223170000000  0.4498640000000  0.5026170000000 1.0
C      1  0.5224780000000  0.5580380000000  0.5050010000000 1.0
C      1  0.4752440000000  0.5376630000000  0.4932640000000 1.0
C      1  0.4151520000000  0.5701240000000  0.4683320000000 1.0
C      1  0.5983360000000  0.5719110000000  0.5229560000000 1.0
C      1  0.4067870000000  0.4333820000000  0.5304260000000 1.0
C      1  0.5682320000000  0.4249460000000  0.4719750000000 1.0
C      1  0.4704630000000  0.5780380000000  0.4169650000000 1.0
C      1  0.5282480000000  0.5606740000000  0.5983270000000 1.0
C      1  0.5246130000000  0.4368190000000  0.4133570000000 1.0
C      1  0.4724830000000  0.4194510000000  0.5737270000000 1.0
C      1  0.4642720000000  0.6016180000000  0.4042400000000 1.0
C      1  0.5223910000000  0.5340850000000  0.6153550000000 1.0
C      1  0.4586100000000  0.4010040000000  0.5855870000000 1.0
C      1  0.5235120000000  0.4638880000000  0.3946980000000 1.0
C      1  0.4008500000000  0.5495540000000  0.4556930000000 1.0
C      1  0.6173980000000  0.5469900000000  0.5316660000000 1.0
C      1  0.5772710000000  0.4042060000000  0.4588170000000 1.0
C      1  0.3998450000000  0.4603210000000  0.5312150000000 1.0
C      1  0.4325610000000  0.5452020000000  0.4192820000000 1.0
C      1  0.5550860000000  0.5669690000000  0.5817800000000 1.0
C      1  0.4305930000000  0.4565700000000  0.5846200000000 1.0
C      1  0.5716030000000  0.4586210000000  0.4107450000000 1.0
C      1  0.4054810000000  0.5486280000000  0.4274610000000 1.0
C      1  0.5778750000000  0.5728090000000  0.5704860000000 1.0
C      1  0.5727170000000  0.4627150000000  0.4380200000000 1.0
C      1  0.4191110000000  0.4420270000000  0.5672850000000 1.0
C      1  0.4592200000000  0.5158420000000  0.6023780000000 1.0
C      1  0.5673510000000  0.5069290000000  0.3900860000000 1.0
C      1  0.4598510000000  0.4752560000000  0.3961280000000 1.0
C      1  0.5486720000000  0.4952980000000  0.6010680000000 1.0
C      1  0.6190810000000  0.5191130000000  0.4658030000000 1.0
C      1  0.3957070000000  0.5008400000000  0.5688400000000 1.0
C      1  0.3869560000000  0.4777080000000  0.4574860000000 1.0
C      1  0.6083000000000  0.4960870000000  0.5380090000000 1.0
C      1  0.4120480000000  0.5623640000000  0.5145360000000 1.0
C      1  0.6085410000000  0.5697980000000  0.4751400000000 1.0
C      1  0.3994140000000  0.4359860000000  0.4830680000000 1.0
C      1  0.6011350000000  0.4396940000000  0.5161030000000 1.0
C      1  0.5290940000000  0.5550180000000  0.4072930000000 1.0
C      1  0.4799480000000  0.5615660000000  0.5949870000000 1.0
C      1  0.4796150000000  0.4317700000000  0.4065050000000 1.0
C      1  0.5182700000000  0.4494580000000  0.5924550000000 1.0
C      1  0.4870220000000  0.5597550000000  0.5453380000000 1.0
C      1  0.5168520000000  0.5756860000000  0.4398510000000 1.0
C      1  0.4750810000000  0.4266300000000  0.4454650000000 1.0
C      1  0.5290640000000  0.4210950000000  0.5492820000000 1.0
C      1  0.5645820000000  0.5803010000000  0.4876630000000 1.0
C      1  0.4628860000000  0.5632160000000  0.5211560000000 1.0
C      1  0.4383360000000  0.4254920000000  0.4852250000000 1.0
C      1  0.5535670000000  0.4158480000000  0.5259970000000 1.0
C      1  0.3999490000000  0.5031970000000  0.4524020000000 1.0
C      1  0.6046150000000  0.5233500000000  0.5444240000000 1.0
C      1  0.4034910000000  0.4760210000000  0.5533990000000 1.0
C      1  0.6271030000000  0.4976160000000  0.4836180000000 1.0
C      1  0.4578740000000  0.5035680000000  0.3936620000000 1.0
C      1  0.5431370000000  0.5120240000000  0.6221860000000 1.0
C      1  0.5507740000000  0.4775390000000  0.3946450000000 1.0
C      1  0.4700280000000  0.4938790000000  0.6239750000000 1.0
C      1  0.5772150000000  0.4930950000000  0.4461130000000 1.0
C      1  0.4296790000000  0.4970830000000  0.5489430000000 1.0
C      1  0.5737990000000  0.5300830000000  0.5442360000000 1.0
C      1  0.4272930000000  0.4984440000000  0.4363650000000 1.0
C      1  0.4486970000000  0.4784930000000  0.5697300000000 1.0
C      1  0.5519430000000  0.4937650000000  0.4239400000000 1.0
C      1  0.5544360000000  0.5142880000000  0.5639880000000 1.0
C      1  0.4409970000000  0.5170050000000  0.4159720000000 1.0
C      1  0.4070920000000  0.4731800000000  0.5047850000000 1.0
C      1  0.5840060000000  0.4871290000000  0.4978480000000 1.0
C      1  0.4248670000000  0.5195390000000  0.4941490000000 1.0
C      1  0.5999940000000  0.5355110000000  0.5066470000000 1.0
C      1  0.5081050000000  0.4729620000000  0.4214840000000 1.0
C      1  0.4980580000000  0.4829150000000  0.5856250000000 1.0
C      1  0.4969700000000  0.5134850000000  0.4230200000000 1.0
C      1  0.5132330000000  0.5264070000000  0.5842760000000 1.0
C      1  0.5488410000000  0.4324600000000  0.5736620000000 1.0
C      1  0.4471810000000  0.4196480000000  0.4387010000000 1.0
C      1  0.5429780000000  0.5672030000000  0.4425760000000 1.0
C      1  0.4595980000000  0.5711100000000  0.5619320000000 1.0
C      1  0.5684070000000  0.4268640000000  0.5516640000000 1.0
C      1  0.4280950000000  0.4250440000000  0.4577610000000 1.0
C      1  0.4385900000000  0.5710840000000  0.5418630000000 1.0
C      1  0.5629260000000  0.5707890000000  0.4609380000000 1.0
C      1  0.4445410000000  0.4757410000000  0.4643930000000 1.0
C      1  0.5592740000000  0.4665290000000  0.5340120000000 1.0
C      1  0.4484850000000  0.5311600000000  0.5398020000000 1.0
C      1  0.5547790000000  0.5216470000000  0.4769940000000 1.0
C      1  0.4584790000000  0.4708810000000  0.4358540000000 1.0
C      1  0.5345920000000  0.4775170000000  0.5502130000000 1.0
C      1  0.5332870000000  0.5260710000000  0.4527460000000 1.0
C      1  0.4746750000000  0.5195440000000  0.5555650000000 1.0
C      1  0.5264820000000  0.4987190000000  0.5755250000000 1.0
C      1  0.4668420000000  0.5024130000000  0.4326090000000 1.0
C      1  0.5224830000000  0.4979960000000  0.4368960000000 1.0
C      1  0.4703190000000  0.4977820000000  0.5776830000000 1.0
C      1  0.5748410000000  0.5153660000000  0.5135380000000 1.0
C      1  0.4372750000000  0.5067430000000  0.4662350000000 1.0
C      1  0.4248680000000  0.4961390000000  0.5152100000000 1.0
C      1  0.5662980000000  0.4945770000000  0.4742500000000 1.0
C      1  0.6122390000000  0.4926940000000  0.5085600000000 1.0
C      1  0.3831060000000  0.4724170000000  0.4835040000000 1.0
C      1  0.6169040000000  0.5421420000000  0.4811600000000 1.0
C      1  0.4019740000000  0.5250620000000  0.4695140000000 1.0
C      1  0.4911110000000  0.4816150000000  0.6166690000000 1.0
C      1  0.4892390000000  0.4682510000000  0.3935920000000 1.0
C      1  0.4901460000000  0.5250130000000  0.6091970000000 1.0
C      1  0.4826650000000  0.5156070000000  0.3923400000000 1.0
C      1  0.5010850000000  0.5746500000000  0.6054510000000 1.0
C      1  0.4985700000000  0.5680940000000  0.4155160000000 1.0
C      1  0.5040000000000  0.4197880000000  0.4030480000000 1.0
C      1  0.5061290000000  0.4239540000000  0.5742440000000 1.0
C      1  0.5918360000000  0.5800020000000  0.4966110000000 1.0
C      1  0.4060180000000  0.5778010000000  0.4937020000000 1.0
C      1  0.3969890000000  0.4212920000000  0.5067780000000 1.0
C      1  0.5727590000000  0.4288600000000  0.5011050000000 1.0
C      1  0.4562090000000  0.4894270000000  0.5140490000000 1.0
C      1  0.5442300000000  0.4733630000000  0.4774140000000 1.0
C      1  0.4536190000000  0.5346480000000  0.4696770000000 1.0
C      1  0.5428680000000  0.5123630000000  0.5159650000000 1.0
C      1  0.5189260000000  0.4825300000000  0.4640230000000 1.0
C      1  0.4677230000000  0.4670230000000  0.5328990000000 1.0
C      1  0.4772280000000  0.5126010000000  0.4617470000000 1.0
C      1  0.5338740000000  0.5299070000000  0.5439520000000 1.0
C      1  0.5299610000000  0.6060250000000  0.5134280000000 1.0
C      1  0.4707410000000  0.5985610000000  0.4923110000000 1.0
C      1  0.5210950000000  0.3992300000000  0.4921680000000 1.0
C      1  0.4683710000000  0.4000510000000  0.5089090000000 1.0
C      1  0.5105950000000  0.6034610000000  0.5385990000000 1.0
C      1  0.4884720000000  0.6067850000000  0.4673270000000 1.0
C      1  0.4906570000000  0.3982960000000  0.5257670000000 1.0
C      1  0.5013360000000  0.4041860000000  0.4728620000000 1.0
C      1  0.5032540000000  0.4323650000000  0.4597990000000 1.0
C      1  0.5004710000000  0.4229820000000  0.5353170000000 1.0
C      1  0.5110630000000  0.5799490000000  0.5530690000000 1.0
C      1  0.5018050000000  0.5795210000000  0.4625210000000 1.0
C      1  0.4504110000000  0.4246480000000  0.5140430000000 1.0
C      1  0.5337240000000  0.4219720000000  0.5023820000000 1.0
C      1  0.5421910000000  0.5808820000000  0.5048710000000 1.0
C      1  0.4621160000000  0.5687360000000  0.4885960000000 1.0
C      1  0.5914850000000  0.4785630000000  0.5544340000000 1.0
C      1  0.4102120000000  0.4693500000000  0.4340740000000 1.0
C      1  0.5956770000000  0.5200020000000  0.4422910000000 1.0
C      1  0.4202960000000  0.5241720000000  0.5672430000000 1.0
C      1  0.5680140000000  0.4865500000000  0.5739280000000 1.0
C      1  0.4303710000000  0.4643190000000  0.4081910000000 1.0
C      1  0.4395580000000  0.5349380000000  0.5897370000000 1.0
C      1  0.5712900000000  0.5211950000000  0.4184830000000 1.0
C      1  0.5094310000000  0.6070800000000  0.4903260000000 1.0
C      1  0.4904680000000  0.6016280000000  0.5157880000000 1.0
C      1  0.5114390000000  0.3825250000000  0.5135420000000 1.0
C      1  0.4754210000000  0.3953970000000  0.4814360000000 1.0
END
