TITL C-3289326-3776-499 -4.41401968717488e-06 125000 -97.878885133073 0 0 20 (C1) n - 1
REM
REM in /nfs/bkarasulu/CARBON/AIRSS/Generating-Clusters/AIREBO/with-SteepDescent/Higher-Symm/SD-CG/HFTN-CG
REM
REM
REM
REM
REM
REM ./C.cell (b20cbc046b6831c77cfcea5457e17084)
REM
REM compiler GCC version 9.2.1 20190827 (Red Hat 9.2.1-1)
REM options -cpp -mtune=generic -march=x86-64 -g -O0 -fpre-include=/usr/include/finclude/math-vector-fortran.h
REM seed -2092709750 -1725037197 -818101482 -1744044721 -997583588 196410405 -2127700009 -508351838 -1787512249 432029196 -1294648689 -76741919 -1793365055 409559882 2004352202 -2010181249 -1932239682 -1493735454 59728847 -1010628324 -1551169585 -460134817 1272271770 1171083244 509029226 2133309499 -451671150 509387230 -187181928 -496046246 -2093104536 1518012659 -2099498347
REM
CELL 1.54180   50.00000   50.00000   50.00000   90.00000   90.00000   90.00000
LATT -1
SFAC C  
C      1  0.5067180000000  0.5114030000000  0.4425410000000 1.0
C      1  0.5221070000000  0.5106440000000  0.5773010000000 1.0
C      1  0.5233300000000  0.5279310000000  0.4201350000000 1.0
C      1  0.5034610000000  0.5082880000000  0.5508860000000 1.0
C      1  0.5050270000000  0.5030630000000  0.4112520000000 1.0
C      1  0.4939090000000  0.5260230000000  0.5762880000000 1.0
C      1  0.5034100000000  0.5539610000000  0.4915580000000 1.0
C      1  0.4555630000000  0.5218930000000  0.5226010000000 1.0
C      1  0.4534130000000  0.4838250000000  0.4700780000000 1.0
C      1  0.4694700000000  0.4454090000000  0.5398730000000 1.0
C      1  0.5363970000000  0.4691910000000  0.4683630000000 1.0
C      1  0.5436900000000  0.4789100000000  0.5253960000000 1.0
C      1  0.4720020000000  0.4988480000000  0.4797040000000 1.0
C      1  0.4815330000000  0.4670880000000  0.5339130000000 1.0
C      1  0.5217220000000  0.4866630000000  0.4835460000000 1.0
C      1  0.5216250000000  0.4866840000000  0.5109350000000 1.0
C      1  0.4941640000000  0.5300220000000  0.4892550000000 1.0
C      1  0.4776050000000  0.5107460000000  0.5095390000000 1.0
C      1  0.4960910000000  0.4932620000000  0.5266240000000 1.0
C      1  0.5023840000000  0.5049180000000  0.4702130000000 1.0
END
