TITL C-3289320-4661-351 -0.0021994441510491 125000 -152.566862763326 0 0 29 (C1) n - 1
REM
REM in /nfs/bkarasulu/CARBON/AIRSS/Generating-Clusters/AIREBO/with-SteepDescent/Higher-Symm/SD-CG/HFTN-CG
REM
REM
REM
REM
REM
REM ./C.cell (b20cbc046b6831c77cfcea5457e17084)
REM
REM compiler GCC version 9.2.1 20190827 (Red Hat 9.2.1-1)
REM options -cpp -mtune=generic -march=x86-64 -g -O0 -fpre-include=/usr/include/finclude/math-vector-fortran.h
REM seed -1900705754 335533817 -1288635978 -926215985 1244768036 1671831875 1981351519 -1321502657 -1382455643 -380485320 -2083443152 -852278439 -343722161 114445123 -770182027 -2076229581 -2041229678 -456957546 299689443 -455127019 -1949653016 911667109 -1821136721 -1890932047 -310621779 -1684654587 1769470498 2067807908 1330632080 1961214673 -1076160151 361911931 -937828426
REM
CELL 1.54180   50.00000   50.00000   50.00000   90.00000   90.00000   90.00000
LATT -1
SFAC C  
C      1  0.5229930000000  0.5214400000000  0.5336920000000 1.0
C      1  0.5344140000000  0.4554790000000  0.5151260000000 1.0
C      1  0.4293300000000  0.4811870000000  0.5606520000000 1.0
C      1  0.5254740000000  0.5176550000000  0.4770320000000 1.0
C      1  0.5147920000000  0.5558360000000  0.4820440000000 1.0
C      1  0.4544770000000  0.5274670000000  0.5073150000000 1.0
C      1  0.4608180000000  0.4725200000000  0.5146250000000 1.0
C      1  0.4935920000000  0.5300230000000  0.4773240000000 1.0
C      1  0.4402120000000  0.4981170000000  0.5080280000000 1.0
C      1  0.4439530000000  0.5161060000000  0.4794470000000 1.0
C      1  0.5092960000000  0.4583850000000  0.5261030000000 1.0
C      1  0.4394650000000  0.4834620000000  0.5375760000000 1.0
C      1  0.4969320000000  0.5081910000000  0.5213370000000 1.0
C      1  0.5268990000000  0.4856810000000  0.4762620000000 1.0
C      1  0.5560560000000  0.5251480000000  0.4722670000000 1.0
C      1  0.4822150000000  0.5272540000000  0.5063720000000 1.0
C      1  0.5611860000000  0.4961310000000  0.5098550000000 1.0
C      1  0.4905000000000  0.4791980000000  0.5121430000000 1.0
C      1  0.5507000000000  0.5070870000000  0.5336720000000 1.0
C      1  0.5732140000000  0.5134880000000  0.4907120000000 1.0
C      1  0.4700520000000  0.5145040000000  0.4630430000000 1.0
C      1  0.5212950000000  0.5356720000000  0.5055410000000 1.0
C      1  0.4983820000000  0.4771420000000  0.4821160000000 1.0
C      1  0.4533870000000  0.4451620000000  0.5036310000000 1.0
C      1  0.5186360000000  0.5367130000000  0.5567950000000 1.0
C      1  0.5449930000000  0.4759770000000  0.4990480000000 1.0
C      1  0.4702790000000  0.4952480000000  0.4348920000000 1.0
C      1  0.5358210000000  0.4760840000000  0.4510940000000 1.0
C      1  0.4806370000000  0.4836410000000  0.4622530000000 1.0
END
