TITL C-3289326-3776-422 0.00063130161466286 125000 -272.441638948996 0 0 50 (C1) n - 1
REM
REM in /nfs/bkarasulu/CARBON/AIRSS/Generating-Clusters/AIREBO/with-SteepDescent/Higher-Symm/SD-CG/HFTN-CG
REM
REM
REM
REM
REM
REM ./C.cell (b20cbc046b6831c77cfcea5457e17084)
REM
REM compiler GCC version 9.2.1 20190827 (Red Hat 9.2.1-1)
REM options -cpp -mtune=generic -march=x86-64 -g -O0 -fpre-include=/usr/include/finclude/math-vector-fortran.h
REM seed 172699692 850103384 -1169065204 -1755615069 282979796 2100312261 23200470 -1357444308 1934789864 185715478 415282221 -481872293 -1688684575 1585487837 -1221950699 -1026443804 -93020776 -1271290129 -99949991 751687898 2112636785 2061916977 -2122086119 759637635 1893814665 236738486 913170990 -2106498126 739131464 -1304387187 -2070822417 1756916304 300374375
REM
CELL 1.54180   50.00000   50.00000   50.00000   90.00000   90.00000   90.00000
LATT -1
SFAC C  
C      1  0.4891350000000  0.5262050000000  0.5321360000000 1.0
C      1  0.4964350000000  0.5293920000000  0.4703840000000 1.0
C      1  0.5304790000000  0.4730530000000  0.4475230000000 1.0
C      1  0.5590690000000  0.4411050000000  0.5037060000000 1.0
C      1  0.5485560000000  0.4885650000000  0.5528930000000 1.0
C      1  0.4601200000000  0.5114670000000  0.5353020000000 1.0
C      1  0.4809240000000  0.5010360000000  0.4691390000000 1.0
C      1  0.5155390000000  0.4467790000000  0.4615040000000 1.0
C      1  0.5339470000000  0.4353900000000  0.5226370000000 1.0
C      1  0.5166650000000  0.4851090000000  0.5641980000000 1.0
C      1  0.4179060000000  0.5305290000000  0.5007680000000 1.0
C      1  0.4156750000000  0.5254020000000  0.4727260000000 1.0
C      1  0.3925630000000  0.5392460000000  0.4630620000000 1.0
C      1  0.3802250000000  0.5524480000000  0.4852720000000 1.0
C      1  0.3958030000000  0.5468930000000  0.5086390000000 1.0
C      1  0.5691000000000  0.5427400000000  0.4995540000000 1.0
C      1  0.5576330000000  0.5323250000000  0.4745060000000 1.0
C      1  0.5704640000000  0.5063580000000  0.4700920000000 1.0
C      1  0.5813890000000  0.4972850000000  0.4955070000000 1.0
C      1  0.5767490000000  0.5189280000000  0.5147560000000 1.0
C      1  0.5085300000000  0.5050840000000  0.5174180000000 1.0
C      1  0.5153030000000  0.5081060000000  0.4882260000000 1.0
C      1  0.5245230000000  0.4810100000000  0.4790610000000 1.0
C      1  0.5412850000000  0.4696680000000  0.5031060000000 1.0
C      1  0.5299400000000  0.4827810000000  0.5271650000000 1.0
C      1  0.4784310000000  0.4896420000000  0.5213200000000 1.0
C      1  0.4826480000000  0.4826120000000  0.4905790000000 1.0
C      1  0.5031510000000  0.4579680000000  0.4893540000000 1.0
C      1  0.5101050000000  0.4493750000000  0.5176960000000 1.0
C      1  0.5000010000000  0.4722200000000  0.5383770000000 1.0
C      1  0.4317400000000  0.5095290000000  0.4583000000000 1.0
C      1  0.3842190000000  0.5400750000000  0.4376100000000 1.0
C      1  0.3580500000000  0.5674660000000  0.4843290000000 1.0
C      1  0.3902930000000  0.5549550000000  0.5335920000000 1.0
C      1  0.4385860000000  0.5227550000000  0.5170070000000 1.0
C      1  0.5303660000000  0.5313730000000  0.4724290000000 1.0
C      1  0.5587840000000  0.4872240000000  0.4532210000000 1.0
C      1  0.5730520000000  0.4721140000000  0.5026070000000 1.0
C      1  0.5653770000000  0.5120540000000  0.5396420000000 1.0
C      1  0.5714050000000  0.5683290000000  0.5069460000000 1.0
C      1  0.5376470000000  0.4190830000000  0.5444170000000 1.0
C      1  0.5078420000000  0.4906800000000  0.5879470000000 1.0
C      1  0.4514360000000  0.5056670000000  0.5612520000000 1.0
C      1  0.4684940000000  0.4945050000000  0.4454720000000 1.0
C      1  0.5139860000000  0.4227780000000  0.4517730000000 1.0
C      1  0.5732230000000  0.4203480000000  0.4929700000000 1.0
C      1  0.5653360000000  0.4704650000000  0.5664820000000 1.0
C      1  0.4953370000000  0.5501640000000  0.5400030000000 1.0
C      1  0.4828770000000  0.5524610000000  0.4647690000000 1.0
C      1  0.5196560000000  0.4792550000000  0.4226260000000 1.0
END
