TITL C-3289335-9438-579 -0.00269162690445232 125000 -931.572629593646 0 0 178 (C1) n - 1
REM
REM in /nfs/bkarasulu/CARBON/AIRSS/Generating-Clusters/AIREBO/with-SteepDescent/Higher-Symm/SD-CG/HFTN-CG
REM
REM
REM
REM
REM
REM ./C.cell (b20cbc046b6831c77cfcea5457e17084)
REM
REM compiler GCC version 9.2.1 20190827 (Red Hat 9.2.1-1)
REM options -cpp -mtune=generic -march=x86-64 -g -O0 -fpre-include=/usr/include/finclude/math-vector-fortran.h
REM seed -1995885799 853396119 -902933655 500557867 1049609983 -491561881 1061877045 -208048695 -1603709075 2068435457 -1706927129 835671686 -1412635630 -101588305 1523878179 -2005220878 -1197969472 -2106907551 1785721481 1881239969 405057094 -94752515 -62849888 -1053500713 -1888022774 -1949597276 1752690732 373517672 722015659 48944563 483444026 1677073554 -1383249530
REM
CELL 1.54180   50.00000   50.00000   50.00000   90.00000   90.00000   90.00000
LATT -1
SFAC C  
C      1  0.4361370000000  0.4013780000000  0.5061970000000 1.0
C      1  0.4499970000000  0.4320880000000  0.5741000000000 1.0
C      1  0.4353720000000  0.5078280000000  0.6029990000000 1.0
C      1  0.4339630000000  0.5693340000000  0.5346430000000 1.0
C      1  0.4290910000000  0.5792430000000  0.4486910000000 1.0
C      1  0.4386610000000  0.5192250000000  0.3985160000000 1.0
C      1  0.4422640000000  0.4431900000000  0.4119470000000 1.0
C      1  0.5315690000000  0.4546230000000  0.4276710000000 1.0
C      1  0.5222120000000  0.4077810000000  0.4878500000000 1.0
C      1  0.5235890000000  0.4438530000000  0.5513830000000 1.0
C      1  0.5231990000000  0.5088230000000  0.5872030000000 1.0
C      1  0.5179440000000  0.5740800000000  0.5441790000000 1.0
C      1  0.5247760000000  0.5733030000000  0.4772240000000 1.0
C      1  0.5227980000000  0.5222740000000  0.4161390000000 1.0
C      1  0.5007450000000  0.3673350000000  0.5310400000000 1.0
C      1  0.5247520000000  0.4502590000000  0.5911970000000 1.0
C      1  0.5007400000000  0.5364890000000  0.6048560000000 1.0
C      1  0.5123640000000  0.6198810000000  0.5332140000000 1.0
C      1  0.4775210000000  0.6156330000000  0.4462200000000 1.0
C      1  0.5194240000000  0.4870320000000  0.3766290000000 1.0
C      1  0.5210560000000  0.4167520000000  0.4213410000000 1.0
C      1  0.5024670000000  0.4380050000000  0.4063330000000 1.0
C      1  0.4748430000000  0.4305490000000  0.4763670000000 1.0
C      1  0.4756050000000  0.4186240000000  0.5584490000000 1.0
C      1  0.4914880000000  0.5089030000000  0.6113830000000 1.0
C      1  0.4833940000000  0.5881250000000  0.5637320000000 1.0
C      1  0.4807660000000  0.5950530000000  0.4690830000000 1.0
C      1  0.4830260000000  0.5491280000000  0.4221030000000 1.0
C      1  0.5798990000000  0.5631210000000  0.5379950000000 1.0
C      1  0.5765870000000  0.5610420000000  0.4620810000000 1.0
C      1  0.5828190000000  0.5212530000000  0.4277810000000 1.0
C      1  0.5826360000000  0.4687540000000  0.4332440000000 1.0
C      1  0.5734420000000  0.4264340000000  0.5111460000000 1.0
C      1  0.5702550000000  0.4535140000000  0.5598050000000 1.0
C      1  0.5747400000000  0.5082320000000  0.5741720000000 1.0
C      1  0.4885610000000  0.5871480000000  0.4313890000000 1.0
C      1  0.4889050000000  0.4983800000000  0.3864170000000 1.0
C      1  0.4858350000000  0.4128770000000  0.4385850000000 1.0
C      1  0.4920140000000  0.3964320000000  0.5296100000000 1.0
C      1  0.4895740000000  0.4647330000000  0.6026630000000 1.0
C      1  0.4910680000000  0.5636890000000  0.5942130000000 1.0
C      1  0.4804570000000  0.5964120000000  0.5057730000000 1.0
C      1  0.5764190000000  0.5040430000000  0.5404580000000 1.0
C      1  0.5722680000000  0.5332940000000  0.5236240000000 1.0
C      1  0.5873020000000  0.5388350000000  0.4764760000000 1.0
C      1  0.5773250000000  0.5108220000000  0.4659570000000 1.0
C      1  0.5711860000000  0.4823220000000  0.4805650000000 1.0
C      1  0.5929360000000  0.4519090000000  0.5140310000000 1.0
C      1  0.5748180000000  0.4706000000000  0.5326480000000 1.0
C      1  0.4737140000000  0.4496010000000  0.5836570000000 1.0
C      1  0.4719000000000  0.5427670000000  0.5773190000000 1.0
C      1  0.4487450000000  0.5936330000000  0.5159650000000 1.0
C      1  0.4560960000000  0.5831950000000  0.4405870000000 1.0
C      1  0.4657340000000  0.5098300000000  0.3947210000000 1.0
C      1  0.4639680000000  0.4228450000000  0.4199970000000 1.0
C      1  0.4629780000000  0.3995550000000  0.5188790000000 1.0
C      1  0.4606240000000  0.4777690000000  0.5251640000000 1.0
C      1  0.4694680000000  0.5057320000000  0.5266600000000 1.0
C      1  0.4654910000000  0.5302650000000  0.5069090000000 1.0
C      1  0.4736140000000  0.5319610000000  0.4771810000000 1.0
C      1  0.4643510000000  0.5091270000000  0.4593650000000 1.0
C      1  0.4694080000000  0.4799020000000  0.4687270000000 1.0
C      1  0.4625010000000  0.4623280000000  0.4970210000000 1.0
C      1  0.5052420000000  0.4735760000000  0.4303710000000 1.0
C      1  0.5044810000000  0.4324860000000  0.4775380000000 1.0
C      1  0.4985020000000  0.4469130000000  0.5330590000000 1.0
C      1  0.5021210000000  0.5000120000000  0.5620020000000 1.0
C      1  0.4981580000000  0.5495260000000  0.5454110000000 1.0
C      1  0.5080750000000  0.5668280000000  0.5061450000000 1.0
C      1  0.5075570000000  0.5362560000000  0.4382050000000 1.0
C      1  0.5506840000000  0.4430400000000  0.4605080000000 1.0
C      1  0.5375430000000  0.4382570000000  0.5163210000000 1.0
C      1  0.5357690000000  0.4734400000000  0.5605770000000 1.0
C      1  0.5414900000000  0.5317420000000  0.5603860000000 1.0
C      1  0.5421600000000  0.5710390000000  0.5258150000000 1.0
C      1  0.5390090000000  0.5481920000000  0.4592450000000 1.0
C      1  0.5456470000000  0.5036930000000  0.4275800000000 1.0
C      1  0.4408820000000  0.4621430000000  0.4634320000000 1.0
C      1  0.4292630000000  0.4534550000000  0.4941830000000 1.0
C      1  0.4288860000000  0.4742350000000  0.5282720000000 1.0
C      1  0.4441330000000  0.5229780000000  0.5415930000000 1.0
C      1  0.4359160000000  0.5215200000000  0.5086300000000 1.0
C      1  0.4176070000000  0.5357560000000  0.4902410000000 1.0
C      1  0.4270940000000  0.4920040000000  0.4671140000000 1.0
C      1  0.5349980000000  0.4724600000000  0.4674190000000 1.0
C      1  0.5487450000000  0.4616320000000  0.4959240000000 1.0
C      1  0.5450700000000  0.4831590000000  0.5219850000000 1.0
C      1  0.5436700000000  0.5029980000000  0.5495620000000 1.0
C      1  0.5435990000000  0.5396930000000  0.5118610000000 1.0
C      1  0.5423690000000  0.5284440000000  0.4823910000000 1.0
C      1  0.5447630000000  0.5035390000000  0.4593590000000 1.0
C      1  0.5741510000000  0.4924860000000  0.4158530000000 1.0
C      1  0.5673420000000  0.4261270000000  0.4790640000000 1.0
C      1  0.5586120000000  0.4285820000000  0.5398090000000 1.0
C      1  0.5606340000000  0.4781190000000  0.5815010000000 1.0
C      1  0.5725110000000  0.5404620000000  0.5628970000000 1.0
C      1  0.5682130000000  0.5707270000000  0.5069670000000 1.0
C      1  0.5622130000000  0.5475130000000  0.4343900000000 1.0
C      1  0.5130760000000  0.5777370000000  0.5767140000000 1.0
C      1  0.5086690000000  0.6014800000000  0.4874220000000 1.0
C      1  0.5098640000000  0.5687700000000  0.4150330000000 1.0
C      1  0.5229730000000  0.4605020000000  0.3959040000000 1.0
C      1  0.5108930000000  0.3990160000000  0.4569160000000 1.0
C      1  0.5068500000000  0.4143640000000  0.5544190000000 1.0
C      1  0.5146520000000  0.4856900000000  0.6104990000000 1.0
C      1  0.4647340000000  0.4428440000000  0.4545840000000 1.0
C      1  0.4579090000000  0.4356170000000  0.5352290000000 1.0
C      1  0.4622950000000  0.4906650000000  0.5635470000000 1.0
C      1  0.4620610000000  0.5646420000000  0.5532060000000 1.0
C      1  0.4551520000000  0.5671710000000  0.4959810000000 1.0
C      1  0.4573190000000  0.5432960000000  0.4402040000000 1.0
C      1  0.4606300000000  0.4805080000000  0.4214060000000 1.0
C      1  0.4999210000000  0.5060040000000  0.5322300000000 1.0
C      1  0.5104050000000  0.5348420000000  0.5174410000000 1.0
C      1  0.5008020000000  0.5233450000000  0.4894490000000 1.0
C      1  0.5126840000000  0.5148260000000  0.4593690000000 1.0
C      1  0.5024940000000  0.4824060000000  0.4609550000000 1.0
C      1  0.4954770000000  0.4552410000000  0.5014380000000 1.0
C      1  0.5127840000000  0.4802300000000  0.5168020000000 1.0
C      1  0.4298520000000  0.5266290000000  0.4289030000000 1.0
C      1  0.4261060000000  0.4616430000000  0.4262760000000 1.0
C      1  0.4214650000000  0.4258380000000  0.5087520000000 1.0
C      1  0.4309880000000  0.4490720000000  0.5510520000000 1.0
C      1  0.4392810000000  0.5134680000000  0.5738790000000 1.0
C      1  0.4177750000000  0.5437990000000  0.5363010000000 1.0
C      1  0.4292610000000  0.5595560000000  0.4764120000000 1.0
C      1  0.4352300000000  0.6179040000000  0.5167990000000 1.0
C      1  0.4183070000000  0.5498760000000  0.4455450000000 1.0
C      1  0.4323670000000  0.4939960000000  0.4346640000000 1.0
C      1  0.4130730000000  0.4490080000000  0.4489100000000 1.0
C      1  0.4108540000000  0.4302460000000  0.5340210000000 1.0
C      1  0.4349210000000  0.4757860000000  0.5717140000000 1.0
C      1  0.4385360000000  0.5472300000000  0.5725100000000 1.0
C      1  0.5058850000000  0.4713830000000  0.5742970000000 1.0
C      1  0.5111950000000  0.5370540000000  0.5725060000000 1.0
C      1  0.5035040000000  0.5940490000000  0.5262380000000 1.0
C      1  0.5016750000000  0.5650460000000  0.4536680000000 1.0
C      1  0.5083470000000  0.4958250000000  0.4107520000000 1.0
C      1  0.5087130000000  0.4369950000000  0.4457290000000 1.0
C      1  0.5088880000000  0.4199740000000  0.5151020000000 1.0
C      1  0.5509700000000  0.4057090000000  0.4952160000000 1.0
C      1  0.5460700000000  0.4381050000000  0.5762270000000 1.0
C      1  0.5515060000000  0.5144990000000  0.5948570000000 1.0
C      1  0.5692450000000  0.5740130000000  0.5673620000000 1.0
C      1  0.5585870000000  0.5760000000000  0.4802530000000 1.0
C      1  0.5477360000000  0.5369600000000  0.4054830000000 1.0
C      1  0.5623260000000  0.4494350000000  0.4318030000000 1.0
C      1  0.3774820000000  0.5320520000000  0.5095930000000 1.0
C      1  0.3931400000000  0.5216200000000  0.4881100000000 1.0
C      1  0.3987180000000  0.4940650000000  0.4813250000000 1.0
C      1  0.4008360000000  0.4713680000000  0.4996980000000 1.0
C      1  0.3981430000000  0.4810720000000  0.5278820000000 1.0
C      1  0.3892840000000  0.5026390000000  0.5434720000000 1.0
C      1  0.3923050000000  0.5298720000000  0.5342950000000 1.0
C      1  0.6182610000000  0.4442930000000  0.5303890000000 1.0
C      1  0.6094430000000  0.5049170000000  0.5399140000000 1.0
C      1  0.6210970000000  0.5434140000000  0.5121240000000 1.0
C      1  0.5955210000000  0.5396730000000  0.5030620000000 1.0
C      1  0.6048820000000  0.5180160000000  0.4473850000000 1.0
C      1  0.5927070000000  0.4706850000000  0.4594350000000 1.0
C      1  0.6041520000000  0.4604570000000  0.4847110000000 1.0
C      1  0.4689080000000  0.5634010000000  0.4650960000000 1.0
C      1  0.4671560000000  0.5131680000000  0.4278460000000 1.0
C      1  0.4785750000000  0.4531050000000  0.4252600000000 1.0
C      1  0.4643800000000  0.4293810000000  0.5052400000000 1.0
C      1  0.4736700000000  0.4609200000000  0.5515950000000 1.0
C      1  0.4786110000000  0.5133580000000  0.5811130000000 1.0
C      1  0.4736030000000  0.5554220000000  0.5225810000000 1.0
C      1  0.5475830000000  0.4773660000000  0.6088440000000 1.0
C      1  0.5414750000000  0.5628370000000  0.5742310000000 1.0
C      1  0.5371660000000  0.5980390000000  0.5057150000000 1.0
C      1  0.5336130000000  0.5652900000000  0.4295910000000 1.0
C      1  0.5452130000000  0.4861710000000  0.3987960000000 1.0
C      1  0.5398080000000  0.4131600000000  0.4483990000000 1.0
C      1  0.5398730000000  0.4073390000000  0.5521890000000 1.0
C      1  0.4337390000000  0.4932000000000  0.5004410000000 1.0
C      1  0.5550920000000  0.5038870000000  0.4984440000000 1.0
C      1  0.5031310000000  0.4930040000000  0.4913510000000 1.0
END
