TITL C-3289323-3850-76 -0.00212753471191796 125000 -359.935779575722 0 0 66 (C1) n - 1
REM
REM in /nfs/bkarasulu/CARBON/AIRSS/Generating-Clusters/AIREBO/with-SteepDescent/Higher-Symm/SD-CG/HFTN-CG
REM
REM
REM
REM
REM
REM ./C.cell (b20cbc046b6831c77cfcea5457e17084)
REM
REM compiler GCC version 9.2.1 20190827 (Red Hat 9.2.1-1)
REM options -cpp -mtune=generic -march=x86-64 -g -O0 -fpre-include=/usr/include/finclude/math-vector-fortran.h
REM seed -437267238 1783448243 -705647468 1738903263 -1548980520 -1091410205 -1128406940 187085351 -970723672 -695986913 382003276 404854762 -1697023135 -264669250 -1866533508 -1195726900 1438402230 -1412297114 -2060776437 459928380 707794166 -965617819 -331035320 -818200472 -79101882 -519072350 1936970662 1271784311 1449277187 -366448202 595615899 -769696114 357771706
REM
CELL 1.54180   50.00000   50.00000   50.00000   90.00000   90.00000   90.00000
LATT -1
SFAC C  
C      1  0.4618690000000  0.4748930000000  0.5028200000000 1.0
C      1  0.4800100000000  0.4667950000000  0.5258370000000 1.0
C      1  0.5109240000000  0.4801750000000  0.5280260000000 1.0
C      1  0.5359010000000  0.4720050000000  0.5062100000000 1.0
C      1  0.5259260000000  0.4751140000000  0.4735050000000 1.0
C      1  0.4997030000000  0.4721540000000  0.4514720000000 1.0
C      1  0.4732160000000  0.4651640000000  0.4719120000000 1.0
C      1  0.4714530000000  0.4982600000000  0.4160120000000 1.0
C      1  0.4269800000000  0.4965550000000  0.4735330000000 1.0
C      1  0.4280110000000  0.5051230000000  0.5405060000000 1.0
C      1  0.4858010000000  0.4944720000000  0.5764420000000 1.0
C      1  0.5517380000000  0.4909890000000  0.5579740000000 1.0
C      1  0.5772180000000  0.4967820000000  0.4941660000000 1.0
C      1  0.5367470000000  0.4960780000000  0.4287700000000 1.0
C      1  0.5567040000000  0.4973650000000  0.5189180000000 1.0
C      1  0.5447890000000  0.4970560000000  0.4577360000000 1.0
C      1  0.4978400000000  0.5021850000000  0.4356210000000 1.0
C      1  0.4566430000000  0.4933030000000  0.4627800000000 1.0
C      1  0.4402930000000  0.4990430000000  0.5136290000000 1.0
C      1  0.4786910000000  0.4878560000000  0.5503920000000 1.0
C      1  0.5219960000000  0.4938000000000  0.5560180000000 1.0
C      1  0.5071200000000  0.5156840000000  0.5774320000000 1.0
C      1  0.5650270000000  0.5159020000000  0.5459720000000 1.0
C      1  0.5678400000000  0.5129030000000  0.4735900000000 1.0
C      1  0.5222030000000  0.5225530000000  0.4242370000000 1.0
C      1  0.4599980000000  0.5144060000000  0.4385030000000 1.0
C      1  0.4253740000000  0.5196860000000  0.4917300000000 1.0
C      1  0.4398960000000  0.5281720000000  0.5520280000000 1.0
C      1  0.4762600000000  0.4830690000000  0.5988400000000 1.0
C      1  0.5599960000000  0.4642640000000  0.5540590000000 1.0
C      1  0.5677410000000  0.4677130000000  0.4950430000000 1.0
C      1  0.5220860000000  0.4720400000000  0.4258510000000 1.0
C      1  0.4792350000000  0.4694040000000  0.4230250000000 1.0
C      1  0.4331110000000  0.4710520000000  0.4862050000000 1.0
C      1  0.4075440000000  0.4904910000000  0.5510620000000 1.0
C      1  0.4818980000000  0.5587370000000  0.4738310000000 1.0
C      1  0.4680300000000  0.5609680000000  0.4989900000000 1.0
C      1  0.4792890000000  0.5577580000000  0.5255310000000 1.0
C      1  0.5064630000000  0.5598250000000  0.5348430000000 1.0
C      1  0.5305570000000  0.5608570000000  0.5183020000000 1.0
C      1  0.5311550000000  0.5578430000000  0.4890130000000 1.0
C      1  0.5102960000000  0.5615050000000  0.4687120000000 1.0
C      1  0.5006890000000  0.5243710000000  0.4576450000000 1.0
C      1  0.4748010000000  0.5182930000000  0.4751300000000 1.0
C      1  0.4634700000000  0.5215200000000  0.5028330000000 1.0
C      1  0.4826690000000  0.5120030000000  0.5292360000000 1.0
C      1  0.5124020000000  0.5205000000000  0.5386130000000 1.0
C      1  0.5363850000000  0.5214820000000  0.5191360000000 1.0
C      1  0.5296870000000  0.5230210000000  0.4694110000000 1.0
C      1  0.5099430000000  0.5438820000000  0.5622570000000 1.0
C      1  0.5547530000000  0.5453180000000  0.5331270000000 1.0
C      1  0.5559210000000  0.5422180000000  0.4770410000000 1.0
C      1  0.5178720000000  0.5486220000000  0.4410930000000 1.0
C      1  0.4654410000000  0.5419420000000  0.4524930000000 1.0
C      1  0.4406790000000  0.5460610000000  0.4969510000000 1.0
C      1  0.4642180000000  0.5374230000000  0.5415860000000 1.0
C      1  0.5093490000000  0.4291750000000  0.4670780000000 1.0
C      1  0.4825030000000  0.4343970000000  0.4750340000000 1.0
C      1  0.4748350000000  0.4194900000000  0.5008830000000 1.0
C      1  0.4823590000000  0.4374040000000  0.5265120000000 1.0
C      1  0.5552860000000  0.4443900000000  0.5358580000000 1.0
C      1  0.5346870000000  0.4385280000000  0.5120530000000 1.0
C      1  0.5294140000000  0.4436770000000  0.4788590000000 1.0
C      1  0.4987090000000  0.4980770000000  0.5032850000000 1.0
C      1  0.5190480000000  0.5161250000000  0.4958050000000 1.0
C      1  0.5057260000000  0.4287240000000  0.5070840000000 1.0
END
