TITL C-3289325-7307-553 -0.00111625829352885 125000 -340.413165329236 0 0 63 (C1) n - 1
REM
REM in /nfs/bkarasulu/CARBON/AIRSS/Generating-Clusters/AIREBO/with-SteepDescent/Higher-Symm/SD-CG/HFTN-CG
REM
REM
REM
REM
REM
REM ./C.cell (b20cbc046b6831c77cfcea5457e17084)
REM
REM compiler GCC version 9.2.1 20190827 (Red Hat 9.2.1-1)
REM options -cpp -mtune=generic -march=x86-64 -g -O0 -fpre-include=/usr/include/finclude/math-vector-fortran.h
REM seed 1605893532 -670605064 -1645756239 -268457853 -1115420881 1056287538 1898222318 -582579183 -1600718274 -1050671549 -513914937 1061809304 2053527643 298986552 -99730734 718598973 -67186094 345005632 -1163660952 26067892 -728110655 -1387457319 -1055606893 -1180159584 -1014156821 2125413784 719896396 249073076 -683634101 2101227287 -303458055 512697190 -1070977957
REM
CELL 1.54180   50.00000   50.00000   50.00000   90.00000   90.00000   90.00000
LATT -1
SFAC C  
C      1  0.5310150000000  0.4999670000000  0.5671500000000 1.0
C      1  0.5290620000000  0.5002330000000  0.4368460000000 1.0
C      1  0.4822580000000  0.5760970000000  0.5386970000000 1.0
C      1  0.4799980000000  0.5683740000000  0.4587650000000 1.0
C      1  0.5350380000000  0.5127850000000  0.5373910000000 1.0
C      1  0.5252380000000  0.4933820000000  0.4695410000000 1.0
C      1  0.4568530000000  0.5204510000000  0.5147360000000 1.0
C      1  0.4631930000000  0.5188130000000  0.4847050000000 1.0
C      1  0.4599720000000  0.4594740000000  0.5531480000000 1.0
C      1  0.4579300000000  0.4592840000000  0.4414260000000 1.0
C      1  0.4754710000000  0.5158470000000  0.4260940000000 1.0
C      1  0.4772580000000  0.5101860000000  0.5863700000000 1.0
C      1  0.4558300000000  0.5032080000000  0.5637670000000 1.0
C      1  0.4475120000000  0.5186790000000  0.4346970000000 1.0
C      1  0.4562980000000  0.4376850000000  0.4827620000000 1.0
C      1  0.4627270000000  0.4454240000000  0.5101860000000 1.0
C      1  0.5557090000000  0.5208930000000  0.4736640000000 1.0
C      1  0.5739640000000  0.5203270000000  0.5403340000000 1.0
C      1  0.4404550000000  0.5131150000000  0.4606070000000 1.0
C      1  0.4403060000000  0.5068510000000  0.5403430000000 1.0
C      1  0.5152720000000  0.5020370000000  0.5181290000000 1.0
C      1  0.5169340000000  0.5150720000000  0.4889610000000 1.0
C      1  0.4895570000000  0.5060110000000  0.5318670000000 1.0
C      1  0.4876710000000  0.5068340000000  0.4555310000000 1.0
C      1  0.5115990000000  0.4441860000000  0.5348400000000 1.0
C      1  0.5077740000000  0.4388750000000  0.4593400000000 1.0
C      1  0.4887030000000  0.4643890000000  0.5092080000000 1.0
C      1  0.4807370000000  0.4611900000000  0.4783150000000 1.0
C      1  0.4923870000000  0.5341730000000  0.4751990000000 1.0
C      1  0.4808510000000  0.5369310000000  0.5323090000000 1.0
C      1  0.5058460000000  0.4982060000000  0.5776600000000 1.0
C      1  0.5041820000000  0.4984980000000  0.4205310000000 1.0
C      1  0.4837170000000  0.4787110000000  0.4366710000000 1.0
C      1  0.4831910000000  0.4840300000000  0.5569780000000 1.0
C      1  0.4457580000000  0.4566370000000  0.5292930000000 1.0
C      1  0.4431960000000  0.4575620000000  0.4650480000000 1.0
C      1  0.5412270000000  0.5381300000000  0.4948270000000 1.0
C      1  0.5502850000000  0.5362370000000  0.5218340000000 1.0
C      1  0.5024100000000  0.5519360000000  0.4479800000000 1.0
C      1  0.5015880000000  0.5562920000000  0.5514070000000 1.0
C      1  0.5687450000000  0.4915000000000  0.5230610000000 1.0
C      1  0.5609790000000  0.4915030000000  0.4899320000000 1.0
C      1  0.4684550000000  0.4874970000000  0.4725510000000 1.0
C      1  0.4672630000000  0.4881650000000  0.5175710000000 1.0
C      1  0.5286760000000  0.5495660000000  0.4397540000000 1.0
C      1  0.5290980000000  0.5533660000000  0.5510220000000 1.0
C      1  0.5439200000000  0.5276840000000  0.4441900000000 1.0
C      1  0.5579490000000  0.5480500000000  0.5524630000000 1.0
C      1  0.4880070000000  0.4455420000000  0.4413340000000 1.0
C      1  0.4924990000000  0.4502980000000  0.5530970000000 1.0
C      1  0.5336770000000  0.4356200000000  0.5130040000000 1.0
C      1  0.5309310000000  0.4312860000000  0.4812460000000 1.0
C      1  0.5504250000000  0.4653380000000  0.5180500000000 1.0
C      1  0.5444750000000  0.4622250000000  0.4856100000000 1.0
C      1  0.4335970000000  0.4843710000000  0.5154390000000 1.0
C      1  0.4363110000000  0.4864590000000  0.4816030000000 1.0
C      1  0.5564050000000  0.4918330000000  0.4560210000000 1.0
C      1  0.5609510000000  0.4938830000000  0.5562850000000 1.0
C      1  0.4756180000000  0.5614870000000  0.4873100000000 1.0
C      1  0.4713840000000  0.5635200000000  0.5133500000000 1.0
C      1  0.5179360000000  0.4718820000000  0.5161640000000 1.0
C      1  0.5131260000000  0.4661830000000  0.4768490000000 1.0
C      1  0.5175920000000  0.5547140000000  0.4855190000000 1.0
END
