TITL C-3289327-5623-383 0.000386843417368805 125000 -1055.3430657747 0 0 200 (C1) n - 1
REM
REM in /nfs/bkarasulu/CARBON/AIRSS/Generating-Clusters/AIREBO/with-SteepDescent/Higher-Symm/SD-CG/HFTN-CG
REM
REM
REM
REM
REM
REM ./C.cell (b20cbc046b6831c77cfcea5457e17084)
REM
REM compiler GCC version 9.2.1 20190827 (Red Hat 9.2.1-1)
REM options -cpp -mtune=generic -march=x86-64 -g -O0 -fpre-include=/usr/include/finclude/math-vector-fortran.h
REM seed -1963447461 592012093 -1295263976 1651996956 -758259337 -2127555596 466879442 1805877257 1662619570 -284263050 2077338525 -603773296 -1564131475 -1729911377 -1181532204 1867952197 1199486338 1647541443 -857198318 1763386288 1508618261 47936431 400743179 -1158730936 -778857243 1269651598 489999059 -178757303 -28643088 472950721 1266184224 1769154118 -88630964
REM
CELL 1.54180   50.00000   50.00000   50.00000   90.00000   90.00000   90.00000
LATT -1
SFAC C  
C      1  0.4816460000000  0.4976500000000  0.4064450000000 1.0
C      1  0.5027810000000  0.4761680000000  0.4041650000000 1.0
C      1  0.5230440000000  0.4906040000000  0.3871490000000 1.0
C      1  0.5143590000000  0.5184480000000  0.3966440000000 1.0
C      1  0.4852060000000  0.5261530000000  0.3894170000000 1.0
C      1  0.5050560000000  0.4446730000000  0.5296820000000 1.0
C      1  0.5484230000000  0.4822120000000  0.5270160000000 1.0
C      1  0.5235710000000  0.5605600000000  0.5349340000000 1.0
C      1  0.4651570000000  0.5381460000000  0.5298790000000 1.0
C      1  0.4400670000000  0.4674370000000  0.5320660000000 1.0
C      1  0.5266600000000  0.4052070000000  0.4231350000000 1.0
C      1  0.6158040000000  0.5020170000000  0.4402030000000 1.0
C      1  0.5310310000000  0.6080210000000  0.4195390000000 1.0
C      1  0.3926760000000  0.5288580000000  0.4189420000000 1.0
C      1  0.4085250000000  0.4401210000000  0.4272890000000 1.0
C      1  0.5128870000000  0.5261920000000  0.4284030000000 1.0
C      1  0.4861810000000  0.5166890000000  0.4410840000000 1.0
C      1  0.4814360000000  0.4832340000000  0.4372480000000 1.0
C      1  0.5127820000000  0.4778590000000  0.4343590000000 1.0
C      1  0.5295620000000  0.5037150000000  0.4409480000000 1.0
C      1  0.5762390000000  0.4557990000000  0.4517450000000 1.0
C      1  0.5599980000000  0.5564750000000  0.4600040000000 1.0
C      1  0.4603680000000  0.5789920000000  0.4606180000000 1.0
C      1  0.4149610000000  0.4925440000000  0.4536330000000 1.0
C      1  0.4821260000000  0.4156440000000  0.4559850000000 1.0
C      1  0.4573050000000  0.4278910000000  0.4272430000000 1.0
C      1  0.5578390000000  0.4442880000000  0.4151000000000 1.0
C      1  0.5792450000000  0.5372330000000  0.4307020000000 1.0
C      1  0.4888740000000  0.5762130000000  0.4327910000000 1.0
C      1  0.4158860000000  0.5201410000000  0.4250800000000 1.0
C      1  0.4127860000000  0.5149890000000  0.5632870000000 1.0
C      1  0.4569370000000  0.4208980000000  0.5673340000000 1.0
C      1  0.5506240000000  0.4315640000000  0.5630810000000 1.0
C      1  0.5887070000000  0.5384480000000  0.5623920000000 1.0
C      1  0.4875090000000  0.5903070000000  0.5630410000000 1.0
C      1  0.5296120000000  0.5899040000000  0.4439130000000 1.0
C      1  0.4323270000000  0.5384890000000  0.4666540000000 1.0
C      1  0.4227630000000  0.4533830000000  0.4513360000000 1.0
C      1  0.5216810000000  0.4176110000000  0.4520110000000 1.0
C      1  0.5922650000000  0.4935680000000  0.4580630000000 1.0
C      1  0.5188790000000  0.4447550000000  0.4317150000000 1.0
C      1  0.5699270000000  0.5048170000000  0.4350200000000 1.0
C      1  0.5178310000000  0.5588110000000  0.4367320000000 1.0
C      1  0.4458110000000  0.5317430000000  0.4361770000000 1.0
C      1  0.4490570000000  0.4606630000000  0.4310350000000 1.0
C      1  0.4112820000000  0.4507230000000  0.5541640000000 1.0
C      1  0.5212940000000  0.4065640000000  0.5527970000000 1.0
C      1  0.5988370000000  0.4870380000000  0.5532760000000 1.0
C      1  0.5370180000000  0.5970670000000  0.5501190000000 1.0
C      1  0.4335620000000  0.5625460000000  0.5459510000000 1.0
C      1  0.5888040000000  0.5531940000000  0.5036750000000 1.0
C      1  0.4752680000000  0.6116440000000  0.5000000000000 1.0
C      1  0.4004010000000  0.5111410000000  0.5016140000000 1.0
C      1  0.4557250000000  0.4068880000000  0.5000850000000 1.0
C      1  0.5777330000000  0.4217960000000  0.5005350000000 1.0
C      1  0.6060670000000  0.5185310000000  0.5448130000000 1.0
C      1  0.5085140000000  0.5999240000000  0.5402140000000 1.0
C      1  0.4095460000000  0.5417280000000  0.5439430000000 1.0
C      1  0.4289430000000  0.4231290000000  0.5481550000000 1.0
C      1  0.5526480000000  0.4045010000000  0.5425900000000 1.0
C      1  0.5564390000000  0.5966130000000  0.4918550000000 1.0
C      1  0.4316690000000  0.5884150000000  0.4971990000000 1.0
C      1  0.4020290000000  0.4578210000000  0.4966000000000 1.0
C      1  0.5012820000000  0.3883870000000  0.4901080000000 1.0
C      1  0.5988490000000  0.4689350000000  0.5018290000000 1.0
C      1  0.5937120000000  0.5137170000000  0.4822910000000 1.0
C      1  0.5140140000000  0.6019130000000  0.4692820000000 1.0
C      1  0.4139480000000  0.5582510000000  0.4764480000000 1.0
C      1  0.4324490000000  0.4295010000000  0.4689190000000 1.0
C      1  0.5423140000000  0.4100930000000  0.4722120000000 1.0
C      1  0.4250580000000  0.4327850000000  0.4993430000000 1.0
C      1  0.5290100000000  0.4031720000000  0.5002110000000 1.0
C      1  0.5979350000000  0.5000170000000  0.5102130000000 1.0
C      1  0.5276880000000  0.6051400000000  0.5000080000000 1.0
C      1  0.4185750000000  0.5600150000000  0.5083540000000 1.0
C      1  0.4433230000000  0.5381490000000  0.5948720000000 1.0
C      1  0.4492310000000  0.4588950000000  0.5967030000000 1.0
C      1  0.5248470000000  0.4392050000000  0.5926030000000 1.0
C      1  0.5693180000000  0.5088980000000  0.5905020000000 1.0
C      1  0.5201620000000  0.5639090000000  0.5898660000000 1.0
C      1  0.5229650000000  0.4128570000000  0.5850520000000 1.0
C      1  0.5938550000000  0.4974220000000  0.5844310000000 1.0
C      1  0.5386340000000  0.5839890000000  0.5774790000000 1.0
C      1  0.4347920000000  0.5627030000000  0.5793750000000 1.0
C      1  0.4204720000000  0.4537500000000  0.5867590000000 1.0
C      1  0.4824810000000  0.5993930000000  0.4715240000000 1.0
C      1  0.4227520000000  0.5119340000000  0.4771300000000 1.0
C      1  0.4636530000000  0.4327740000000  0.4788310000000 1.0
C      1  0.5607410000000  0.4362730000000  0.4748740000000 1.0
C      1  0.5700190000000  0.5342650000000  0.4837320000000 1.0
C      1  0.5286820000000  0.5350230000000  0.5882130000000 1.0
C      1  0.4760010000000  0.5411140000000  0.5882560000000 1.0
C      1  0.4548610000000  0.4897010000000  0.5834550000000 1.0
C      1  0.4993850000000  0.4553860000000  0.5823400000000 1.0
C      1  0.5435090000000  0.4894590000000  0.5810410000000 1.0
C      1  0.4023680000000  0.4817960000000  0.5435780000000 1.0
C      1  0.4955590000000  0.4059020000000  0.5305200000000 1.0
C      1  0.5903080000000  0.4575890000000  0.5410110000000 1.0
C      1  0.5550890000000  0.5843240000000  0.5297430000000 1.0
C      1  0.4620450000000  0.5775680000000  0.5349660000000 1.0
C      1  0.5961510000000  0.4393610000000  0.5137020000000 1.0
C      1  0.5789250000000  0.5792870000000  0.5067820000000 1.0
C      1  0.4530170000000  0.5991780000000  0.5119540000000 1.0
C      1  0.3948830000000  0.4854020000000  0.5131730000000 1.0
C      1  0.4778790000000  0.3903340000000  0.5073800000000 1.0
C      1  0.4584770000000  0.5086090000000  0.4576490000000 1.0
C      1  0.4721340000000  0.4561410000000  0.4556000000000 1.0
C      1  0.5362050000000  0.4540590000000  0.4594510000000 1.0
C      1  0.5519180000000  0.5173690000000  0.4604280000000 1.0
C      1  0.5049930000000  0.5563420000000  0.4681350000000 1.0
C      1  0.4919020000000  0.5638100000000  0.5443130000000 1.0
C      1  0.4239010000000  0.5061740000000  0.5334730000000 1.0
C      1  0.4667930000000  0.4233420000000  0.5355350000000 1.0
C      1  0.5611020000000  0.4421690000000  0.5327180000000 1.0
C      1  0.5687830000000  0.5334330000000  0.5351690000000 1.0
C      1  0.4298500000000  0.4096150000000  0.5219750000000 1.0
C      1  0.5597720000000  0.4038850000000  0.5146470000000 1.0
C      1  0.6050260000000  0.5325660000000  0.5170400000000 1.0
C      1  0.4996150000000  0.6195080000000  0.5138740000000 1.0
C      1  0.3979430000000  0.5348150000000  0.5168660000000 1.0
C      1  0.4959570000000  0.4463280000000  0.3979480000000 1.0
C      1  0.5500350000000  0.4775290000000  0.3945580000000 1.0
C      1  0.5381330000000  0.5400660000000  0.4006630000000 1.0
C      1  0.4746230000000  0.5541920000000  0.4026380000000 1.0
C      1  0.4506870000000  0.4920930000000  0.3970790000000 1.0
C      1  0.5159920000000  0.5187600000000  0.6106980000000 1.0
C      1  0.4876190000000  0.5210350000000  0.6107790000000 1.0
C      1  0.4769270000000  0.4949100000000  0.6069680000000 1.0
C      1  0.4983510000000  0.4764170000000  0.6064980000000 1.0
C      1  0.5231060000000  0.4910360000000  0.6080480000000 1.0
C      1  0.4539890000000  0.5252610000000  0.4038870000000 1.0
C      1  0.4655830000000  0.4618100000000  0.4013410000000 1.0
C      1  0.5301900000000  0.4475170000000  0.3998250000000 1.0
C      1  0.5523340000000  0.5096800000000  0.4063280000000 1.0
C      1  0.5084620000000  0.5572670000000  0.4040570000000 1.0
C      1  0.4365440000000  0.4718870000000  0.5613020000000 1.0
C      1  0.5020890000000  0.4341820000000  0.5577510000000 1.0
C      1  0.5649380000000  0.4849300000000  0.5550310000000 1.0
C      1  0.5433190000000  0.5584590000000  0.5578700000000 1.0
C      1  0.4592200000000  0.5459450000000  0.5590810000000 1.0
C      1  0.4344440000000  0.5916540000000  0.4693420000000 1.0
C      1  0.3952860000000  0.4605990000000  0.4672530000000 1.0
C      1  0.4928800000000  0.3884490000000  0.4632670000000 1.0
C      1  0.6078110000000  0.4685010000000  0.4725330000000 1.0
C      1  0.5564890000000  0.5901990000000  0.4625420000000 1.0
C      1  0.5193470000000  0.4881330000000  0.5296780000000 1.0
C      1  0.5204530000000  0.5149290000000  0.5139840000000 1.0
C      1  0.4894690000000  0.5205280000000  0.5192780000000 1.0
C      1  0.4726520000000  0.4970410000000  0.5087620000000 1.0
C      1  0.4884420000000  0.4742070000000  0.5269030000000 1.0
C      1  0.5004820000000  0.5311740000000  0.5484880000000 1.0
C      1  0.4820050000000  0.5145860000000  0.5678420000000 1.0
C      1  0.4762940000000  0.4843510000000  0.5575900000000 1.0
C      1  0.5084900000000  0.4801970000000  0.5609150000000 1.0
C      1  0.5223550000000  0.5108220000000  0.5651190000000 1.0
C      1  0.5495240000000  0.5484200000000  0.4300520000000 1.0
C      1  0.4628850000000  0.5597070000000  0.4340720000000 1.0
C      1  0.4334920000000  0.4910600000000  0.4260830000000 1.0
C      1  0.4883520000000  0.4306320000000  0.4267490000000 1.0
C      1  0.5644780000000  0.4732790000000  0.4250540000000 1.0
C      1  0.4725540000000  0.3941630000000  0.5532840000000 1.0
C      1  0.5833000000000  0.4375600000000  0.5655110000000 1.0
C      1  0.5767810000000  0.5644210000000  0.5439730000000 1.0
C      1  0.4581640000000  0.6016970000000  0.5586200000000 1.0
C      1  0.3846010000000  0.4978470000000  0.5670770000000 1.0
C      1  0.5487490000000  0.5297060000000  0.5098750000000 1.0
C      1  0.4911520000000  0.5732940000000  0.4895770000000 1.0
C      1  0.4399700000000  0.5022340000000  0.5037630000000 1.0
C      1  0.4765510000000  0.4531440000000  0.5028310000000 1.0
C      1  0.5504150000000  0.4508750000000  0.5026300000000 1.0
C      1  0.5631050000000  0.4810640000000  0.4703620000000 1.0
C      1  0.5327090000000  0.5474930000000  0.4782000000000 1.0
C      1  0.4634670000000  0.5483830000000  0.4751770000000 1.0
C      1  0.4390870000000  0.4759930000000  0.4708280000000 1.0
C      1  0.5027180000000  0.4370780000000  0.4725060000000 1.0
C      1  0.6080660000000  0.4460690000000  0.4532400000000 1.0
C      1  0.5864040000000  0.5764710000000  0.4523130000000 1.0
C      1  0.4183750000000  0.6059540000000  0.4526100000000 1.0
C      1  0.3830270000000  0.4840360000000  0.4542570000000 1.0
C      1  0.4893090000000  0.3663670000000  0.4475700000000 1.0
C      1  0.4517730000000  0.4423930000000  0.5180550000000 1.0
C      1  0.5315960000000  0.4316390000000  0.5186730000000 1.0
C      1  0.5728510000000  0.5039880000000  0.5283500000000 1.0
C      1  0.5087890000000  0.5810260000000  0.5121580000000 1.0
C      1  0.4377480000000  0.5333010000000  0.5170110000000 1.0
C      1  0.5293860000000  0.4857280000000  0.4698020000000 1.0
C      1  0.5193520000000  0.5157090000000  0.4825510000000 1.0
C      1  0.4905690000000  0.5286080000000  0.4696560000000 1.0
C      1  0.4699850000000  0.4877250000000  0.4790070000000 1.0
C      1  0.4985540000000  0.4709730000000  0.4710540000000 1.0
C      1  0.4667420000000  0.5605580000000  0.5058860000000 1.0
C      1  0.4306460000000  0.4720810000000  0.5019380000000 1.0
C      1  0.4957660000000  0.4258280000000  0.5029480000000 1.0
C      1  0.5675630000000  0.4761220000000  0.5002790000000 1.0
C      1  0.5431310000000  0.5618460000000  0.5071520000000 1.0
C      1  0.4930610000000  0.5679330000000  0.5857070000000 1.0
C      1  0.4336890000000  0.5136940000000  0.5850740000000 1.0
C      1  0.4687360000000  0.4411660000000  0.5866370000000 1.0
C      1  0.5488590000000  0.4561680000000  0.5858790000000 1.0
C      1  0.5576290000000  0.5338950000000  0.5733620000000 1.0
END
