TITL C-3289335-9438-572 -4.81028793137881e-07 125000 -50.245491699453 0 0 9 (D3h) n - 1
REM
REM in /nfs/bkarasulu/CARBON/AIRSS/Generating-Clusters/AIREBO/with-SteepDescent/Higher-Symm/SD-CG/HFTN-CG
REM
REM
REM
REM
REM
REM ./C.cell (b20cbc046b6831c77cfcea5457e17084)
REM
REM compiler GCC version 9.2.1 20190827 (Red Hat 9.2.1-1)
REM options -cpp -mtune=generic -march=x86-64 -g -O0 -fpre-include=/usr/include/finclude/math-vector-fortran.h
REM seed 2091916741 220145678 -646848807 1390133141 -1131983871 -178651124 1703689873 2129597004 -155875441 1251937681 1602356657 -262049701 1299696727 944019422 477716440 -1847297511 -1050177656 658831200 1974937559 -1141821385 -1995408100 -1936299404 1406945552 -16068408 -1166701159 -725469269 -851701378 -552093951 538935590 -1884562139 -1975494682 1610989760 2048785287
REM
CELL 1.54180   50.00000   50.00000   50.00000   90.00000   90.00000   90.00000
LATT -1
SFAC C  
C      1  0.5396050000000  0.5000000000000  0.4976400000000 1.0
C      1  0.5318560000000  0.5000000000000  0.5236500000000 1.0
C      1  0.5092010000000  0.5000000000000  0.5385930000000 1.0
C      1  0.4822410000000  0.5000000000000  0.5354790000000 1.0
C      1  0.4635910000000  0.5000000000000  0.5157630000000 1.0
C      1  0.4619770000000  0.5000000000000  0.4886720000000 1.0
C      1  0.4781540000000  0.5000000000000  0.4668810000000 1.0
C      1  0.5045540000000  0.5000000000000  0.4605870000000 1.0
C      1  0.5288220000000  0.5000000000000  0.4727350000000 1.0
END
