TITL C-3289331-6719-663 -0.0945557911648608 125000 -146.559114840729 0 0 26 (C1) n - 1
REM
REM in /nfs/bkarasulu/CARBON/AIRSS/Generating-Clusters/AIREBO/with-SteepDescent/Higher-Symm/SD-CG/HFTN-CG
REM
REM
REM
REM
REM
REM ./C.cell (b20cbc046b6831c77cfcea5457e17084)
REM
REM compiler GCC version 9.2.1 20190827 (Red Hat 9.2.1-1)
REM options -cpp -mtune=generic -march=x86-64 -g -O0 -fpre-include=/usr/include/finclude/math-vector-fortran.h
REM seed 149434854 -221376278 -805753081 1791394951 277263397 -1004570993 937010472 -1536647801 -2049356059 -1253050274 257017122 2044870897 -1483450666 -876452394 1222909262 -793211224 616201260 -2009940525 1638134123 1276138430 -2027342363 613631605 -1362396156 1259227036 1654019293 -1188107016 457204381 -728814163 187708491 1003208365 1910060426 1581257001 1047743637
REM
CELL 1.54180   50.00000   50.00000   50.00000   90.00000   90.00000   90.00000
LATT -1
SFAC C  
C      1  0.4377410000000  0.4779880000000  0.5605960000000 1.0
C      1  0.5601880000000  0.4802180000000  0.4436110000000 1.0
C      1  0.5384650000000  0.5161600000000  0.4685340000000 1.0
C      1  0.4617570000000  0.5171970000000  0.5373060000000 1.0
C      1  0.4954050000000  0.5152350000000  0.4496080000000 1.0
C      1  0.5096340000000  0.5084900000000  0.5389300000000 1.0
C      1  0.5681880000000  0.4699140000000  0.4200660000000 1.0
C      1  0.4508900000000  0.4877860000000  0.5872090000000 1.0
C      1  0.4840710000000  0.5218180000000  0.4808550000000 1.0
C      1  0.5023520000000  0.5241820000000  0.5061240000000 1.0
C      1  0.5143130000000  0.5317880000000  0.4687750000000 1.0
C      1  0.4862460000000  0.5304240000000  0.5327390000000 1.0
C      1  0.4551320000000  0.5208050000000  0.4900530000000 1.0
C      1  0.5292480000000  0.5077580000000  0.5131430000000 1.0
C      1  0.4222350000000  0.4965740000000  0.5196380000000 1.0
C      1  0.5709160000000  0.4903390000000  0.4909600000000 1.0
C      1  0.5379810000000  0.4975140000000  0.4461250000000 1.0
C      1  0.4665180000000  0.4945330000000  0.5576030000000 1.0
C      1  0.4209280000000  0.4767370000000  0.5388530000000 1.0
C      1  0.5736220000000  0.4750040000000  0.4680610000000 1.0
C      1  0.4451210000000  0.5123670000000  0.5150030000000 1.0
C      1  0.5480600000000  0.5066720000000  0.4935640000000 1.0
C      1  0.4964620000000  0.4885860000000  0.5560530000000 1.0
C      1  0.5115910000000  0.4975210000000  0.4345670000000 1.0
C      1  0.5044970000000  0.4846750000000  0.4121380000000 1.0
C      1  0.5084410000000  0.4697130000000  0.5698860000000 1.0
END
