TITL C-3289333-7213-651 -0.000364940859578678 125000 -890.635988184227 0 0 168 (C1) n - 1
REM
REM in /nfs/bkarasulu/CARBON/AIRSS/Generating-Clusters/AIREBO/with-SteepDescent/Higher-Symm/SD-CG/HFTN-CG
REM
REM
REM
REM
REM
REM ./C.cell (b20cbc046b6831c77cfcea5457e17084)
REM
REM compiler GCC version 9.2.1 20190827 (Red Hat 9.2.1-1)
REM options -cpp -mtune=generic -march=x86-64 -g -O0 -fpre-include=/usr/include/finclude/math-vector-fortran.h
REM seed 339950860 1135469701 381634105 -1682992128 -578227832 -1673065733 -1576886209 1338498769 2094849064 -1364745830 -1711749233 718731413 324379687 -1501512190 1118273725 651760193 -1613037947 648244937 731071958 -1379136231 -535568347 299423000 1466770352 -384726689 1112308843 1319146195 -1006026577 -816917688 -1057159614 829451799 38151452 139114364 -101604737
REM
CELL 1.54180   50.00000   50.00000   50.00000   90.00000   90.00000   90.00000
LATT -1
SFAC C  
C      1  0.4723650000000  0.5819960000000  0.4084360000000 1.0
C      1  0.4663230000000  0.5373570000000  0.5513410000000 1.0
C      1  0.5400750000000  0.5999360000000  0.5321870000000 1.0
C      1  0.5657230000000  0.5345320000000  0.4221900000000 1.0
C      1  0.5901210000000  0.5035280000000  0.5093770000000 1.0
C      1  0.4160230000000  0.4984310000000  0.4698190000000 1.0
C      1  0.4794040000000  0.5299820000000  0.4104400000000 1.0
C      1  0.5526550000000  0.5438920000000  0.5241210000000 1.0
C      1  0.5566370000000  0.4545580000000  0.4567270000000 1.0
C      1  0.5165590000000  0.5294180000000  0.6141100000000 1.0
C      1  0.4890260000000  0.5366980000000  0.5260330000000 1.0
C      1  0.5211380000000  0.5471920000000  0.4858530000000 1.0
C      1  0.5260260000000  0.4329250000000  0.5255780000000 1.0
C      1  0.4641680000000  0.5977650000000  0.4932390000000 1.0
C      1  0.5200260000000  0.5939620000000  0.4393820000000 1.0
C      1  0.4130860000000  0.5019630000000  0.4404400000000 1.0
C      1  0.4239980000000  0.5331870000000  0.5670110000000 1.0
C      1  0.4147840000000  0.5025350000000  0.5432460000000 1.0
C      1  0.3996060000000  0.4612930000000  0.5146610000000 1.0
C      1  0.5788900000000  0.4750870000000  0.4313480000000 1.0
C      1  0.5070800000000  0.4517350000000  0.4760880000000 1.0
C      1  0.5174350000000  0.5370900000000  0.4438130000000 1.0
C      1  0.5441100000000  0.5258890000000  0.4895120000000 1.0
C      1  0.4922320000000  0.5960010000000  0.5498800000000 1.0
C      1  0.5208520000000  0.4493310000000  0.6075030000000 1.0
C      1  0.4490200000000  0.4097010000000  0.5436720000000 1.0
C      1  0.4255790000000  0.5343360000000  0.4843850000000 1.0
C      1  0.4596510000000  0.3844890000000  0.4814530000000 1.0
C      1  0.5084310000000  0.6115540000000  0.5019220000000 1.0
C      1  0.5114320000000  0.5933860000000  0.5768700000000 1.0
C      1  0.5248030000000  0.4363990000000  0.4186620000000 1.0
C      1  0.5802880000000  0.5066890000000  0.4354580000000 1.0
C      1  0.5348850000000  0.5713010000000  0.5145530000000 1.0
C      1  0.5642390000000  0.4154940000000  0.4862950000000 1.0
C      1  0.5073940000000  0.4856600000000  0.4735910000000 1.0
C      1  0.4868410000000  0.4534740000000  0.5759470000000 1.0
C      1  0.5840320000000  0.5028800000000  0.5798360000000 1.0
C      1  0.5965590000000  0.4492670000000  0.5087540000000 1.0
C      1  0.5738430000000  0.5722530000000  0.4837210000000 1.0
C      1  0.4794010000000  0.4907980000000  0.4922220000000 1.0
C      1  0.5125590000000  0.4051120000000  0.4783810000000 1.0
C      1  0.5004480000000  0.4198790000000  0.5346280000000 1.0
C      1  0.4163390000000  0.5302820000000  0.4320840000000 1.0
C      1  0.5863490000000  0.4662440000000  0.4635940000000 1.0
C      1  0.4772640000000  0.4162070000000  0.5587180000000 1.0
C      1  0.4580380000000  0.4398290000000  0.4244120000000 1.0
C      1  0.4920700000000  0.5685700000000  0.5685810000000 1.0
C      1  0.4468560000000  0.5600870000000  0.4891690000000 1.0
C      1  0.4957760000000  0.4662930000000  0.4406280000000 1.0
C      1  0.5076900000000  0.4578510000000  0.3985840000000 1.0
C      1  0.5952630000000  0.5368670000000  0.4400550000000 1.0
C      1  0.4379820000000  0.5750420000000  0.5133360000000 1.0
C      1  0.5521560000000  0.4749860000000  0.4821030000000 1.0
C      1  0.5122110000000  0.4099890000000  0.5769640000000 1.0
C      1  0.4756650000000  0.4183620000000  0.4440470000000 1.0
C      1  0.5465570000000  0.4819920000000  0.4237240000000 1.0
C      1  0.4280690000000  0.5093080000000  0.5063750000000 1.0
C      1  0.4514050000000  0.5112990000000  0.4316820000000 1.0
C      1  0.4329780000000  0.4772040000000  0.5296950000000 1.0
C      1  0.4023120000000  0.4514100000000  0.4878560000000 1.0
C      1  0.4215960000000  0.4568100000000  0.4668950000000 1.0
C      1  0.5511990000000  0.4658280000000  0.5719540000000 1.0
C      1  0.4642650000000  0.5553890000000  0.4501780000000 1.0
C      1  0.4456090000000  0.4736130000000  0.5044180000000 1.0
C      1  0.4405350000000  0.4288660000000  0.5250970000000 1.0
C      1  0.4604130000000  0.5767810000000  0.5355320000000 1.0
C      1  0.5597310000000  0.5062640000000  0.5571900000000 1.0
C      1  0.5318640000000  0.4537550000000  0.4993120000000 1.0
C      1  0.4766430000000  0.5051540000000  0.3906560000000 1.0
C      1  0.5120520000000  0.4669110000000  0.5642270000000 1.0
C      1  0.4588300000000  0.4724720000000  0.5804100000000 1.0
C      1  0.4296120000000  0.4710710000000  0.5629680000000 1.0
C      1  0.4119470000000  0.5512200000000  0.4508010000000 1.0
C      1  0.4509440000000  0.5958500000000  0.4720970000000 1.0
C      1  0.5430830000000  0.5261190000000  0.6022030000000 1.0
C      1  0.4355200000000  0.5686400000000  0.4587350000000 1.0
C      1  0.4862940000000  0.4248060000000  0.4757070000000 1.0
C      1  0.4413400000000  0.4625500000000  0.4223880000000 1.0
C      1  0.4911100000000  0.5262460000000  0.6004770000000 1.0
C      1  0.5276730000000  0.5778750000000  0.5532110000000 1.0
C      1  0.5774620000000  0.4723320000000  0.5686900000000 1.0
C      1  0.4930130000000  0.5376480000000  0.5701530000000 1.0
C      1  0.5716400000000  0.5391540000000  0.4864670000000 1.0
C      1  0.5949730000000  0.5245340000000  0.5560090000000 1.0
C      1  0.4481260000000  0.4985100000000  0.4813030000000 1.0
C      1  0.4190560000000  0.4491590000000  0.5382960000000 1.0
C      1  0.5269540000000  0.4663850000000  0.4448140000000 1.0
C      1  0.4958080000000  0.3877250000000  0.5570170000000 1.0
C      1  0.5122770000000  0.5226100000000  0.5464970000000 1.0
C      1  0.3948520000000  0.5446710000000  0.4740910000000 1.0
C      1  0.5558280000000  0.4495860000000  0.4230990000000 1.0
C      1  0.5753800000000  0.5637750000000  0.4366020000000 1.0
C      1  0.5169340000000  0.5528940000000  0.4071430000000 1.0
C      1  0.4043050000000  0.5346440000000  0.5393110000000 1.0
C      1  0.5370380000000  0.5297250000000  0.4177770000000 1.0
C      1  0.4968160000000  0.5880540000000  0.4272550000000 1.0
C      1  0.5356050000000  0.4525350000000  0.5469710000000 1.0
C      1  0.5107610000000  0.4890550000000  0.5411970000000 1.0
C      1  0.4596230000000  0.5566770000000  0.4065380000000 1.0
C      1  0.4859900000000  0.4908430000000  0.4258190000000 1.0
C      1  0.5688090000000  0.5162840000000  0.6054670000000 1.0
C      1  0.5367310000000  0.5279650000000  0.5696960000000 1.0
C      1  0.4720300000000  0.4937010000000  0.5489560000000 1.0
C      1  0.5217730000000  0.6009690000000  0.4724920000000 1.0
C      1  0.5843480000000  0.5188640000000  0.4667650000000 1.0
C      1  0.4765100000000  0.4618200000000  0.4650940000000 1.0
C      1  0.4216670000000  0.4708310000000  0.4414550000000 1.0
C      1  0.3951400000000  0.4890300000000  0.5189980000000 1.0
C      1  0.5234090000000  0.4334570000000  0.4525130000000 1.0
C      1  0.4566430000000  0.4863150000000  0.4113850000000 1.0
C      1  0.4189330000000  0.5007320000000  0.5766540000000 1.0
C      1  0.4917790000000  0.5547640000000  0.4301710000000 1.0
C      1  0.5398670000000  0.4056100000000  0.5297180000000 1.0
C      1  0.5289100000000  0.3942840000000  0.5528600000000 1.0
C      1  0.5479680000000  0.5998450000000  0.4531950000000 1.0
C      1  0.4689170000000  0.4647540000000  0.5419980000000 1.0
C      1  0.5167320000000  0.5027640000000  0.5807570000000 1.0
C      1  0.4709630000000  0.4989470000000  0.5980690000000 1.0
C      1  0.5771320000000  0.4904700000000  0.5333680000000 1.0
C      1  0.4499610000000  0.5267750000000  0.4619280000000 1.0
C      1  0.4609090000000  0.3923850000000  0.4553840000000 1.0
C      1  0.5057960000000  0.4899930000000  0.3994150000000 1.0
C      1  0.5054840000000  0.4326580000000  0.5909540000000 1.0
C      1  0.4832830000000  0.3942350000000  0.5260850000000 1.0
C      1  0.5501330000000  0.5561660000000  0.5550940000000 1.0
C      1  0.5087630000000  0.5778580000000  0.4937790000000 1.0
C      1  0.5518530000000  0.4717560000000  0.5288490000000 1.0
C      1  0.5401090000000  0.4129050000000  0.4717370000000 1.0
C      1  0.5474500000000  0.4971820000000  0.5074280000000 1.0
C      1  0.5816520000000  0.4921400000000  0.4828000000000 1.0
C      1  0.5881130000000  0.4591820000000  0.5406490000000 1.0
C      1  0.4865600000000  0.5033910000000  0.5220260000000 1.0
C      1  0.4446440000000  0.5599260000000  0.5607820000000 1.0
C      1  0.4767320000000  0.4620760000000  0.5102420000000 1.0
C      1  0.5638540000000  0.5885860000000  0.5102600000000 1.0
C      1  0.4738280000000  0.5404020000000  0.4956740000000 1.0
C      1  0.4885930000000  0.4980540000000  0.5730440000000 1.0
C      1  0.4398600000000  0.5363660000000  0.4147780000000 1.0
C      1  0.5070400000000  0.4672180000000  0.5182620000000 1.0
C      1  0.4499150000000  0.4539110000000  0.4784800000000 1.0
C      1  0.4940390000000  0.5364780000000  0.4685090000000 1.0
C      1  0.5061550000000  0.5636970000000  0.5310710000000 1.0
C      1  0.4893000000000  0.5703090000000  0.4669340000000 1.0
C      1  0.5641160000000  0.4071280000000  0.5148600000000 1.0
C      1  0.5835580000000  0.4270550000000  0.5304740000000 1.0
C      1  0.5028370000000  0.4116520000000  0.4264900000000 1.0
C      1  0.3964290000000  0.5087390000000  0.4939400000000 1.0
C      1  0.5832890000000  0.5293200000000  0.5266550000000 1.0
C      1  0.5423980000000  0.5168890000000  0.5317880000000 1.0
C      1  0.5179710000000  0.4910630000000  0.5019210000000 1.0
C      1  0.5834200000000  0.4368520000000  0.4804390000000 1.0
C      1  0.4679440000000  0.3984530000000  0.5040660000000 1.0
C      1  0.5325170000000  0.5017980000000  0.4072570000000 1.0
C      1  0.4506760000000  0.5303810000000  0.5154230000000 1.0
C      1  0.5755140000000  0.5721900000000  0.5386350000000 1.0
C      1  0.5877500000000  0.5570220000000  0.5107530000000 1.0
C      1  0.4826780000000  0.5179170000000  0.4420710000000 1.0
C      1  0.5299970000000  0.4759160000000  0.5916770000000 1.0
C      1  0.4637340000000  0.4317070000000  0.5002130000000 1.0
C      1  0.5688780000000  0.5821580000000  0.4564530000000 1.0
C      1  0.4862260000000  0.4467410000000  0.4180550000000 1.0
C      1  0.4309660000000  0.5504280000000  0.5320390000000 1.0
C      1  0.4865100000000  0.5885820000000  0.5171830000000 1.0
C      1  0.4582490000000  0.4430270000000  0.5634020000000 1.0
C      1  0.4473480000000  0.5122780000000  0.5421850000000 1.0
C      1  0.5257160000000  0.5131570000000  0.4662730000000 1.0
C      1  0.4012190000000  0.5401070000000  0.5074060000000 1.0
C      1  0.5623410000000  0.4468730000000  0.5127690000000 1.0
END
