TITL C-3289333-7213-666 -0.0043151682086609 125000 -1028.81798009339 0 0 188 (C1) n - 1
REM
REM in /nfs/bkarasulu/CARBON/AIRSS/Generating-Clusters/AIREBO/with-SteepDescent/Higher-Symm/SD-CG/HFTN-CG
REM
REM
REM
REM
REM
REM ./C.cell (b20cbc046b6831c77cfcea5457e17084)
REM
REM compiler GCC version 9.2.1 20190827 (Red Hat 9.2.1-1)
REM options -cpp -mtune=generic -march=x86-64 -g -O0 -fpre-include=/usr/include/finclude/math-vector-fortran.h
REM seed -1915402075 -1687746241 -1926088452 516829408 1799708133 1136582378 1753177643 -1342330928 -297877850 -1077463887 -580364183 -1543073558 -2054067475 1478823400 526254851 -1757180102 301822184 -202019843 -1704004715 1835388652 1616586945 -1559073874 -1608766766 -234582147 -1493491407 1757161650 1967011080 -959896693 -1352054022 -242284036 -1150655330 -92237833 -200854140
REM
CELL 1.54180   50.00000   50.00000   50.00000   90.00000   90.00000   90.00000
LATT -1
SFAC C  
C      1  0.5880070000000  0.5082390000000  0.5211750000000 1.0
C      1  0.5181760000000  0.6010600000000  0.5242910000000 1.0
C      1  0.4062090000000  0.5486210000000  0.5154910000000 1.0
C      1  0.4374090000000  0.4441100000000  0.5185790000000 1.0
C      1  0.5476570000000  0.4034550000000  0.5207620000000 1.0
C      1  0.5378340000000  0.4489190000000  0.4325620000000 1.0
C      1  0.5481820000000  0.5224820000000  0.4225280000000 1.0
C      1  0.4950790000000  0.5500180000000  0.4411560000000 1.0
C      1  0.4532270000000  0.5048850000000  0.4476000000000 1.0
C      1  0.4764630000000  0.4457870000000  0.4372920000000 1.0
C      1  0.4369450000000  0.5741090000000  0.5149460000000 1.0
C      1  0.4034030000000  0.4786720000000  0.5217080000000 1.0
C      1  0.5101890000000  0.4192910000000  0.5247130000000 1.0
C      1  0.6026740000000  0.4671970000000  0.5247690000000 1.0
C      1  0.5438700000000  0.5668050000000  0.5185910000000 1.0
C      1  0.6048470000000  0.4413670000000  0.4848820000000 1.0
C      1  0.5769940000000  0.5774510000000  0.4928820000000 1.0
C      1  0.4485040000000  0.6012350000000  0.4884640000000 1.0
C      1  0.3780630000000  0.4809130000000  0.4726830000000 1.0
C      1  0.4930050000000  0.3879040000000  0.4835340000000 1.0
C      1  0.4717950000000  0.5692570000000  0.3945740000000 1.0
C      1  0.4276210000000  0.4647110000000  0.4108020000000 1.0
C      1  0.5040980000000  0.4212480000000  0.4008010000000 1.0
C      1  0.5555370000000  0.4648060000000  0.4150520000000 1.0
C      1  0.5560180000000  0.5521150000000  0.4197260000000 1.0
C      1  0.5695220000000  0.5428850000000  0.5990100000000 1.0
C      1  0.4764660000000  0.5786410000000  0.5846290000000 1.0
C      1  0.4419370000000  0.5057450000000  0.5830540000000 1.0
C      1  0.4679250000000  0.4272160000000  0.5829670000000 1.0
C      1  0.5656800000000  0.4476730000000  0.5804190000000 1.0
C      1  0.4867150000000  0.5447750000000  0.3962060000000 1.0
C      1  0.4526680000000  0.5067780000000  0.3929690000000 1.0
C      1  0.4744810000000  0.4614260000000  0.3884440000000 1.0
C      1  0.5113890000000  0.4766660000000  0.3863140000000 1.0
C      1  0.5341860000000  0.5120310000000  0.3867850000000 1.0
C      1  0.5407150000000  0.6043790000000  0.5447170000000 1.0
C      1  0.4107080000000  0.5726330000000  0.5365210000000 1.0
C      1  0.4178290000000  0.4580730000000  0.5326640000000 1.0
C      1  0.5245290000000  0.3917190000000  0.5385130000000 1.0
C      1  0.6060950000000  0.4946890000000  0.5426160000000 1.0
C      1  0.5167750000000  0.5741430000000  0.4316770000000 1.0
C      1  0.4312540000000  0.5516740000000  0.4153110000000 1.0
C      1  0.4477120000000  0.4381870000000  0.4329560000000 1.0
C      1  0.5367930000000  0.4165140000000  0.4326130000000 1.0
C      1  0.5758790000000  0.5056680000000  0.4244860000000 1.0
C      1  0.4590570000000  0.5345010000000  0.5851180000000 1.0
C      1  0.4552770000000  0.4479850000000  0.6039120000000 1.0
C      1  0.5390390000000  0.4444480000000  0.5967230000000 1.0
C      1  0.5544140000000  0.5129900000000  0.6043130000000 1.0
C      1  0.4995140000000  0.5680940000000  0.6049640000000 1.0
C      1  0.5521060000000  0.4835430000000  0.5416910000000 1.0
C      1  0.5257420000000  0.5375440000000  0.5211790000000 1.0
C      1  0.4608940000000  0.5547280000000  0.5293370000000 1.0
C      1  0.4561910000000  0.5038550000000  0.5346880000000 1.0
C      1  0.5089550000000  0.4500700000000  0.5391280000000 1.0
C      1  0.4283980000000  0.5345670000000  0.5710070000000 1.0
C      1  0.4437960000000  0.4450490000000  0.5735660000000 1.0
C      1  0.5414270000000  0.4264400000000  0.5691840000000 1.0
C      1  0.5809910000000  0.5143240000000  0.5843960000000 1.0
C      1  0.5096720000000  0.5817860000000  0.5777420000000 1.0
C      1  0.5300470000000  0.4954010000000  0.4162670000000 1.0
C      1  0.5189020000000  0.5257550000000  0.4395270000000 1.0
C      1  0.4677550000000  0.5324930000000  0.4378880000000 1.0
C      1  0.4712800000000  0.4792720000000  0.4343990000000 1.0
C      1  0.5069060000000  0.4612720000000  0.4354730000000 1.0
C      1  0.4269930000000  0.5171260000000  0.5447930000000 1.0
C      1  0.4700670000000  0.4422980000000  0.5409270000000 1.0
C      1  0.5543560000000  0.4431190000000  0.5425150000000 1.0
C      1  0.5596970000000  0.5274630000000  0.5635670000000 1.0
C      1  0.4972100000000  0.5673510000000  0.5532350000000 1.0
C      1  0.4452020000000  0.5884590000000  0.5438120000000 1.0
C      1  0.3944000000000  0.4796470000000  0.5606020000000 1.0
C      1  0.4911190000000  0.3978690000000  0.5429730000000 1.0
C      1  0.6078290000000  0.4635030000000  0.5581730000000 1.0
C      1  0.5568490000000  0.5745130000000  0.5466380000000 1.0
C      1  0.4217960000000  0.4625420000000  0.5633600000000 1.0
C      1  0.5163390000000  0.4117150000000  0.5633560000000 1.0
C      1  0.5933780000000  0.4907120000000  0.5726650000000 1.0
C      1  0.5389430000000  0.5870550000000  0.5729800000000 1.0
C      1  0.4275400000000  0.5671900000000  0.5636540000000 1.0
C      1  0.5333330000000  0.4395900000000  0.4649890000000 1.0
C      1  0.5582190000000  0.5028160000000  0.4677260000000 1.0
C      1  0.5060520000000  0.5683690000000  0.4802390000000 1.0
C      1  0.4355400000000  0.5294200000000  0.4612910000000 1.0
C      1  0.4512250000000  0.4589580000000  0.4754700000000 1.0
C      1  0.4849990000000  0.5053200000000  0.5160820000000 1.0
C      1  0.4934260000000  0.4724650000000  0.5187250000000 1.0
C      1  0.5117820000000  0.4836530000000  0.4959940000000 1.0
C      1  0.5306090000000  0.5090070000000  0.5031310000000 1.0
C      1  0.4960490000000  0.5320420000000  0.4955020000000 1.0
C      1  0.5215210000000  0.4715360000000  0.5888400000000 1.0
C      1  0.5313620000000  0.5037810000000  0.5850950000000 1.0
C      1  0.5089360000000  0.5247680000000  0.5830260000000 1.0
C      1  0.4812690000000  0.5126970000000  0.5822470000000 1.0
C      1  0.4909760000000  0.4670080000000  0.5859040000000 1.0
C      1  0.4739320000000  0.5311900000000  0.4713130000000 1.0
C      1  0.4689300000000  0.5039840000000  0.4861450000000 1.0
C      1  0.4763590000000  0.4796000000000  0.4680250000000 1.0
C      1  0.5084990000000  0.4804800000000  0.4636620000000 1.0
C      1  0.5251050000000  0.5103170000000  0.4695640000000 1.0
C      1  0.5457440000000  0.5860040000000  0.4919520000000 1.0
C      1  0.4330910000000  0.5738860000000  0.4825070000000 1.0
C      1  0.4051780000000  0.4831900000000  0.4904970000000 1.0
C      1  0.5160870000000  0.4054990000000  0.4963880000000 1.0
C      1  0.6009870000000  0.4711090000000  0.4953240000000 1.0
C      1  0.4760380000000  0.4016300000000  0.4669210000000 1.0
C      1  0.5841530000000  0.4393130000000  0.4508750000000 1.0
C      1  0.5769480000000  0.5535170000000  0.4586650000000 1.0
C      1  0.4767290000000  0.6034600000000  0.4524140000000 1.0
C      1  0.4029200000000  0.5116650000000  0.4466230000000 1.0
C      1  0.5313730000000  0.4631740000000  0.5571440000000 1.0
C      1  0.5366390000000  0.5076120000000  0.5538870000000 1.0
C      1  0.5125530000000  0.5395070000000  0.5524650000000 1.0
C      1  0.4814560000000  0.4984700000000  0.5553100000000 1.0
C      1  0.4736440000000  0.4675160000000  0.5594310000000 1.0
C      1  0.3955060000000  0.5157860000000  0.4911700000000 1.0
C      1  0.4533430000000  0.4161090000000  0.4809010000000 1.0
C      1  0.5789490000000  0.4246410000000  0.4926940000000 1.0
C      1  0.5799240000000  0.5476370000000  0.4979280000000 1.0
C      1  0.4768450000000  0.5948730000000  0.4986030000000 1.0
C      1  0.4061690000000  0.5590600000000  0.4871770000000 1.0
C      1  0.4039540000000  0.4493290000000  0.4876270000000 1.0
C      1  0.5443830000000  0.3904330000000  0.4922360000000 1.0
C      1  0.6009600000000  0.5043330000000  0.4916260000000 1.0
C      1  0.5246060000000  0.6090010000000  0.4942410000000 1.0
C      1  0.4544910000000  0.4786430000000  0.4048360000000 1.0
C      1  0.5012270000000  0.4520810000000  0.4032090000000 1.0
C      1  0.5432350000000  0.4793520000000  0.3893500000000 1.0
C      1  0.5122030000000  0.5294800000000  0.4063190000000 1.0
C      1  0.4581540000000  0.5330380000000  0.4072630000000 1.0
C      1  0.5599160000000  0.4209500000000  0.4548880000000 1.0
C      1  0.5772360000000  0.5218440000000  0.4499770000000 1.0
C      1  0.5040030000000  0.5860750000000  0.4555670000000 1.0
C      1  0.4160440000000  0.5418930000000  0.4382540000000 1.0
C      1  0.4311130000000  0.4414900000000  0.4595330000000 1.0
C      1  0.4739980000000  0.5906120000000  0.5464210000000 1.0
C      1  0.3996720000000  0.5042170000000  0.5392920000000 1.0
C      1  0.4634910000000  0.4115680000000  0.5341370000000 1.0
C      1  0.5860580000000  0.4431490000000  0.5417180000000 1.0
C      1  0.5705950000000  0.5474700000000  0.5474120000000 1.0
C      1  0.5105600000000  0.5679080000000  0.5244190000000 1.0
C      1  0.4360430000000  0.5343760000000  0.5186600000000 1.0
C      1  0.4690250000000  0.4538720000000  0.5107060000000 1.0
C      1  0.5451940000000  0.4355320000000  0.5147910000000 1.0
C      1  0.5592550000000  0.4926380000000  0.5118210000000 1.0
C      1  0.5667260000000  0.3999800000000  0.4762520000000 1.0
C      1  0.5964730000000  0.5303030000000  0.4750750000000 1.0
C      1  0.4977680000000  0.6073500000000  0.4790290000000 1.0
C      1  0.3963960000000  0.5386550000000  0.4660230000000 1.0
C      1  0.4217840000000  0.4255100000000  0.4869080000000 1.0
C      1  0.5847110000000  0.5382110000000  0.5255770000000 1.0
C      1  0.4868730000000  0.6049880000000  0.5258370000000 1.0
C      1  0.3859570000000  0.5242610000000  0.5203870000000 1.0
C      1  0.4405830000000  0.4116490000000  0.5118130000000 1.0
C      1  0.5789530000000  0.4168510000000  0.5239970000000 1.0
C      1  0.5063880000000  0.4266480000000  0.4741710000000 1.0
C      1  0.5695390000000  0.4766070000000  0.4836090000000 1.0
C      1  0.5258580000000  0.5421980000000  0.4815600000000 1.0
C      1  0.4525780000000  0.5569270000000  0.4656780000000 1.0
C      1  0.4381750000000  0.4895530000000  0.4825500000000 1.0
C      1  0.4215460000000  0.4643140000000  0.4388790000000 1.0
C      1  0.5106120000000  0.4099450000000  0.4249590000000 1.0
C      1  0.5747750000000  0.4786090000000  0.4290320000000 1.0
C      1  0.5436000000000  0.5689680000000  0.4366110000000 1.0
C      1  0.4538350000000  0.5717130000000  0.4163750000000 1.0
C      1  0.4724520000000  0.4707220000000  0.6077860000000 1.0
C      1  0.5257250000000  0.4786370000000  0.6218290000000 1.0
C      1  0.5421890000000  0.4970500000000  0.6279740000000 1.0
C      1  0.5090860000000  0.5432740000000  0.6081890000000 1.0
C      1  0.4636310000000  0.4975250000000  0.6066120000000 1.0
C      1  0.4601310000000  0.5574940000000  0.5635780000000 1.0
C      1  0.4445090000000  0.4849500000000  0.5612730000000 1.0
C      1  0.4922550000000  0.4323160000000  0.5628670000000 1.0
C      1  0.5697080000000  0.4712550000000  0.5662540000000 1.0
C      1  0.5562000000000  0.5626300000000  0.5859010000000 1.0
C      1  0.4686170000000  0.5720940000000  0.4429270000000 1.0
C      1  0.4241380000000  0.4914470000000  0.4516260000000 1.0
C      1  0.4911720000000  0.4190600000000  0.4459240000000 1.0
C      1  0.5815060000000  0.4663620000000  0.4534580000000 1.0
C      1  0.5471060000000  0.5645690000000  0.4672050000000 1.0
C      1  0.4838740000000  0.5622610000000  0.5052780000000 1.0
C      1  0.4267980000000  0.5206590000000  0.4902470000000 1.0
C      1  0.4774000000000  0.4388810000000  0.4837260000000 1.0
C      1  0.5544680000000  0.4469590000000  0.4873990000000 1.0
C      1  0.5575310000000  0.5300030000000  0.4837360000000 1.0
C      1  0.4998450000000  0.4910560000000  0.4217840000000 1.0
C      1  0.5070020000000  0.5092770000000  0.5417060000000 1.0
C      1  0.4954080000000  0.5036690000000  0.3919030000000 1.0
END
