TITL C-3289327-5623-587 0.000979827271884995 125000 -502.53156501509 0 0 92 (C1) n - 1
REM
REM in /nfs/bkarasulu/CARBON/AIRSS/Generating-Clusters/AIREBO/with-SteepDescent/Higher-Symm/SD-CG/HFTN-CG
REM
REM
REM
REM
REM
REM ./C.cell (b20cbc046b6831c77cfcea5457e17084)
REM
REM compiler GCC version 9.2.1 20190827 (Red Hat 9.2.1-1)
REM options -cpp -mtune=generic -march=x86-64 -g -O0 -fpre-include=/usr/include/finclude/math-vector-fortran.h
REM seed -1502790769 -591610189 242463655 585980572 1665344445 -1659416252 -740788117 -77625885 1820464281 -499860034 1844638075 -1888730493 1575786217 1202732937 207681283 1214733175 854881927 1997553670 130214640 -1053161412 -1791033049 -2034896787 -496009436 -54082904 -1367944386 909947004 -1914692237 1564032851 445114447 1359069571 -708978152 1461506769 493843941
REM
CELL 1.54180   50.00000   50.00000   50.00000   90.00000   90.00000   90.00000
LATT -1
SFAC C  
C      1  0.4949620000000  0.5613860000000  0.4389830000000 1.0
C      1  0.5195550000000  0.4567880000000  0.4502430000000 1.0
C      1  0.5488050000000  0.5466120000000  0.4606140000000 1.0
C      1  0.5413450000000  0.4298810000000  0.4835840000000 1.0
C      1  0.4429010000000  0.5501680000000  0.4722040000000 1.0
C      1  0.4793420000000  0.4663310000000  0.5490460000000 1.0
C      1  0.4137960000000  0.4666200000000  0.5139640000000 1.0
C      1  0.5027830000000  0.4664870000000  0.5808740000000 1.0
C      1  0.4695490000000  0.4299160000000  0.4751310000000 1.0
C      1  0.4517850000000  0.4518050000000  0.4880240000000 1.0
C      1  0.5188220000000  0.4857050000000  0.4113840000000 1.0
C      1  0.4710290000000  0.4354890000000  0.4473170000000 1.0
C      1  0.5399750000000  0.5433400000000  0.4917350000000 1.0
C      1  0.4763170000000  0.4333680000000  0.5271260000000 1.0
C      1  0.5266260000000  0.4256210000000  0.5277340000000 1.0
C      1  0.4857850000000  0.5386650000000  0.5688720000000 1.0
C      1  0.4418460000000  0.5057720000000  0.5606960000000 1.0
C      1  0.5207270000000  0.4882160000000  0.4883960000000 1.0
C      1  0.4767330000000  0.5624090000000  0.5788310000000 1.0
C      1  0.4248130000000  0.5290320000000  0.5452830000000 1.0
C      1  0.5076120000000  0.5851630000000  0.5418070000000 1.0
C      1  0.4616610000000  0.4978350000000  0.4836300000000 1.0
C      1  0.5761370000000  0.4556830000000  0.5417220000000 1.0
C      1  0.5034480000000  0.5375260000000  0.5430130000000 1.0
C      1  0.5058120000000  0.4821790000000  0.4617810000000 1.0
C      1  0.4976120000000  0.5610530000000  0.5191520000000 1.0
C      1  0.5181070000000  0.5609990000000  0.4637590000000 1.0
C      1  0.4366580000000  0.4838650000000  0.4447150000000 1.0
C      1  0.4619900000000  0.4962010000000  0.5763350000000 1.0
C      1  0.5720140000000  0.4928690000000  0.4492530000000 1.0
C      1  0.4487690000000  0.5042350000000  0.4294240000000 1.0
C      1  0.4201480000000  0.5265670000000  0.4631600000000 1.0
C      1  0.5972700000000  0.5700640000000  0.4709320000000 1.0
C      1  0.5271120000000  0.5118060000000  0.4305830000000 1.0
C      1  0.4689500000000  0.4632710000000  0.5790940000000 1.0
C      1  0.5187270000000  0.4729320000000  0.5511420000000 1.0
C      1  0.5216060000000  0.5195880000000  0.4983510000000 1.0
C      1  0.5379060000000  0.4483350000000  0.5375840000000 1.0
C      1  0.5324440000000  0.5789240000000  0.5268400000000 1.0
C      1  0.4572750000000  0.4424770000000  0.5538110000000 1.0
C      1  0.5728880000000  0.4810170000000  0.5560960000000 1.0
C      1  0.4904090000000  0.4916590000000  0.5012620000000 1.0
C      1  0.5448210000000  0.4494750000000  0.4612120000000 1.0
C      1  0.4971610000000  0.4411540000000  0.4354300000000 1.0
C      1  0.5467480000000  0.4865650000000  0.5648550000000 1.0
C      1  0.4294940000000  0.4956370000000  0.4727790000000 1.0
C      1  0.5013050000000  0.5102420000000  0.4500800000000 1.0
C      1  0.5499990000000  0.5184730000000  0.4484590000000 1.0
C      1  0.4837610000000  0.5132740000000  0.5805860000000 1.0
C      1  0.4689430000000  0.5746520000000  0.5100010000000 1.0
C      1  0.4401550000000  0.5047890000000  0.5274520000000 1.0
C      1  0.5089890000000  0.4242500000000  0.5062990000000 1.0
C      1  0.5044350000000  0.5036140000000  0.5477950000000 1.0
C      1  0.5843020000000  0.5015420000000  0.5399200000000 1.0
C      1  0.4242380000000  0.4408710000000  0.4989730000000 1.0
C      1  0.5551630000000  0.5626710000000  0.5344570000000 1.0
C      1  0.4927580000000  0.5322090000000  0.5023260000000 1.0
C      1  0.5437470000000  0.5159720000000  0.5203470000000 1.0
C      1  0.4780010000000  0.4936600000000  0.5328550000000 1.0
C      1  0.4474910000000  0.4553470000000  0.4387280000000 1.0
C      1  0.4675770000000  0.5210420000000  0.5156010000000 1.0
C      1  0.4450860000000  0.5642470000000  0.5023570000000 1.0
C      1  0.5027140000000  0.5222180000000  0.4120720000000 1.0
C      1  0.4736130000000  0.5254990000000  0.4391610000000 1.0
C      1  0.5744450000000  0.5583190000000  0.4797970000000 1.0
C      1  0.4676020000000  0.5516840000000  0.4564840000000 1.0
C      1  0.5123040000000  0.4991270000000  0.5805700000000 1.0
C      1  0.4240220000000  0.4918720000000  0.5053200000000 1.0
C      1  0.4759220000000  0.4693480000000  0.4716970000000 1.0
C      1  0.5693980000000  0.5057000000000  0.5161840000000 1.0
C      1  0.4956090000000  0.5370470000000  0.4702230000000 1.0
C      1  0.4982380000000  0.5490620000000  0.4148580000000 1.0
C      1  0.5657330000000  0.5511090000000  0.5098330000000 1.0
C      1  0.5563560000000  0.4648780000000  0.5156370000000 1.0
C      1  0.4658010000000  0.4700060000000  0.5116790000000 1.0
C      1  0.4413720000000  0.4522190000000  0.5265680000000 1.0
C      1  0.4792230000000  0.4179530000000  0.4998590000000 1.0
C      1  0.5005740000000  0.4574960000000  0.5268520000000 1.0
C      1  0.5723340000000  0.4812810000000  0.4940060000000 1.0
C      1  0.5003510000000  0.4668530000000  0.4168600000000 1.0
C      1  0.5684970000000  0.4650910000000  0.4641860000000 1.0
C      1  0.5545330000000  0.5466100000000  0.5625200000000 1.0
C      1  0.4747610000000  0.4741320000000  0.4380300000000 1.0
C      1  0.4789280000000  0.5004430000000  0.4168000000000 1.0
C      1  0.5501530000000  0.4983400000000  0.4754110000000 1.0
C      1  0.5402110000000  0.5169310000000  0.5727220000000 1.0
C      1  0.5220240000000  0.5690980000000  0.4968880000000 1.0
C      1  0.4447230000000  0.5255270000000  0.4938820000000 1.0
C      1  0.5300080000000  0.4574310000000  0.4994830000000 1.0
C      1  0.4337670000000  0.5436490000000  0.5211970000000 1.0
C      1  0.4968360000000  0.4532360000000  0.4933100000000 1.0
C      1  0.5337210000000  0.5302950000000  0.5439090000000 1.0
END
