TITL C-3289326-3776-64 -0.000473048468843219 125000 -567.175097953085 0 0 103 (C1) n - 1
REM
REM in /nfs/bkarasulu/CARBON/AIRSS/Generating-Clusters/AIREBO/with-SteepDescent/Higher-Symm/SD-CG/HFTN-CG
REM
REM
REM
REM
REM
REM ./C.cell (b20cbc046b6831c77cfcea5457e17084)
REM
REM compiler GCC version 9.2.1 20190827 (Red Hat 9.2.1-1)
REM options -cpp -mtune=generic -march=x86-64 -g -O0 -fpre-include=/usr/include/finclude/math-vector-fortran.h
REM seed 926874268 2033150022 -1105727880 -222781564 261578026 657158826 105917980 257055335 1447178229 -1896408787 762614744 151017256 -5186337 -1374879559 1885319019 1764818789 396749028 1425924019 1678286851 694626243 -1365233038 1470230802 1382555179 -1758089774 1619620111 -40791993 -1779489784 -1568796995 -863496070 -1747259361 1573038328 -2109439988 -915008646
REM
CELL 1.54180   50.00000   50.00000   50.00000   90.00000   90.00000   90.00000
LATT -1
SFAC C  
C      1  0.5620130000000  0.5479250000000  0.4426100000000 1.0
C      1  0.5058220000000  0.4444430000000  0.4503830000000 1.0
C      1  0.5365430000000  0.5332700000000  0.4765860000000 1.0
C      1  0.5291640000000  0.4730730000000  0.4177040000000 1.0
C      1  0.5723420000000  0.5205960000000  0.5417660000000 1.0
C      1  0.5176150000000  0.5261680000000  0.4492300000000 1.0
C      1  0.5157000000000  0.4262410000000  0.5587710000000 1.0
C      1  0.5882220000000  0.4834520000000  0.4414310000000 1.0
C      1  0.5026160000000  0.4589330000000  0.4929680000000 1.0
C      1  0.5593370000000  0.5372590000000  0.4977290000000 1.0
C      1  0.5093530000000  0.4741850000000  0.5865110000000 1.0
C      1  0.4836990000000  0.4663260000000  0.4532770000000 1.0
C      1  0.5688260000000  0.4976250000000  0.5635570000000 1.0
C      1  0.4875620000000  0.4229380000000  0.5403410000000 1.0
C      1  0.5310080000000  0.4564400000000  0.4410100000000 1.0
C      1  0.5638250000000  0.5010460000000  0.4572870000000 1.0
C      1  0.4460640000000  0.5394220000000  0.5470140000000 1.0
C      1  0.4812030000000  0.4761070000000  0.5466230000000 1.0
C      1  0.4363000000000  0.5391850000000  0.4411170000000 1.0
C      1  0.4579580000000  0.5658750000000  0.4929300000000 1.0
C      1  0.4623670000000  0.4932290000000  0.5240810000000 1.0
C      1  0.5503650000000  0.5229480000000  0.4406150000000 1.0
C      1  0.4390120000000  0.5011930000000  0.4741480000000 1.0
C      1  0.4310640000000  0.4712430000000  0.5399130000000 1.0
C      1  0.5464030000000  0.4955440000000  0.4840530000000 1.0
C      1  0.4983040000000  0.5580740000000  0.4348390000000 1.0
C      1  0.4824730000000  0.4317880000000  0.4892010000000 1.0
C      1  0.5221250000000  0.4850840000000  0.5253920000000 1.0
C      1  0.5890580000000  0.4834560000000  0.5062880000000 1.0
C      1  0.4887800000000  0.4871060000000  0.4798760000000 1.0
C      1  0.4378400000000  0.4527680000000  0.4889900000000 1.0
C      1  0.5021580000000  0.4575990000000  0.5269420000000 1.0
C      1  0.4264110000000  0.5067110000000  0.4430530000000 1.0
C      1  0.5666870000000  0.4205760000000  0.5211230000000 1.0
C      1  0.5258060000000  0.4264010000000  0.4911600000000 1.0
C      1  0.5277240000000  0.4697530000000  0.4721450000000 1.0
C      1  0.5513410000000  0.5547700000000  0.5188000000000 1.0
C      1  0.4943490000000  0.5075170000000  0.5431870000000 1.0
C      1  0.5345090000000  0.5810140000000  0.4747670000000 1.0
C      1  0.4306990000000  0.4834020000000  0.5018390000000 1.0
C      1  0.4719350000000  0.5287240000000  0.5897410000000 1.0
C      1  0.4851980000000  0.5806280000000  0.4489300000000 1.0
C      1  0.4723930000000  0.5475070000000  0.5638790000000 1.0
C      1  0.4832050000000  0.4815990000000  0.5783530000000 1.0
C      1  0.5490180000000  0.4486820000000  0.4882390000000 1.0
C      1  0.5514760000000  0.5615600000000  0.4659740000000 1.0
C      1  0.4624910000000  0.4331850000000  0.5309910000000 1.0
C      1  0.4721670000000  0.5166800000000  0.4165980000000 1.0
C      1  0.5146660000000  0.4918570000000  0.4498290000000 1.0
C      1  0.5809020000000  0.4546630000000  0.4898130000000 1.0
C      1  0.4696100000000  0.5349030000000  0.5009460000000 1.0
C      1  0.4692310000000  0.5142950000000  0.4739010000000 1.0
C      1  0.4366750000000  0.5004130000000  0.5758440000000 1.0
C      1  0.5391770000000  0.4136450000000  0.5379540000000 1.0
C      1  0.5024680000000  0.5294740000000  0.4189660000000 1.0
C      1  0.4588290000000  0.4331410000000  0.5027690000000 1.0
C      1  0.4838580000000  0.5052440000000  0.4445720000000 1.0
C      1  0.5727280000000  0.5091160000000  0.5108780000000 1.0
C      1  0.4619150000000  0.5442790000000  0.4596340000000 1.0
C      1  0.4886260000000  0.4798500000000  0.4224710000000 1.0
C      1  0.5405860000000  0.5162970000000  0.5655640000000 1.0
C      1  0.4536100000000  0.4538600000000  0.4433710000000 1.0
C      1  0.5911870000000  0.4775910000000  0.5571190000000 1.0
C      1  0.4952930000000  0.5460440000000  0.4661380000000 1.0
C      1  0.4540910000000  0.4572790000000  0.5428690000000 1.0
C      1  0.5889370000000  0.4268060000000  0.5061450000000 1.0
C      1  0.5055900000000  0.4258020000000  0.4709290000000 1.0
C      1  0.4318330000000  0.4561580000000  0.4592670000000 1.0
C      1  0.4872790000000  0.5569310000000  0.5184390000000 1.0
C      1  0.4764290000000  0.5842860000000  0.4740610000000 1.0
C      1  0.4446350000000  0.5199880000000  0.4175010000000 1.0
C      1  0.4637260000000  0.5013490000000  0.5861050000000 1.0
C      1  0.4343780000000  0.5502340000000  0.4786980000000 1.0
C      1  0.5399300000000  0.5071990000000  0.5153460000000 1.0
C      1  0.4054060000000  0.5141040000000  0.4983320000000 1.0
C      1  0.4666310000000  0.4612700000000  0.4175500000000 1.0
C      1  0.5486810000000  0.4454440000000  0.5213670000000 1.0
C      1  0.5218910000000  0.5015830000000  0.4180580000000 1.0
C      1  0.4552350000000  0.5620180000000  0.5264330000000 1.0
C      1  0.5098920000000  0.5672300000000  0.4876920000000 1.0
C      1  0.5279520000000  0.5275100000000  0.5360560000000 1.0
C      1  0.6016140000000  0.4767420000000  0.5340960000000 1.0
C      1  0.5149050000000  0.5083360000000  0.4847910000000 1.0
C      1  0.5228800000000  0.5392370000000  0.5736800000000 1.0
C      1  0.5389170000000  0.4848100000000  0.5737770000000 1.0
C      1  0.4149750000000  0.4772220000000  0.4531570000000 1.0
C      1  0.4842810000000  0.5921380000000  0.5370490000000 1.0
C      1  0.5873610000000  0.4819790000000  0.4731700000000 1.0
C      1  0.5257380000000  0.4545790000000  0.5648360000000 1.0
C      1  0.4890290000000  0.5877640000000  0.5049950000000 1.0
C      1  0.4766230000000  0.5785740000000  0.5565630000000 1.0
C      1  0.4176520000000  0.4993450000000  0.5262260000000 1.0
C      1  0.4124790000000  0.5402450000000  0.4900030000000 1.0
C      1  0.4935000000000  0.4937440000000  0.5129220000000 1.0
C      1  0.4991120000000  0.5374110000000  0.5511990000000 1.0
C      1  0.4547460000000  0.5210290000000  0.5228310000000 1.0
C      1  0.5137540000000  0.4265450000000  0.5193470000000 1.0
C      1  0.5393320000000  0.4648140000000  0.5392510000000 1.0
C      1  0.4622950000000  0.4745460000000  0.4971110000000 1.0
C      1  0.5657240000000  0.5472550000000  0.5421700000000 1.0
C      1  0.4293040000000  0.5131640000000  0.5525850000000 1.0
C      1  0.5193230000000  0.5553800000000  0.5185610000000 1.0
C      1  0.4040470000000  0.4960290000000  0.4751010000000 1.0
END
