TITL C-3289333-7213-471 0.000932174450992679 125000 -459.28632762274 0 0 82 (C1) n - 1
REM
REM in /nfs/bkarasulu/CARBON/AIRSS/Generating-Clusters/AIREBO/with-SteepDescent/Higher-Symm/SD-CG/HFTN-CG
REM
REM
REM
REM
REM
REM ./C.cell (b20cbc046b6831c77cfcea5457e17084)
REM
REM compiler GCC version 9.2.1 20190827 (Red Hat 9.2.1-1)
REM options -cpp -mtune=generic -march=x86-64 -g -O0 -fpre-include=/usr/include/finclude/math-vector-fortran.h
REM seed 826519917 1846444209 -1063047837 -1511945181 810960189 -733090303 -1567828003 -1479576385 -1348952984 -1743348979 -307576472 1829903137 -608946981 -986227720 1652937547 220486255 -682815011 -1522291225 1173454077 -2014511502 1701251985 -336897866 616701361 -229976250 -442008076 2109275143 -1473469034 -563910381 1288035113 -473650081 144050743 565466714 -1145134084
REM
CELL 1.54180   50.00000   50.00000   50.00000   90.00000   90.00000   90.00000
LATT -1
SFAC C  
C      1  0.4814120000000  0.4303900000000  0.5282990000000 1.0
C      1  0.5017180000000  0.5772340000000  0.5146380000000 1.0
C      1  0.5113540000000  0.4323100000000  0.5359730000000 1.0
C      1  0.4777650000000  0.5651610000000  0.5346610000000 1.0
C      1  0.5202420000000  0.4896520000000  0.5550610000000 1.0
C      1  0.4806550000000  0.5240640000000  0.5603750000000 1.0
C      1  0.4895540000000  0.4841380000000  0.5565600000000 1.0
C      1  0.5067730000000  0.5190830000000  0.5651230000000 1.0
C      1  0.5448560000000  0.4501360000000  0.5698560000000 1.0
C      1  0.4510180000000  0.5416470000000  0.5805540000000 1.0
C      1  0.4597930000000  0.4600980000000  0.5680590000000 1.0
C      1  0.5351180000000  0.5261070000000  0.5620240000000 1.0
C      1  0.5453280000000  0.4295240000000  0.5038520000000 1.0
C      1  0.4480950000000  0.5807890000000  0.5290210000000 1.0
C      1  0.4556480000000  0.4329420000000  0.5070580000000 1.0
C      1  0.5287110000000  0.5726580000000  0.5161690000000 1.0
C      1  0.5146650000000  0.5353690000000  0.5169930000000 1.0
C      1  0.4769260000000  0.4666590000000  0.5087290000000 1.0
C      1  0.4852870000000  0.5409620000000  0.5127500000000 1.0
C      1  0.5075490000000  0.4579750000000  0.5160340000000 1.0
C      1  0.5264550000000  0.4824140000000  0.5247600000000 1.0
C      1  0.4696430000000  0.5215400000000  0.5313400000000 1.0
C      1  0.4784450000000  0.4921410000000  0.5311880000000 1.0
C      1  0.5354940000000  0.5120990000000  0.5123040000000 1.0
C      1  0.5669540000000  0.4801550000000  0.4391800000000 1.0
C      1  0.4435500000000  0.5046760000000  0.4310040000000 1.0
C      1  0.4583730000000  0.4746790000000  0.4370570000000 1.0
C      1  0.5576820000000  0.5070200000000  0.4426720000000 1.0
C      1  0.4741850000000  0.5498580000000  0.4817980000000 1.0
C      1  0.5197390000000  0.4346860000000  0.4969780000000 1.0
C      1  0.5493830000000  0.5674930000000  0.4610190000000 1.0
C      1  0.4669270000000  0.4473340000000  0.4825340000000 1.0
C      1  0.5115110000000  0.5147230000000  0.4658030000000 1.0
C      1  0.4888310000000  0.4879420000000  0.4850310000000 1.0
C      1  0.4808300000000  0.5139650000000  0.4656780000000 1.0
C      1  0.5144900000000  0.4755240000000  0.4730140000000 1.0
C      1  0.5510710000000  0.5065060000000  0.5757880000000 1.0
C      1  0.4696310000000  0.4858620000000  0.5793940000000 1.0
C      1  0.4606560000000  0.5133410000000  0.5804750000000 1.0
C      1  0.5420000000000  0.4777330000000  0.5738640000000 1.0
C      1  0.5523310000000  0.5490920000000  0.5095500000000 1.0
C      1  0.4368530000000  0.4595670000000  0.5185190000000 1.0
C      1  0.4398280000000  0.5477680000000  0.5275390000000 1.0
C      1  0.5577270000000  0.4541860000000  0.5215540000000 1.0
C      1  0.4881610000000  0.4710800000000  0.4265920000000 1.0
C      1  0.5273880000000  0.5100900000000  0.4361900000000 1.0
C      1  0.5146630000000  0.4819830000000  0.4433800000000 1.0
C      1  0.4726370000000  0.5119910000000  0.4353480000000 1.0
C      1  0.5794320000000  0.4680490000000  0.4613670000000 1.0
C      1  0.4401510000000  0.5338370000000  0.4429210000000 1.0
C      1  0.4405430000000  0.4723390000000  0.4625650000000 1.0
C      1  0.5596100000000  0.5221730000000  0.4683300000000 1.0
C      1  0.4715720000000  0.4486770000000  0.4547130000000 1.0
C      1  0.5326020000000  0.5602560000000  0.4404010000000 1.0
C      1  0.5527400000000  0.4625520000000  0.4211990000000 1.0
C      1  0.4645120000000  0.5475310000000  0.4514460000000 1.0
C      1  0.4552520000000  0.4910400000000  0.4856100000000 1.0
C      1  0.5364920000000  0.5077340000000  0.4815610000000 1.0
C      1  0.5391100000000  0.4772980000000  0.4935440000000 1.0
C      1  0.4543230000000  0.5235540000000  0.4847630000000 1.0
C      1  0.5374280000000  0.5415430000000  0.5391710000000 1.0
C      1  0.4627000000000  0.4561510000000  0.5378040000000 1.0
C      1  0.4544780000000  0.5551370000000  0.5573240000000 1.0
C      1  0.5392800000000  0.4397670000000  0.5438030000000 1.0
C      1  0.4066390000000  0.5228440000000  0.4966540000000 1.0
C      1  0.5931540000000  0.4798670000000  0.5047620000000 1.0
C      1  0.5958700000000  0.5093200000000  0.5099850000000 1.0
C      1  0.4049910000000  0.4956550000000  0.5044460000000 1.0
C      1  0.4309530000000  0.5346890000000  0.5003470000000 1.0
C      1  0.5677750000000  0.4626070000000  0.4901260000000 1.0
C      1  0.5591010000000  0.5482110000000  0.4790540000000 1.0
C      1  0.4259890000000  0.4751230000000  0.4909660000000 1.0
C      1  0.5254380000000  0.4570030000000  0.4263760000000 1.0
C      1  0.4876450000000  0.5396480000000  0.4334620000000 1.0
C      1  0.4981360000000  0.4418830000000  0.4359170000000 1.0
C      1  0.5151930000000  0.5392960000000  0.4344630000000 1.0
C      1  0.4379960000000  0.5144230000000  0.5340010000000 1.0
C      1  0.5660850000000  0.4862210000000  0.5216750000000 1.0
C      1  0.5659930000000  0.5202320000000  0.5215740000000 1.0
C      1  0.4248200000000  0.4905350000000  0.5273340000000 1.0
C      1  0.4900420000000  0.5765810000000  0.4894790000000 1.0
C      1  0.5060500000000  0.4458770000000  0.4747760000000 1.0
END
