TITL C-3289328-6581-143 -0.00319105200639003 125000 -493.227792122867 0 0 95 (C1) n - 1
REM
REM in /nfs/bkarasulu/CARBON/AIRSS/Generating-Clusters/AIREBO/with-SteepDescent/Higher-Symm/SD-CG/HFTN-CG
REM
REM
REM
REM
REM
REM ./C.cell (b20cbc046b6831c77cfcea5457e17084)
REM
REM compiler GCC version 9.2.1 20190827 (Red Hat 9.2.1-1)
REM options -cpp -mtune=generic -march=x86-64 -g -O0 -fpre-include=/usr/include/finclude/math-vector-fortran.h
REM seed 1972345855 -1219342443 -1094184788 763066670 2086792190 -110820599 1055818791 -1663666683 -1223804489 -898008245 1537046970 827210689 -1276693882 1316122278 -427767599 1904685097 2072023891 1301125157 -1253865243 1999255911 -1433471765 234256204 -1136842824 -1535252951 1089299740 220027184 1054597711 1647133603 834199604 1436901337 -1151159346 1228508919 416296229
REM
CELL 1.54180   50.00000   50.00000   50.00000   90.00000   90.00000   90.00000
LATT -1
SFAC C  
C      1  0.4844260000000  0.4299600000000  0.5255870000000 1.0
C      1  0.5079450000000  0.4426180000000  0.5157380000000 1.0
C      1  0.5113630000000  0.4310740000000  0.4894040000000 1.0
C      1  0.4877270000000  0.4165040000000  0.4824410000000 1.0
C      1  0.4694610000000  0.4190650000000  0.5045200000000 1.0
C      1  0.5620890000000  0.5441730000000  0.5286950000000 1.0
C      1  0.5495560000000  0.5425400000000  0.4495090000000 1.0
C      1  0.4667490000000  0.5356260000000  0.4410900000000 1.0
C      1  0.4362200000000  0.5444290000000  0.5132920000000 1.0
C      1  0.4899880000000  0.5465540000000  0.5632170000000 1.0
C      1  0.5016830000000  0.5397150000000  0.4595430000000 1.0
C      1  0.4663910000000  0.5409630000000  0.4979830000000 1.0
C      1  0.4831840000000  0.5343990000000  0.5258110000000 1.0
C      1  0.5123340000000  0.5447450000000  0.5299880000000 1.0
C      1  0.5415360000000  0.5438270000000  0.4886210000000 1.0
C      1  0.4566490000000  0.4651780000000  0.5256490000000 1.0
C      1  0.5154160000000  0.4635810000000  0.5353520000000 1.0
C      1  0.5488020000000  0.4782660000000  0.5005730000000 1.0
C      1  0.5105210000000  0.4787450000000  0.4563880000000 1.0
C      1  0.4603470000000  0.4758550000000  0.4765960000000 1.0
C      1  0.4871420000000  0.5853350000000  0.5143160000000 1.0
C      1  0.5151900000000  0.5739510000000  0.5189140000000 1.0
C      1  0.5266600000000  0.5710200000000  0.4894260000000 1.0
C      1  0.5008470000000  0.5685410000000  0.4708390000000 1.0
C      1  0.4754280000000  0.5710090000000  0.4898470000000 1.0
C      1  0.5052100000000  0.4562830000000  0.5664880000000 1.0
C      1  0.5713010000000  0.4625240000000  0.5146090000000 1.0
C      1  0.5329000000000  0.4651500000000  0.4392750000000 1.0
C      1  0.4521030000000  0.4660970000000  0.4495580000000 1.0
C      1  0.4277780000000  0.4565180000000  0.5142750000000 1.0
C      1  0.5439800000000  0.4417800000000  0.4545720000000 1.0
C      1  0.4673990000000  0.4428280000000  0.4398360000000 1.0
C      1  0.4403490000000  0.4261550000000  0.5055520000000 1.0
C      1  0.4852710000000  0.4314590000000  0.5565380000000 1.0
C      1  0.5616000000000  0.4369050000000  0.5280160000000 1.0
C      1  0.4386480000000  0.5277760000000  0.4833570000000 1.0
C      1  0.4622830000000  0.5339320000000  0.5515480000000 1.0
C      1  0.5376670000000  0.5346260000000  0.5503430000000 1.0
C      1  0.5688080000000  0.5322930000000  0.4756140000000 1.0
C      1  0.4982900000000  0.5305460000000  0.4294220000000 1.0
C      1  0.4312040000000  0.4755960000000  0.4889830000000 1.0
C      1  0.4529360000000  0.4738450000000  0.5562090000000 1.0
C      1  0.5397190000000  0.4737940000000  0.5568390000000 1.0
C      1  0.5690340000000  0.4822170000000  0.4756460000000 1.0
C      1  0.4977990000000  0.4817950000000  0.4273500000000 1.0
C      1  0.5267170000000  0.4974920000000  0.5174150000000 1.0
C      1  0.5221270000000  0.4951750000000  0.4838030000000 1.0
C      1  0.4883220000000  0.4935940000000  0.4804680000000 1.0
C      1  0.4706520000000  0.4860410000000  0.5085190000000 1.0
C      1  0.5065830000000  0.4938280000000  0.5401050000000 1.0
C      1  0.4600140000000  0.5025180000000  0.5610870000000 1.0
C      1  0.5482710000000  0.5057230000000  0.5648010000000 1.0
C      1  0.5815150000000  0.5056090000000  0.4691390000000 1.0
C      1  0.4979160000000  0.5051260000000  0.4134060000000 1.0
C      1  0.4197470000000  0.5027180000000  0.4871270000000 1.0
C      1  0.4948110000000  0.4480330000000  0.4307420000000 1.0
C      1  0.4307520000000  0.4403850000000  0.4780680000000 1.0
C      1  0.4553950000000  0.4399750000000  0.5579520000000 1.0
C      1  0.5437410000000  0.4404860000000  0.5512370000000 1.0
C      1  0.5643630000000  0.4484420000000  0.4748260000000 1.0
C      1  0.5174100000000  0.4198480000000  0.5574140000000 1.0
C      1  0.5650360000000  0.4258860000000  0.5003260000000 1.0
C      1  0.5184870000000  0.4285770000000  0.4456630000000 1.0
C      1  0.4463610000000  0.4267110000000  0.4524980000000 1.0
C      1  0.4334730000000  0.4242690000000  0.5369300000000 1.0
C      1  0.5701130000000  0.5082360000000  0.5815240000000 1.0
C      1  0.6055380000000  0.5058460000000  0.4557720000000 1.0
C      1  0.4960570000000  0.5067490000000  0.3861070000000 1.0
C      1  0.3936490000000  0.5065090000000  0.4879160000000 1.0
C      1  0.4575090000000  0.5085680000000  0.5914260000000 1.0
C      1  0.4257410000000  0.4550820000000  0.5485540000000 1.0
C      1  0.5310550000000  0.4482290000000  0.5818260000000 1.0
C      1  0.5914680000000  0.4552090000000  0.4942260000000 1.0
C      1  0.5230590000000  0.4549550000000  0.4131110000000 1.0
C      1  0.4236500000000  0.4596170000000  0.4513250000000 1.0
C      1  0.5254650000000  0.5613340000000  0.5919220000000 1.0
C      1  0.6025100000000  0.5559510000000  0.5070550000000 1.0
C      1  0.5341530000000  0.5610030000000  0.4091200000000 1.0
C      1  0.4196470000000  0.5397070000000  0.4388420000000 1.0
C      1  0.4184110000000  0.5575700000000  0.5571980000000 1.0
C      1  0.4823510000000  0.5234070000000  0.4767010000000 1.0
C      1  0.4795220000000  0.5032260000000  0.5330420000000 1.0
C      1  0.5157430000000  0.5046160000000  0.5648550000000 1.0
C      1  0.5303860000000  0.5269830000000  0.5121580000000 1.0
C      1  0.5236390000000  0.5240470000000  0.4731650000000 1.0
C      1  0.5004500000000  0.5907100000000  0.4496230000000 1.0
C      1  0.4529370000000  0.5869420000000  0.4765570000000 1.0
C      1  0.4740360000000  0.6003630000000  0.5310200000000 1.0
C      1  0.5328840000000  0.5922640000000  0.5358580000000 1.0
C      1  0.5440680000000  0.5948970000000  0.4815600000000 1.0
C      1  0.5774330000000  0.5443390000000  0.5060890000000 1.0
C      1  0.5292750000000  0.5444800000000  0.4309810000000 1.0
C      1  0.4425550000000  0.5341240000000  0.4531190000000 1.0
C      1  0.4371310000000  0.5463330000000  0.5408380000000 1.0
C      1  0.5159410000000  0.5484800000000  0.5696120000000 1.0
END
