TITL C-3289324-3781-178 -5.34023643319076e-05 125000 -263.607200111467 0 0 50 (C1) n - 1
REM
REM in /nfs/bkarasulu/CARBON/AIRSS/Generating-Clusters/AIREBO/with-SteepDescent/Higher-Symm/SD-CG/HFTN-CG
REM
REM
REM
REM
REM
REM ./C.cell (b20cbc046b6831c77cfcea5457e17084)
REM
REM compiler GCC version 9.2.1 20190827 (Red Hat 9.2.1-1)
REM options -cpp -mtune=generic -march=x86-64 -g -O0 -fpre-include=/usr/include/finclude/math-vector-fortran.h
REM seed 587875051 182782707 1575946037 662969666 1782889150 -1013221218 1575964488 -1046237937 -1868930921 1382249574 2085739909 310158528 -178214473 -169155840 -629631475 489131519 739598230 -1953423559 -1185313082 -1092657540 603755356 918466699 -885663690 1354984044 -316615031 -1660833950 1437569585 2053571927 1361881107 925348234 1530559831 -1539456297 -468515585
REM
CELL 1.54180   50.00000   50.00000   50.00000   90.00000   90.00000   90.00000
LATT -1
SFAC C  
C      1  0.4610280000000  0.4499490000000  0.5043250000000 1.0
C      1  0.5126980000000  0.4367680000000  0.5335690000000 1.0
C      1  0.4750850000000  0.5346470000000  0.4476950000000 1.0
C      1  0.5579900000000  0.4864900000000  0.5255180000000 1.0
C      1  0.5798960000000  0.4694930000000  0.5334110000000 1.0
C      1  0.5265520000000  0.4953470000000  0.5349750000000 1.0
C      1  0.4116510000000  0.5058710000000  0.4821440000000 1.0
C      1  0.4718320000000  0.4823470000000  0.4487560000000 1.0
C      1  0.4605720000000  0.5296770000000  0.5048840000000 1.0
C      1  0.5498130000000  0.5361240000000  0.4809150000000 1.0
C      1  0.4828190000000  0.5015980000000  0.5598350000000 1.0
C      1  0.4731750000000  0.4803250000000  0.4944110000000 1.0
C      1  0.5159750000000  0.5374790000000  0.4764720000000 1.0
C      1  0.5335580000000  0.4632880000000  0.4688750000000 1.0
C      1  0.4518350000000  0.5468160000000  0.5226490000000 1.0
C      1  0.4475310000000  0.4865380000000  0.4605360000000 1.0
C      1  0.5108550000000  0.5038580000000  0.4770930000000 1.0
C      1  0.5348750000000  0.5629120000000  0.4869490000000 1.0
C      1  0.4664500000000  0.5632320000000  0.4840040000000 1.0
C      1  0.5084450000000  0.5104270000000  0.5104020000000 1.0
C      1  0.4768900000000  0.5056610000000  0.5120920000000 1.0
C      1  0.4378260000000  0.4848730000000  0.5422070000000 1.0
C      1  0.5248510000000  0.5776000000000  0.5082230000000 1.0
C      1  0.5058170000000  0.5133670000000  0.5524010000000 1.0
C      1  0.5503150000000  0.5338250000000  0.5366930000000 1.0
C      1  0.5195500000000  0.5345190000000  0.5321510000000 1.0
C      1  0.5114000000000  0.5638890000000  0.5279580000000 1.0
C      1  0.4342860000000  0.5115400000000  0.4652250000000 1.0
C      1  0.4893970000000  0.5505400000000  0.4698710000000 1.0
C      1  0.5652070000000  0.4911330000000  0.4842070000000 1.0
C      1  0.5646320000000  0.5166550000000  0.5219310000000 1.0
C      1  0.4891640000000  0.4356780000000  0.5479200000000 1.0
C      1  0.5593820000000  0.4911320000000  0.4564570000000 1.0
C      1  0.4866930000000  0.4599280000000  0.4559870000000 1.0
C      1  0.5416610000000  0.4755430000000  0.5577130000000 1.0
C      1  0.5428750000000  0.4478020000000  0.4508430000000 1.0
C      1  0.4161600000000  0.4805470000000  0.5264250000000 1.0
C      1  0.4419350000000  0.4695880000000  0.4863470000000 1.0
C      1  0.5036680000000  0.4711340000000  0.4830570000000 1.0
C      1  0.5335820000000  0.4995960000000  0.4521540000000 1.0
C      1  0.5664700000000  0.5180860000000  0.4938910000000 1.0
C      1  0.5399070000000  0.4742780000000  0.4994420000000 1.0
C      1  0.4898220000000  0.5057470000000  0.4504260000000 1.0
C      1  0.4937940000000  0.5237660000000  0.4217290000000 1.0
C      1  0.4800920000000  0.4590680000000  0.5275390000000 1.0
C      1  0.4535600000000  0.5333190000000  0.4739360000000 1.0
C      1  0.4683030000000  0.4862240000000  0.5372210000000 1.0
C      1  0.5139380000000  0.4589290000000  0.5133060000000 1.0
C      1  0.5488270000000  0.4598170000000  0.5764940000000 1.0
C      1  0.4173600000000  0.4830300000000  0.4987360000000 1.0
END
