TITL C-3289331-6719-75 0.000884946169158456 125000 -230.562013441054 0 0 44 (C1) n - 1
REM
REM in /nfs/bkarasulu/CARBON/AIRSS/Generating-Clusters/AIREBO/with-SteepDescent/Higher-Symm/SD-CG/HFTN-CG
REM
REM
REM
REM
REM
REM ./C.cell (b20cbc046b6831c77cfcea5457e17084)
REM
REM compiler GCC version 9.2.1 20190827 (Red Hat 9.2.1-1)
REM options -cpp -mtune=generic -march=x86-64 -g -O0 -fpre-include=/usr/include/finclude/math-vector-fortran.h
REM seed -735568283 1691547692 -1032057439 -174804755 -1809322403 -1681026730 1748915616 158205315 1248273823 -1303683079 -605049850 614669671 -613474657 309225390 585485741 -678843897 1288308283 107697530 1432262520 -555256066 -1177730318 1587312728 1097535713 -1077885725 352467878 358977828 -250145753 -1317604115 1209446097 394802586 -298969796 -1285389447 141151557
REM
CELL 1.54180   50.00000   50.00000   50.00000   90.00000   90.00000   90.00000
LATT -1
SFAC C  
C      1  0.4696400000000  0.4845910000000  0.5666990000000 1.0
C      1  0.4703090000000  0.5162820000000  0.5565840000000 1.0
C      1  0.4911090000000  0.5382180000000  0.5712550000000 1.0
C      1  0.5198150000000  0.5273440000000  0.5585160000000 1.0
C      1  0.5352560000000  0.5017440000000  0.5717400000000 1.0
C      1  0.5237010000000  0.4705940000000  0.5714190000000 1.0
C      1  0.4950840000000  0.4673800000000  0.5559170000000 1.0
C      1  0.4832090000000  0.4595180000000  0.4935480000000 1.0
C      1  0.4702720000000  0.5062440000000  0.4973480000000 1.0
C      1  0.4790620000000  0.5381580000000  0.4976710000000 1.0
C      1  0.5084260000000  0.5427460000000  0.5043960000000 1.0
C      1  0.5298600000000  0.5222490000000  0.4951970000000 1.0
C      1  0.5282170000000  0.4882890000000  0.4963180000000 1.0
C      1  0.5104760000000  0.4598730000000  0.4999630000000 1.0
C      1  0.5012260000000  0.5385970000000  0.4491750000000 1.0
C      1  0.5257320000000  0.5210140000000  0.4641540000000 1.0
C      1  0.5495560000000  0.4792720000000  0.4743730000000 1.0
C      1  0.4863320000000  0.4795800000000  0.4434410000000 1.0
C      1  0.4690970000000  0.4675570000000  0.4671760000000 1.0
C      1  0.4603220000000  0.5001700000000  0.4656890000000 1.0
C      1  0.4741420000000  0.5306320000000  0.4663800000000 1.0
C      1  0.5493260000000  0.5194610000000  0.5463160000000 1.0
C      1  0.5480260000000  0.4796660000000  0.5499520000000 1.0
C      1  0.5191540000000  0.4477050000000  0.5466110000000 1.0
C      1  0.4663320000000  0.4613500000000  0.5419110000000 1.0
C      1  0.4480420000000  0.4968560000000  0.5437760000000 1.0
C      1  0.4679760000000  0.5474470000000  0.5478600000000 1.0
C      1  0.5098260000000  0.5564490000000  0.5494240000000 1.0
C      1  0.4482040000000  0.4970090000000  0.5166990000000 1.0
C      1  0.4644030000000  0.5529110000000  0.5213390000000 1.0
C      1  0.5126730000000  0.5615590000000  0.5234230000000 1.0
C      1  0.5520010000000  0.5227100000000  0.5192280000000 1.0
C      1  0.5452710000000  0.4835780000000  0.5236450000000 1.0
C      1  0.5208720000000  0.4432060000000  0.5203320000000 1.0
C      1  0.4664660000000  0.4544700000000  0.5161340000000 1.0
C      1  0.5337160000000  0.5455090000000  0.4419220000000 1.0
C      1  0.5743520000000  0.4912190000000  0.4747770000000 1.0
C      1  0.5442330000000  0.4571610000000  0.4589280000000 1.0
C      1  0.4827980000000  0.4707090000000  0.4178990000000 1.0
C      1  0.4495740000000  0.4490500000000  0.4590340000000 1.0
C      1  0.4316500000000  0.5027190000000  0.4553960000000 1.0
C      1  0.4706820000000  0.5483450000000  0.4392180000000 1.0
C      1  0.5031510000000  0.4982720000000  0.4532130000000 1.0
C      1  0.4988650000000  0.4987570000000  0.4834520000000 1.0
END
