TITL C-3289320-4661-516 -0.00341267140125915 125000 -99.9542366140371 0 0 25 (C1) n - 1
REM
REM in /nfs/bkarasulu/CARBON/AIRSS/Generating-Clusters/AIREBO/with-SteepDescent/Higher-Symm/SD-CG/HFTN-CG
REM
REM
REM
REM
REM
REM ./C.cell (b20cbc046b6831c77cfcea5457e17084)
REM
REM compiler GCC version 9.2.1 20190827 (Red Hat 9.2.1-1)
REM options -cpp -mtune=generic -march=x86-64 -g -O0 -fpre-include=/usr/include/finclude/math-vector-fortran.h
REM seed -1745677157 -715912469 -1576420965 1753133805 930861128 2134354609 -1456090116 789769752 -1435908886 -1758417731 485094111 1266759702 -105235272 121387225 -122827569 -446028281 1741778578 -928488392 1788142692 -221899811 -1551691231 -1515075811 860907740 1740189631 259399448 143699238 807121108 549788557 101121630 -1356764151 1400845192 -107059094 835906524
REM
CELL 1.54180   50.00000   50.00000   50.00000   90.00000   90.00000   90.00000
LATT -1
SFAC C  
C      1  0.4871050000000  0.5379090000000  0.5378320000000 1.0
C      1  0.5540120000000  0.5388870000000  0.4841960000000 1.0
C      1  0.5020840000000  0.5541150000000  0.4559690000000 1.0
C      1  0.4642510000000  0.5333220000000  0.5244710000000 1.0
C      1  0.4886250000000  0.4752180000000  0.4452350000000 1.0
C      1  0.5416510000000  0.4530240000000  0.5165660000000 1.0
C      1  0.5140230000000  0.4749880000000  0.5534870000000 1.0
C      1  0.4579940000000  0.4517320000000  0.4872910000000 1.0
C      1  0.4925680000000  0.4803090000000  0.5279870000000 1.0
C      1  0.5241910000000  0.4768570000000  0.4997370000000 1.0
C      1  0.5089920000000  0.4777920000000  0.4719900000000 1.0
C      1  0.4768000000000  0.4766620000000  0.5008600000000 1.0
C      1  0.4931890000000  0.5276690000000  0.4745000000000 1.0
C      1  0.5301270000000  0.5182900000000  0.4968970000000 1.0
C      1  0.5115830000000  0.5217010000000  0.5234340000000 1.0
C      1  0.4711510000000  0.5182370000000  0.4954290000000 1.0
C      1  0.4505930000000  0.4800060000000  0.4794560000000 1.0
C      1  0.4840890000000  0.4738500000000  0.5597840000000 1.0
C      1  0.5505960000000  0.4816960000000  0.5206910000000 1.0
C      1  0.5182650000000  0.4698230000000  0.4407010000000 1.0
C      1  0.4460390000000  0.5091350000000  0.5165660000000 1.0
C      1  0.4965820000000  0.5279610000000  0.4410550000000 1.0
C      1  0.5510180000000  0.5120750000000  0.4706800000000 1.0
C      1  0.5125870000000  0.5330390000000  0.5555470000000 1.0
C      1  0.5003580000000  0.5011100000000  0.4987950000000 1.0
END
