TITL C-3289320-4661-502 0.000231202483553414 125000 -557.620862946302 0 0 104 (C1) n - 1
REM
REM in /nfs/bkarasulu/CARBON/AIRSS/Generating-Clusters/AIREBO/with-SteepDescent/Higher-Symm/SD-CG/HFTN-CG
REM
REM
REM
REM
REM
REM ./C.cell (b20cbc046b6831c77cfcea5457e17084)
REM
REM compiler GCC version 9.2.1 20190827 (Red Hat 9.2.1-1)
REM options -cpp -mtune=generic -march=x86-64 -g -O0 -fpre-include=/usr/include/finclude/math-vector-fortran.h
REM seed 1158048708 -1680138183 125244747 1360831053 2143127170 -978993910 -40860474 -542834769 380529780 -2034523938 120555228 1775657540 -117326070 114234608 -625256147 134164767 750126384 -2133203633 1579665270 -1419446447 444616763 643410812 1252203903 418245665 -617413690 -1265069597 1930736455 1631108536 493330046 -1036225755 531784981 -1422970402 1256085887
REM
CELL 1.54180   50.00000   50.00000   50.00000   90.00000   90.00000   90.00000
LATT -1
SFAC C  
C      1  0.4821570000000  0.4363830000000  0.4606040000000 1.0
C      1  0.4798160000000  0.5047860000000  0.5756520000000 1.0
C      1  0.4778460000000  0.5634630000000  0.4520680000000 1.0
C      1  0.5119110000000  0.4970270000000  0.5389480000000 1.0
C      1  0.5072200000000  0.5390070000000  0.4833520000000 1.0
C      1  0.5136050000000  0.4608050000000  0.4746650000000 1.0
C      1  0.4922230000000  0.4512170000000  0.5134940000000 1.0
C      1  0.4936520000000  0.5486540000000  0.5417260000000 1.0
C      1  0.4929640000000  0.5060880000000  0.4483170000000 1.0
C      1  0.4743880000000  0.5748460000000  0.4977850000000 1.0
C      1  0.4866180000000  0.4672150000000  0.4548620000000 1.0
C      1  0.4816410000000  0.4585910000000  0.5646870000000 1.0
C      1  0.5968580000000  0.5092560000000  0.4446040000000 1.0
C      1  0.5966670000000  0.4505160000000  0.5279810000000 1.0
C      1  0.5892310000000  0.5182270000000  0.5254670000000 1.0
C      1  0.4878650000000  0.5834250000000  0.5229980000000 1.0
C      1  0.4879730000000  0.4752680000000  0.4238480000000 1.0
C      1  0.4959610000000  0.4297570000000  0.5606210000000 1.0
C      1  0.5433120000000  0.5050990000000  0.4267570000000 1.0
C      1  0.5404500000000  0.4339060000000  0.5320770000000 1.0
C      1  0.5447110000000  0.5774430000000  0.5446720000000 1.0
C      1  0.5169950000000  0.4902070000000  0.4302290000000 1.0
C      1  0.5120620000000  0.4483300000000  0.5371300000000 1.0
C      1  0.5159050000000  0.5704730000000  0.5281060000000 1.0
C      1  0.4861050000000  0.5103830000000  0.4152510000000 1.0
C      1  0.4922130000000  0.4123670000000  0.5316430000000 1.0
C      1  0.4932580000000  0.5684240000000  0.5694190000000 1.0
C      1  0.4661400000000  0.5111500000000  0.4774540000000 1.0
C      1  0.4647930000000  0.4801310000000  0.5120990000000 1.0
C      1  0.4685800000000  0.5259860000000  0.5204110000000 1.0
C      1  0.4367570000000  0.4717280000000  0.5442420000000 1.0
C      1  0.4298080000000  0.5601850000000  0.5004910000000 1.0
C      1  0.4233280000000  0.4740210000000  0.4429980000000 1.0
C      1  0.4500460000000  0.4539350000000  0.5610870000000 1.0
C      1  0.4443860000000  0.5835990000000  0.5002280000000 1.0
C      1  0.4340330000000  0.4720400000000  0.4175930000000 1.0
C      1  0.4249190000000  0.5170770000000  0.5227680000000 1.0
C      1  0.4234870000000  0.5173150000000  0.4755370000000 1.0
C      1  0.4211120000000  0.4747080000000  0.4965550000000 1.0
C      1  0.4515150000000  0.5548690000000  0.4513150000000 1.0
C      1  0.4526630000000  0.4366760000000  0.4711680000000 1.0
C      1  0.4546270000000  0.5106370000000  0.5660980000000 1.0
C      1  0.5187840000000  0.4833490000000  0.5866450000000 1.0
C      1  0.5142850000000  0.5850590000000  0.4693740000000 1.0
C      1  0.5289550000000  0.4159940000000  0.4488110000000 1.0
C      1  0.5493540000000  0.5467350000000  0.4479510000000 1.0
C      1  0.5542440000000  0.4288120000000  0.4917330000000 1.0
C      1  0.5533040000000  0.5236220000000  0.5613110000000 1.0
C      1  0.5407120000000  0.5438140000000  0.5772080000000 1.0
C      1  0.5337860000000  0.5473790000000  0.4238640000000 1.0
C      1  0.5370330000000  0.4079020000000  0.5019960000000 1.0
C      1  0.5385810000000  0.5902400000000  0.5146760000000 1.0
C      1  0.5245970000000  0.4609200000000  0.4362250000000 1.0
C      1  0.5356150000000  0.4459340000000  0.5619060000000 1.0
C      1  0.5112770000000  0.4161280000000  0.5113740000000 1.0
C      1  0.5127120000000  0.5455380000000  0.5765470000000 1.0
C      1  0.5125860000000  0.5296860000000  0.4228940000000 1.0
C      1  0.4421720000000  0.5430280000000  0.4788350000000 1.0
C      1  0.4367290000000  0.4648640000000  0.4702550000000 1.0
C      1  0.4503590000000  0.5010660000000  0.5346830000000 1.0
C      1  0.4303870000000  0.5456210000000  0.5243580000000 1.0
C      1  0.4292770000000  0.5007680000000  0.4544060000000 1.0
C      1  0.4273820000000  0.4597730000000  0.5191500000000 1.0
C      1  0.5536580000000  0.4698530000000  0.5639070000000 1.0
C      1  0.5520570000000  0.5724890000000  0.4935030000000 1.0
C      1  0.5551020000000  0.4635280000000  0.4462110000000 1.0
C      1  0.5376670000000  0.4757110000000  0.4935030000000 1.0
C      1  0.5357080000000  0.5112580000000  0.5220780000000 1.0
C      1  0.5303730000000  0.5141050000000  0.4827170000000 1.0
C      1  0.5060430000000  0.4938730000000  0.4773300000000 1.0
C      1  0.5084570000000  0.4805700000000  0.5093670000000 1.0
C      1  0.5084290000000  0.5313310000000  0.5164610000000 1.0
C      1  0.4595160000000  0.5515890000000  0.5408650000000 1.0
C      1  0.4590530000000  0.5075240000000  0.4443940000000 1.0
C      1  0.4591410000000  0.4476710000000  0.5205290000000 1.0
C      1  0.4740620000000  0.5414800000000  0.4906230000000 1.0
C      1  0.4652600000000  0.4793340000000  0.4780670000000 1.0
C      1  0.4834450000000  0.4791380000000  0.5405120000000 1.0
C      1  0.5596850000000  0.5574800000000  0.5230500000000 1.0
C      1  0.5647930000000  0.4958070000000  0.4507830000000 1.0
C      1  0.5628700000000  0.4594560000000  0.5336710000000 1.0
C      1  0.5369870000000  0.4962290000000  0.5619240000000 1.0
C      1  0.5330360000000  0.5586560000000  0.4730970000000 1.0
C      1  0.5409250000000  0.4419470000000  0.4672450000000 1.0
C      1  0.4915840000000  0.4809820000000  0.5831000000000 1.0
C      1  0.4873170000000  0.5815720000000  0.4706530000000 1.0
C      1  0.5102810000000  0.4376770000000  0.4420280000000 1.0
C      1  0.4651320000000  0.4271720000000  0.5465200000000 1.0
C      1  0.4727350000000  0.5819320000000  0.5486650000000 1.0
C      1  0.4600970000000  0.4884980000000  0.4162340000000 1.0
C      1  0.5585270000000  0.4989500000000  0.4809650000000 1.0
C      1  0.5545820000000  0.4848960000000  0.5180010000000 1.0
C      1  0.5442420000000  0.5362510000000  0.5044830000000 1.0
C      1  0.4995880000000  0.5206500000000  0.5600740000000 1.0
C      1  0.4964310000000  0.5396380000000  0.4511070000000 1.0
C      1  0.4987240000000  0.4334150000000  0.4882520000000 1.0
C      1  0.4509380000000  0.4259630000000  0.4967370000000 1.0
C      1  0.4483970000000  0.5374690000000  0.5678080000000 1.0
C      1  0.4485860000000  0.5357180000000  0.4320440000000 1.0
C      1  0.5733400000000  0.4393680000000  0.5082940000000 1.0
C      1  0.5702670000000  0.5330590000000  0.5402740000000 1.0
C      1  0.5708650000000  0.5290700000000  0.4470390000000 1.0
C      1  0.4167990000000  0.5034110000000  0.4990240000000 1.0
C      1  0.5791580000000  0.5014890000000  0.5071400000000 1.0
END
