TITL C-3289333-7213-434 -0.0002653001435507 125000 -445.940231310463 0 0 81 (C1) n - 1
REM
REM in /nfs/bkarasulu/CARBON/AIRSS/Generating-Clusters/AIREBO/with-SteepDescent/Higher-Symm/SD-CG/HFTN-CG
REM
REM
REM
REM
REM
REM ./C.cell (b20cbc046b6831c77cfcea5457e17084)
REM
REM compiler GCC version 9.2.1 20190827 (Red Hat 9.2.1-1)
REM options -cpp -mtune=generic -march=x86-64 -g -O0 -fpre-include=/usr/include/finclude/math-vector-fortran.h
REM seed 1718910302 -1275858145 -1692104938 669952372 550226942 -2018911324 1324238058 -1884739472 339319898 -1423280162 -527765317 888953100 1933143373 -549279391 368686733 388713332 243274411 1265329534 567270132 1165674155 -86190208 1739488528 -391489657 698985065 -1675378161 -1788776410 -411164325 1479442615 806729876 -2073916692 275649031 -443984278 -1945516327
REM
CELL 1.54180   50.00000   50.00000   50.00000   90.00000   90.00000   90.00000
LATT -1
SFAC C  
C      1  0.5414710000000  0.5770000000000  0.5040120000000 1.0
C      1  0.4684720000000  0.4141340000000  0.4923330000000 1.0
C      1  0.5449090000000  0.4230540000000  0.5030730000000 1.0
C      1  0.4666690000000  0.5729320000000  0.4987540000000 1.0
C      1  0.4087970000000  0.5212980000000  0.5273500000000 1.0
C      1  0.5788770000000  0.4973520000000  0.5223880000000 1.0
C      1  0.4061030000000  0.5003980000000  0.5408330000000 1.0
C      1  0.5815670000000  0.5226100000000  0.5110030000000 1.0
C      1  0.4493570000000  0.4342840000000  0.4850950000000 1.0
C      1  0.5574710000000  0.5647040000000  0.4840200000000 1.0
C      1  0.4459030000000  0.5553050000000  0.4912770000000 1.0
C      1  0.5568350000000  0.4439510000000  0.4885510000000 1.0
C      1  0.4455810000000  0.4632590000000  0.5022810000000 1.0
C      1  0.5591530000000  0.5324310000000  0.4873670000000 1.0
C      1  0.4325100000000  0.5349960000000  0.5077800000000 1.0
C      1  0.5660970000000  0.4740200000000  0.5012070000000 1.0
C      1  0.4912750000000  0.5429580000000  0.5492650000000 1.0
C      1  0.5123550000000  0.4390880000000  0.5335520000000 1.0
C      1  0.4872520000000  0.4386340000000  0.5438540000000 1.0
C      1  0.5106220000000  0.5513600000000  0.5297570000000 1.0
C      1  0.4830800000000  0.5153990000000  0.4763850000000 1.0
C      1  0.5189160000000  0.4885100000000  0.4971050000000 1.0
C      1  0.4857880000000  0.4892160000000  0.4980870000000 1.0
C      1  0.5117310000000  0.5116590000000  0.4782500000000 1.0
C      1  0.5173880000000  0.4473510000000  0.4575820000000 1.0
C      1  0.4983630000000  0.5562210000000  0.4653050000000 1.0
C      1  0.5248790000000  0.5512990000000  0.4574400000000 1.0
C      1  0.4978290000000  0.4447330000000  0.4772720000000 1.0
C      1  0.5551360000000  0.4738590000000  0.4520960000000 1.0
C      1  0.4522220000000  0.5209760000000  0.4078360000000 1.0
C      1  0.5534290000000  0.4893740000000  0.4301600000000 1.0
C      1  0.4586150000000  0.4969840000000  0.3955410000000 1.0
C      1  0.5155840000000  0.4794030000000  0.5654220000000 1.0
C      1  0.4801010000000  0.5149910000000  0.5756020000000 1.0
C      1  0.5108220000000  0.5108830000000  0.5629450000000 1.0
C      1  0.4831970000000  0.4829070000000  0.5698300000000 1.0
C      1  0.5451470000000  0.4753820000000  0.5706500000000 1.0
C      1  0.4540590000000  0.5213120000000  0.5859370000000 1.0
C      1  0.5360770000000  0.5241500000000  0.5763990000000 1.0
C      1  0.4537130000000  0.4732780000000  0.5752960000000 1.0
C      1  0.4301000000000  0.4851780000000  0.5550300000000 1.0
C      1  0.5586540000000  0.5226340000000  0.5607450000000 1.0
C      1  0.4337070000000  0.5169440000000  0.5645700000000 1.0
C      1  0.5649520000000  0.4942220000000  0.5515110000000 1.0
C      1  0.4466930000000  0.4655460000000  0.5328430000000 1.0
C      1  0.5432190000000  0.5318800000000  0.5174130000000 1.0
C      1  0.4478250000000  0.5249020000000  0.5352110000000 1.0
C      1  0.5527630000000  0.4687410000000  0.5320380000000 1.0
C      1  0.5452860000000  0.4489930000000  0.4631270000000 1.0
C      1  0.4474340000000  0.5492420000000  0.4647620000000 1.0
C      1  0.5468310000000  0.5698260000000  0.4577530000000 1.0
C      1  0.4534310000000  0.4596880000000  0.4633180000000 1.0
C      1  0.5222090000000  0.4681010000000  0.5355490000000 1.0
C      1  0.4766550000000  0.5148590000000  0.5420580000000 1.0
C      1  0.5159240000000  0.5180300000000  0.5303120000000 1.0
C      1  0.4749100000000  0.4667120000000  0.5422110000000 1.0
C      1  0.4278200000000  0.5484750000000  0.5475890000000 1.0
C      1  0.5659320000000  0.4429480000000  0.5433720000000 1.0
C      1  0.4264120000000  0.4460860000000  0.5481130000000 1.0
C      1  0.5589400000000  0.5403300000000  0.5387410000000 1.0
C      1  0.5876350000000  0.4897310000000  0.4800880000000 1.0
C      1  0.4221790000000  0.5087640000000  0.4918680000000 1.0
C      1  0.5832700000000  0.5138220000000  0.4722270000000 1.0
C      1  0.4263610000000  0.4845010000000  0.4913410000000 1.0
C      1  0.4757850000000  0.4639370000000  0.4863770000000 1.0
C      1  0.5378970000000  0.5205280000000  0.4635950000000 1.0
C      1  0.4743980000000  0.5371040000000  0.4561320000000 1.0
C      1  0.5456580000000  0.4893160000000  0.4787500000000 1.0
C      1  0.5147070000000  0.5691500000000  0.5094250000000 1.0
C      1  0.4966260000000  0.4212660000000  0.4931720000000 1.0
C      1  0.5180580000000  0.4221880000000  0.5122600000000 1.0
C      1  0.4938240000000  0.5697520000000  0.4899770000000 1.0
C      1  0.5289590000000  0.5093340000000  0.4326080000000 1.0
C      1  0.4754050000000  0.4931760000000  0.4245630000000 1.0
C      1  0.5047720000000  0.4871670000000  0.4284680000000 1.0
C      1  0.4746210000000  0.5296890000000  0.4270470000000 1.0
C      1  0.4568540000000  0.4747470000000  0.4416620000000 1.0
C      1  0.5218050000000  0.5322880000000  0.4132120000000 1.0
C      1  0.4981340000000  0.5408940000000  0.4116270000000 1.0
C      1  0.5103630000000  0.4614200000000  0.4343380000000 1.0
C      1  0.4966580000000  0.4899920000000  0.5302950000000 1.0
END
