TITL C-3289333-7213-478 -0.00115822112127345 125000 -370.690708846168 0 0 66 (C1) n - 1
REM
REM in /nfs/bkarasulu/CARBON/AIRSS/Generating-Clusters/AIREBO/with-SteepDescent/Higher-Symm/SD-CG/HFTN-CG
REM
REM
REM
REM
REM
REM ./C.cell (b20cbc046b6831c77cfcea5457e17084)
REM
REM compiler GCC version 9.2.1 20190827 (Red Hat 9.2.1-1)
REM options -cpp -mtune=generic -march=x86-64 -g -O0 -fpre-include=/usr/include/finclude/math-vector-fortran.h
REM seed -225216289 -1986737654 -29650685 1218856145 1801755599 295691454 869006990 -200661331 210011485 1497336338 -664204320 -1036591272 1802749992 1595538789 -431869316 -124669566 365531056 -437594971 -1939287515 338904631 1164405954 -611546027 1474603501 1024651333 70715635 1743809107 -1707721139 -1568780266 -1885432430 -2088725827 295362544 -1738039090 -357188821
REM
CELL 1.54180   50.00000   50.00000   50.00000   90.00000   90.00000   90.00000
LATT -1
SFAC C  
C      1  0.5481060000000  0.5450050000000  0.4719490000000 1.0
C      1  0.5203480000000  0.5505540000000  0.5241260000000 1.0
C      1  0.5379350000000  0.4759210000000  0.4864720000000 1.0
C      1  0.5456790000000  0.4770410000000  0.5361030000000 1.0
C      1  0.4780060000000  0.5213170000000  0.4842340000000 1.0
C      1  0.4797070000000  0.5253020000000  0.5154200000000 1.0
C      1  0.5124730000000  0.4847430000000  0.4904020000000 1.0
C      1  0.4978630000000  0.4767240000000  0.5152020000000 1.0
C      1  0.5008300000000  0.4974200000000  0.5487040000000 1.0
C      1  0.5029500000000  0.4995130000000  0.4483130000000 1.0
C      1  0.5010400000000  0.5352460000000  0.5673040000000 1.0
C      1  0.4861660000000  0.5344020000000  0.4329330000000 1.0
C      1  0.4398430000000  0.5168450000000  0.4734880000000 1.0
C      1  0.4458220000000  0.5407890000000  0.5298630000000 1.0
C      1  0.4298740000000  0.4621030000000  0.4834830000000 1.0
C      1  0.4538170000000  0.4706340000000  0.5396300000000 1.0
C      1  0.4656550000000  0.5584230000000  0.5336840000000 1.0
C      1  0.4483810000000  0.5419890000000  0.4670830000000 1.0
C      1  0.4802640000000  0.4426050000000  0.4773840000000 1.0
C      1  0.4830740000000  0.4287550000000  0.5009190000000 1.0
C      1  0.5317040000000  0.4403230000000  0.4694110000000 1.0
C      1  0.5214010000000  0.4358020000000  0.5373110000000 1.0
C      1  0.5070060000000  0.5088520000000  0.5216710000000 1.0
C      1  0.5016890000000  0.5033930000000  0.4751280000000 1.0
C      1  0.5019170000000  0.4639240000000  0.5723010000000 1.0
C      1  0.5293040000000  0.4715790000000  0.4321440000000 1.0
C      1  0.5025280000000  0.4425770000000  0.4601890000000 1.0
C      1  0.4955730000000  0.4443660000000  0.5241230000000 1.0
C      1  0.5694900000000  0.5480440000000  0.4909170000000 1.0
C      1  0.5644310000000  0.5376580000000  0.5160690000000 1.0
C      1  0.5430590000000  0.4488550000000  0.4969440000000 1.0
C      1  0.5426870000000  0.4500200000000  0.5255610000000 1.0
C      1  0.4965940000000  0.5115230000000  0.3917620000000 1.0
C      1  0.4985460000000  0.4898830000000  0.5908440000000 1.0
C      1  0.5575070000000  0.5072040000000  0.4164220000000 1.0
C      1  0.5501370000000  0.4776320000000  0.5840920000000 1.0
C      1  0.5460310000000  0.5177950000000  0.4632390000000 1.0
C      1  0.5351070000000  0.5234570000000  0.5196780000000 1.0
C      1  0.4227310000000  0.5244690000000  0.5197370000000 1.0
C      1  0.4215980000000  0.5099470000000  0.4935290000000 1.0
C      1  0.5261520000000  0.5624050000000  0.4786710000000 1.0
C      1  0.5258410000000  0.5709600000000  0.5062020000000 1.0
C      1  0.4797770000000  0.5450570000000  0.4599530000000 1.0
C      1  0.4947990000000  0.5448290000000  0.5388470000000 1.0
C      1  0.4310710000000  0.4906180000000  0.5270420000000 1.0
C      1  0.4171640000000  0.4806070000000  0.4988720000000 1.0
C      1  0.5333320000000  0.5052920000000  0.4341780000000 1.0
C      1  0.5279690000000  0.4843380000000  0.5644670000000 1.0
C      1  0.4632250000000  0.4955730000000  0.4674480000000 1.0
C      1  0.4563100000000  0.5102780000000  0.5352540000000 1.0
C      1  0.4758140000000  0.5057140000000  0.5583250000000 1.0
C      1  0.4766630000000  0.4959740000000  0.4382000000000 1.0
C      1  0.4725060000000  0.5115520000000  0.4131800000000 1.0
C      1  0.4797920000000  0.5169010000000  0.5864910000000 1.0
C      1  0.5189390000000  0.5132290000000  0.5803460000000 1.0
C      1  0.5102350000000  0.5236500000000  0.4172690000000 1.0
C      1  0.5559570000000  0.4989570000000  0.4833160000000 1.0
C      1  0.5522780000000  0.4971080000000  0.5170700000000 1.0
C      1  0.4789750000000  0.4557540000000  0.5485430000000 1.0
C      1  0.5033660000000  0.4582780000000  0.4353730000000 1.0
C      1  0.5016230000000  0.5655260000000  0.4657760000000 1.0
C      1  0.5282620000000  0.5968810000000  0.5130470000000 1.0
C      1  0.5178930000000  0.4368030000000  0.5646430000000 1.0
C      1  0.5465060000000  0.4527420000000  0.4466470000000 1.0
C      1  0.4680590000000  0.4707230000000  0.5119750000000 1.0
C      1  0.4606190000000  0.4676120000000  0.4811050000000 1.0
END
