TITL C-3289321-8710-710 0.00104571090456662 125000 -456.383530497256 0 0 80 (C1) n - 1
REM
REM in /nfs/bkarasulu/CARBON/AIRSS/Generating-Clusters/AIREBO/with-SteepDescent/Higher-Symm/SD-CG/HFTN-CG
REM
REM
REM
REM
REM
REM ./C.cell (b20cbc046b6831c77cfcea5457e17084)
REM
REM compiler GCC version 9.2.1 20190827 (Red Hat 9.2.1-1)
REM options -cpp -mtune=generic -march=x86-64 -g -O0 -fpre-include=/usr/include/finclude/math-vector-fortran.h
REM seed -657453641 791150986 2069086174 856678904 -1690002384 -1204149362 -1375871447 352769421 -2058785634 881813695 676568771 93674849 2081459697 311701183 1528573519 -1937433979 -1308641594 1811286842 -1544283187 -1753645121 1016302962 1933160268 -193050152 -1374204313 -892977589 1499555331 -1903662451 2085429922 898276050 -784592281 -1350306377 320753624 -1302778291
REM
CELL 1.54180   50.00000   50.00000   50.00000   90.00000   90.00000   90.00000
LATT -1
SFAC C  
C      1  0.5317140000000  0.5168860000000  0.4225590000000 1.0
C      1  0.5301110000000  0.4305920000000  0.5272280000000 1.0
C      1  0.5341500000000  0.5598440000000  0.5507430000000 1.0
C      1  0.4606030000000  0.5168700000000  0.4183230000000 1.0
C      1  0.4699210000000  0.4310350000000  0.5285770000000 1.0
C      1  0.4665830000000  0.5621160000000  0.5481730000000 1.0
C      1  0.5308420000000  0.4894910000000  0.4217620000000 1.0
C      1  0.5332790000000  0.5730960000000  0.5265700000000 1.0
C      1  0.5340550000000  0.4411510000000  0.5521460000000 1.0
C      1  0.4610020000000  0.4893640000000  0.4161490000000 1.0
C      1  0.4666330000000  0.5720100000000  0.5226120000000 1.0
C      1  0.4675150000000  0.4369460000000  0.5550560000000 1.0
C      1  0.5123150000000  0.5389700000000  0.4396700000000 1.0
C      1  0.5139770000000  0.4467250000000  0.5019930000000 1.0
C      1  0.5110550000000  0.5362700000000  0.5583780000000 1.0
C      1  0.4820480000000  0.5349680000000  0.4370310000000 1.0
C      1  0.4848740000000  0.4448010000000  0.5016570000000 1.0
C      1  0.4836620000000  0.5416440000000  0.5686310000000 1.0
C      1  0.5110910000000  0.4698960000000  0.4397320000000 1.0
C      1  0.5139290000000  0.5649720000000  0.4994250000000 1.0
C      1  0.5132640000000  0.4648900000000  0.5649500000000 1.0
C      1  0.4817310000000  0.4710800000000  0.4341020000000 1.0
C      1  0.4856100000000  0.5640150000000  0.4955340000000 1.0
C      1  0.4838340000000  0.4621910000000  0.5702680000000 1.0
C      1  0.4501900000000  0.5187050000000  0.5276170000000 1.0
C      1  0.4333340000000  0.5137040000000  0.4584200000000 1.0
C      1  0.4476470000000  0.4574680000000  0.5085220000000 1.0
C      1  0.5647550000000  0.5236010000000  0.5365900000000 1.0
C      1  0.5515880000000  0.5110680000000  0.4667990000000 1.0
C      1  0.5626180000000  0.4541510000000  0.5072400000000 1.0
C      1  0.4540540000000  0.4699390000000  0.5371900000000 1.0
C      1  0.4480050000000  0.4870860000000  0.4602440000000 1.0
C      1  0.4428990000000  0.5329650000000  0.5021060000000 1.0
C      1  0.5513180000000  0.4697290000000  0.5301780000000 1.0
C      1  0.5466710000000  0.4813670000000  0.4659560000000 1.0
C      1  0.5596500000000  0.5364740000000  0.5102850000000 1.0
C      1  0.4597020000000  0.5695930000000  0.4730410000000 1.0
C      1  0.4613350000000  0.4503480000000  0.4520890000000 1.0
C      1  0.4613540000000  0.4876680000000  0.5722800000000 1.0
C      1  0.5389730000000  0.5684020000000  0.4766780000000 1.0
C      1  0.5326550000000  0.4464180000000  0.4525400000000 1.0
C      1  0.5347350000000  0.4883740000000  0.5765400000000 1.0
C      1  0.4628330000000  0.4395010000000  0.4762000000000 1.0
C      1  0.4581810000000  0.5558560000000  0.4493930000000 1.0
C      1  0.4641510000000  0.5144630000000  0.5748710000000 1.0
C      1  0.5318040000000  0.4336110000000  0.4764980000000 1.0
C      1  0.5391050000000  0.5570210000000  0.4519120000000 1.0
C      1  0.5332260000000  0.5152910000000  0.5734700000000 1.0
C      1  0.5264560000000  0.5338230000000  0.5033670000000 1.0
C      1  0.5136560000000  0.4757280000000  0.4719630000000 1.0
C      1  0.5174670000000  0.4719050000000  0.5328420000000 1.0
C      1  0.4726970000000  0.5348080000000  0.4876290000000 1.0
C      1  0.4817860000000  0.4867320000000  0.4642910000000 1.0
C      1  0.4858040000000  0.4811700000000  0.5410910000000 1.0
C      1  0.5241430000000  0.4783910000000  0.5021870000000 1.0
C      1  0.5217830000000  0.5262270000000  0.4705510000000 1.0
C      1  0.5069950000000  0.5259120000000  0.5298860000000 1.0
C      1  0.4719260000000  0.4742240000000  0.4938220000000 1.0
C      1  0.4890800000000  0.5189480000000  0.4649320000000 1.0
C      1  0.4827580000000  0.5087840000000  0.5282860000000 1.0
C      1  0.5532270000000  0.5663280000000  0.5039700000000 1.0
C      1  0.5504280000000  0.4691500000000  0.4360470000000 1.0
C      1  0.5526740000000  0.4664780000000  0.5632990000000 1.0
C      1  0.4464380000000  0.5640830000000  0.5005900000000 1.0
C      1  0.4422830000000  0.4695590000000  0.4330400000000 1.0
C      1  0.4448060000000  0.4584850000000  0.5667220000000 1.0
C      1  0.5493530000000  0.4288450000000  0.5025160000000 1.0
C      1  0.5506910000000  0.5301100000000  0.4424420000000 1.0
C      1  0.5507650000000  0.5350110000000  0.5579080000000 1.0
C      1  0.4505710000000  0.4251800000000  0.5032640000000 1.0
C      1  0.4425870000000  0.5311710000000  0.4386830000000 1.0
C      1  0.4507600000000  0.5347090000000  0.5532270000000 1.0
C      1  0.4350740000000  0.4941910000000  0.5309640000000 1.0
C      1  0.5673960000000  0.4968200000000  0.5365850000000 1.0
C      1  0.5673930000000  0.4679640000000  0.4846870000000 1.0
C      1  0.5727460000000  0.5211910000000  0.4868510000000 1.0
C      1  0.4228250000000  0.5227360000000  0.4816430000000 1.0
C      1  0.4332150000000  0.4729020000000  0.4844260000000 1.0
C      1  0.5382630000000  0.5025100000000  0.5034830000000 1.0
C      1  0.4746450000000  0.5047370000000  0.4992620000000 1.0
END
