TITL C-3289325-7307-245 -0.00542011468502447 125000 -343.985772253801 0 0 56 (C1) n - 1
REM
REM in /nfs/bkarasulu/CARBON/AIRSS/Generating-Clusters/AIREBO/with-SteepDescent/Higher-Symm/SD-CG/HFTN-CG
REM
REM
REM
REM
REM
REM ./C.cell (b20cbc046b6831c77cfcea5457e17084)
REM
REM compiler GCC version 9.2.1 20190827 (Red Hat 9.2.1-1)
REM options -cpp -mtune=generic -march=x86-64 -g -O0 -fpre-include=/usr/include/finclude/math-vector-fortran.h
REM seed 1927083745 557080622 -631910266 -1293106224 -9672401 -1011612609 -1127279720 -929398606 -495049575 -193394749 -1760910998 683973109 713896549 -601274407 728050783 463650505 -1276266460 -1710492140 -412199442 1879119735 -1960854026 146925254 985757022 -1882220912 -1450666665 1381233384 -1318179992 -1138787304 601537911 -563158402 -544162577 226898546 1122750313
REM
CELL 1.54180   50.00000   50.00000   50.00000   90.00000   90.00000   90.00000
LATT -1
SFAC C  
C      1  0.5131180000000  0.4444240000000  0.4701130000000 1.0
C      1  0.4697710000000  0.5127020000000  0.4477930000000 1.0
C      1  0.4452710000000  0.4724130000000  0.5154330000000 1.0
C      1  0.4967410000000  0.5756580000000  0.5494610000000 1.0
C      1  0.4858870000000  0.5486020000000  0.4764600000000 1.0
C      1  0.4863940000000  0.4501290000000  0.5314660000000 1.0
C      1  0.4702150000000  0.4894850000000  0.5531750000000 1.0
C      1  0.5252160000000  0.4847010000000  0.4440950000000 1.0
C      1  0.5367800000000  0.5142940000000  0.5512620000000 1.0
C      1  0.4429430000000  0.5284320000000  0.4866350000000 1.0
C      1  0.5657360000000  0.5311700000000  0.5106670000000 1.0
C      1  0.5536880000000  0.4691650000000  0.4803690000000 1.0
C      1  0.4845720000000  0.4448460000000  0.4727430000000 1.0
C      1  0.5261500000000  0.5130830000000  0.4456100000000 1.0
C      1  0.5568770000000  0.4708140000000  0.5089400000000 1.0
C      1  0.4674020000000  0.5673860000000  0.5394980000000 1.0
C      1  0.5143940000000  0.5457040000000  0.4806560000000 1.0
C      1  0.5174310000000  0.4479180000000  0.5272250000000 1.0
C      1  0.5347120000000  0.4856430000000  0.5515480000000 1.0
C      1  0.4700370000000  0.4843220000000  0.4468570000000 1.0
C      1  0.4682740000000  0.5211110000000  0.5520260000000 1.0
C      1  0.5586510000000  0.5266090000000  0.4803080000000 1.0
C      1  0.4393000000000  0.5348370000000  0.5172970000000 1.0
C      1  0.4453060000000  0.4705370000000  0.4866720000000 1.0
C      1  0.5108800000000  0.5265230000000  0.4257130000000 1.0
C      1  0.4179400000000  0.5127940000000  0.5133840000000 1.0
C      1  0.5189180000000  0.4207740000000  0.5116690000000 1.0
C      1  0.5183720000000  0.4758700000000  0.5730580000000 1.0
C      1  0.4827640000000  0.4732620000000  0.4239090000000 1.0
C      1  0.4918450000000  0.5174210000000  0.5714600000000 1.0
C      1  0.4225580000000  0.4831200000000  0.4744830000000 1.0
C      1  0.5812580000000  0.4842050000000  0.5161920000000 1.0
C      1  0.5824120000000  0.5071030000000  0.4727040000000 1.0
C      1  0.5248330000000  0.5631240000000  0.5009960000000 1.0
C      1  0.4802850000000  0.5791920000000  0.5135040000000 1.0
C      1  0.4749520000000  0.4243700000000  0.4903130000000 1.0
C      1  0.4832600000000  0.5256620000000  0.4263110000000 1.0
C      1  0.5861500000000  0.5093720000000  0.5034000000000 1.0
C      1  0.4880640000000  0.4236380000000  0.5156310000000 1.0
C      1  0.4923390000000  0.4867120000000  0.5755900000000 1.0
C      1  0.5103730000000  0.4740230000000  0.4222620000000 1.0
C      1  0.5178010000000  0.5277970000000  0.5675940000000 1.0
C      1  0.5754730000000  0.4805330000000  0.4655470000000 1.0
C      1  0.4228950000000  0.4874060000000  0.5254570000000 1.0
C      1  0.4177680000000  0.5099580000000  0.4823760000000 1.0
C      1  0.4753510000000  0.5732140000000  0.4865210000000 1.0
C      1  0.5104380000000  0.5766820000000  0.5208440000000 1.0
C      1  0.5256380000000  0.4226530000000  0.4840500000000 1.0
C      1  0.5372010000000  0.4678490000000  0.5293330000000 1.0
C      1  0.5334030000000  0.5286770000000  0.4683930000000 1.0
C      1  0.4560610000000  0.5416150000000  0.5384830000000 1.0
C      1  0.4670360000000  0.4665890000000  0.4688500000000 1.0
C      1  0.4667610000000  0.4694930000000  0.5337230000000 1.0
C      1  0.4658310000000  0.5290620000000  0.4706030000000 1.0
C      1  0.5539040000000  0.5292970000000  0.5353980000000 1.0
C      1  0.5300080000000  0.4664330000000  0.4651760000000 1.0
END
