TITL C-3289323-3850-125 0.00203188733559619 125000 -841.839976209773 0 0 154 (C1) n - 1
REM
REM in /nfs/bkarasulu/CARBON/AIRSS/Generating-Clusters/AIREBO/with-SteepDescent/Higher-Symm/SD-CG/HFTN-CG
REM
REM
REM
REM
REM
REM ./C.cell (b20cbc046b6831c77cfcea5457e17084)
REM
REM compiler GCC version 9.2.1 20190827 (Red Hat 9.2.1-1)
REM options -cpp -mtune=generic -march=x86-64 -g -O0 -fpre-include=/usr/include/finclude/math-vector-fortran.h
REM seed 971500867 -1381572482 -322166053 1662293705 -265978544 -81726174 818543238 -1578494919 4735526 906825614 646530732 1417262379 -1876637346 -205138010 1755248615 -158815183 -1965604500 -1920335603 763245078 445874177 554621053 292212230 -1905137175 762828805 395257469 -1744106344 -1571529124 1653582781 -598346756 -1402987869 -1317299099 -808096730 492412270
REM
CELL 1.54180   50.00000   50.00000   50.00000   90.00000   90.00000   90.00000
LATT -1
SFAC C  
C      1  0.5462510000000  0.5671950000000  0.5548630000000 1.0
C      1  0.5593750000000  0.5643750000000  0.4892790000000 1.0
C      1  0.5104360000000  0.5775210000000  0.4653550000000 1.0
C      1  0.4515050000000  0.5855250000000  0.4619140000000 1.0
C      1  0.4402510000000  0.5638130000000  0.4811890000000 1.0
C      1  0.4645940000000  0.5646030000000  0.5258280000000 1.0
C      1  0.5134180000000  0.5584500000000  0.5535230000000 1.0
C      1  0.4652960000000  0.5972030000000  0.5333830000000 1.0
C      1  0.5097360000000  0.5634660000000  0.5860410000000 1.0
C      1  0.5757890000000  0.5782550000000  0.5564790000000 1.0
C      1  0.5720850000000  0.5921470000000  0.4779260000000 1.0
C      1  0.5133560000000  0.5992750000000  0.4026760000000 1.0
C      1  0.4446160000000  0.5808560000000  0.4349350000000 1.0
C      1  0.4230200000000  0.5784360000000  0.5066160000000 1.0
C      1  0.4259670000000  0.4497370000000  0.5852200000000 1.0
C      1  0.4942480000000  0.4522480000000  0.6169780000000 1.0
C      1  0.5772670000000  0.4363840000000  0.5674660000000 1.0
C      1  0.5929810000000  0.4448280000000  0.4720890000000 1.0
C      1  0.5344430000000  0.4588360000000  0.3896620000000 1.0
C      1  0.4559230000000  0.4396280000000  0.3984210000000 1.0
C      1  0.4103360000000  0.4395930000000  0.4837410000000 1.0
C      1  0.4401100000000  0.5316580000000  0.4375920000000 1.0
C      1  0.4199850000000  0.5323760000000  0.5176130000000 1.0
C      1  0.4546990000000  0.5576150000000  0.5633500000000 1.0
C      1  0.5363390000000  0.5244720000000  0.5864740000000 1.0
C      1  0.5765360000000  0.5291830000000  0.5264190000000 1.0
C      1  0.5577260000000  0.5444570000000  0.4524500000000 1.0
C      1  0.5076450000000  0.5528700000000  0.4181190000000 1.0
C      1  0.4605960000000  0.4343930000000  0.4993150000000 1.0
C      1  0.4829460000000  0.4301050000000  0.5247110000000 1.0
C      1  0.5157540000000  0.4308840000000  0.5339160000000 1.0
C      1  0.5397170000000  0.4354190000000  0.5124110000000 1.0
C      1  0.5324970000000  0.4298140000000  0.4797550000000 1.0
C      1  0.5048040000000  0.4337630000000  0.4601570000000 1.0
C      1  0.4721750000000  0.4397530000000  0.4677650000000 1.0
C      1  0.4154220000000  0.5623860000000  0.5574810000000 1.0
C      1  0.4941510000000  0.5242860000000  0.6090800000000 1.0
C      1  0.5751120000000  0.5195300000000  0.5715250000000 1.0
C      1  0.6072270000000  0.5479100000000  0.4705170000000 1.0
C      1  0.5488780000000  0.5653470000000  0.3992940000000 1.0
C      1  0.4554880000000  0.5375430000000  0.4011610000000 1.0
C      1  0.3964570000000  0.5320750000000  0.4720730000000 1.0
C      1  0.4482370000000  0.4876470000000  0.4949450000000 1.0
C      1  0.4738130000000  0.4896940000000  0.5463750000000 1.0
C      1  0.5065770000000  0.4819200000000  0.5415360000000 1.0
C      1  0.5275200000000  0.4886260000000  0.5153310000000 1.0
C      1  0.5415440000000  0.4852670000000  0.4844950000000 1.0
C      1  0.5220360000000  0.4910410000000  0.4572220000000 1.0
C      1  0.4742210000000  0.4899050000000  0.4768360000000 1.0
C      1  0.5026130000000  0.4873570000000  0.5748840000000 1.0
C      1  0.5638150000000  0.4705440000000  0.5517850000000 1.0
C      1  0.5750540000000  0.4854030000000  0.4907300000000 1.0
C      1  0.5303190000000  0.4999460000000  0.4261110000000 1.0
C      1  0.4675500000000  0.4858740000000  0.4244090000000 1.0
C      1  0.4254890000000  0.4862350000000  0.4696970000000 1.0
C      1  0.4429590000000  0.4966970000000  0.5589570000000 1.0
C      1  0.5553590000000  0.4785080000000  0.6039390000000 1.0
C      1  0.5929170000000  0.4829330000000  0.5494850000000 1.0
C      1  0.5866190000000  0.4988220000000  0.4633730000000 1.0
C      1  0.5283130000000  0.5255040000000  0.3857100000000 1.0
C      1  0.4392570000000  0.4889570000000  0.4055210000000 1.0
C      1  0.4024220000000  0.4880500000000  0.4946200000000 1.0
C      1  0.4368100000000  0.5490120000000  0.6073630000000 1.0
C      1  0.4960960000000  0.4446980000000  0.4227680000000 1.0
C      1  0.4449700000000  0.4418900000000  0.4498990000000 1.0
C      1  0.4326480000000  0.4499790000000  0.5388820000000 1.0
C      1  0.4763680000000  0.4418120000000  0.5757890000000 1.0
C      1  0.5264610000000  0.4467000000000  0.5779820000000 1.0
C      1  0.5728970000000  0.4404150000000  0.5169720000000 1.0
C      1  0.5489790000000  0.4528350000000  0.4343110000000 1.0
C      1  0.5252060000000  0.4404900000000  0.4133610000000 1.0
C      1  0.4642210000000  0.4337710000000  0.4290560000000 1.0
C      1  0.4206790000000  0.4402400000000  0.5085700000000 1.0
C      1  0.4471650000000  0.4365270000000  0.5665960000000 1.0
C      1  0.5055430000000  0.4351250000000  0.5922830000000 1.0
C      1  0.5822000000000  0.4302340000000  0.5436930000000 1.0
C      1  0.5732910000000  0.4450930000000  0.4541890000000 1.0
C      1  0.5290600000000  0.5290540000000  0.5541560000000 1.0
C      1  0.5544240000000  0.5363610000000  0.5035440000000 1.0
C      1  0.5320120000000  0.5512460000000  0.4739450000000 1.0
C      1  0.5114860000000  0.5495270000000  0.4468780000000 1.0
C      1  0.4529520000000  0.5373430000000  0.4651190000000 1.0
C      1  0.4483720000000  0.5450130000000  0.5083320000000 1.0
C      1  0.4819190000000  0.5477000000000  0.5464630000000 1.0
C      1  0.4776730000000  0.3969140000000  0.5298710000000 1.0
C      1  0.5068800000000  0.4003490000000  0.5365590000000 1.0
C      1  0.5270510000000  0.3865380000000  0.5211100000000 1.0
C      1  0.5282810000000  0.4003930000000  0.4962980000000 1.0
C      1  0.4887870000000  0.4039410000000  0.4635170000000 1.0
C      1  0.4687450000000  0.3893310000000  0.4801240000000 1.0
C      1  0.4624610000000  0.4025330000000  0.5043780000000 1.0
C      1  0.4796870000000  0.5187390000000  0.5318140000000 1.0
C      1  0.5045960000000  0.5212760000000  0.5131400000000 1.0
C      1  0.5347270000000  0.5206460000000  0.5248880000000 1.0
C      1  0.5353220000000  0.5184580000000  0.4825290000000 1.0
C      1  0.5077960000000  0.5217150000000  0.4621070000000 1.0
C      1  0.4790540000000  0.5217070000000  0.4729770000000 1.0
C      1  0.4628700000000  0.5177770000000  0.5026440000000 1.0
C      1  0.4030150000000  0.5104290000000  0.4615490000000 1.0
C      1  0.4063580000000  0.5392040000000  0.5545810000000 1.0
C      1  0.4821840000000  0.5076180000000  0.5897800000000 1.0
C      1  0.5592020000000  0.4969210000000  0.5688790000000 1.0
C      1  0.6093310000000  0.5278260000000  0.4855620000000 1.0
C      1  0.5513450000000  0.5369220000000  0.3989210000000 1.0
C      1  0.4693040000000  0.5156850000000  0.4056770000000 1.0
C      1  0.4726010000000  0.4703990000000  0.4542790000000 1.0
C      1  0.4463120000000  0.4612190000000  0.5106830000000 1.0
C      1  0.4766930000000  0.4557870000000  0.5461040000000 1.0
C      1  0.5167180000000  0.4537820000000  0.5526260000000 1.0
C      1  0.5478050000000  0.4655280000000  0.5259930000000 1.0
C      1  0.5445700000000  0.4559020000000  0.4674700000000 1.0
C      1  0.5110190000000  0.4631160000000  0.4459000000000 1.0
C      1  0.4052740000000  0.5031100000000  0.5154130000000 1.0
C      1  0.4490150000000  0.5409010000000  0.5847980000000 1.0
C      1  0.5586750000000  0.5089440000000  0.6069440000000 1.0
C      1  0.5969950000000  0.5047470000000  0.5363340000000 1.0
C      1  0.5724440000000  0.5152570000000  0.4483640000000 1.0
C      1  0.5065790000000  0.5288230000000  0.4037870000000 1.0
C      1  0.4218370000000  0.5093800000000  0.4195420000000 1.0
C      1  0.5130260000000  0.6216910000000  0.4842400000000 1.0
C      1  0.4983710000000  0.5995300000000  0.4751010000000 1.0
C      1  0.4707140000000  0.6046910000000  0.4695580000000 1.0
C      1  0.4626430000000  0.6315270000000  0.4723380000000 1.0
C      1  0.4657870000000  0.6535200000000  0.4882910000000 1.0
C      1  0.4901410000000  0.6622360000000  0.4979850000000 1.0
C      1  0.5111990000000  0.6444090000000  0.4993350000000 1.0
C      1  0.5424260000000  0.4758600000000  0.4131630000000 1.0
C      1  0.4762880000000  0.4615000000000  0.4036530000000 1.0
C      1  0.4235700000000  0.4541850000000  0.4627710000000 1.0
C      1  0.4284790000000  0.4709400000000  0.5636020000000 1.0
C      1  0.4842060000000  0.4684320000000  0.5928380000000 1.0
C      1  0.5549030000000  0.4560650000000  0.5812300000000 1.0
C      1  0.5862490000000  0.4569990000000  0.4957080000000 1.0
C      1  0.4968090000000  0.5029010000000  0.4210500000000 1.0
C      1  0.4428120000000  0.4985430000000  0.4440110000000 1.0
C      1  0.4230380000000  0.5145130000000  0.5454210000000 1.0
C      1  0.4574290000000  0.5139480000000  0.5808410000000 1.0
C      1  0.5302810000000  0.4918240000000  0.5852260000000 1.0
C      1  0.5902830000000  0.5122050000000  0.5007670000000 1.0
C      1  0.5509930000000  0.5236390000000  0.4262040000000 1.0
C      1  0.5815760000000  0.5628130000000  0.4635750000000 1.0
C      1  0.5225250000000  0.5742990000000  0.4062050000000 1.0
C      1  0.4456150000000  0.5572480000000  0.4206340000000 1.0
C      1  0.4110530000000  0.5498950000000  0.4917430000000 1.0
C      1  0.4380750000000  0.5779980000000  0.5416490000000 1.0
C      1  0.5150610000000  0.5407140000000  0.6003410000000 1.0
C      1  0.5716010000000  0.5447170000000  0.5519570000000 1.0
C      1  0.5026580000000  0.4974710000000  0.4938720000000 1.0
C      1  0.5102520000000  0.5963470000000  0.5164010000000 1.0
C      1  0.4980570000000  0.4673670000000  0.4993990000000 1.0
C      1  0.5149470000000  0.5703540000000  0.5232040000000 1.0
C      1  0.4996740000000  0.4415460000000  0.4990410000000 1.0
C      1  0.4997980000000  0.4113090000000  0.4924330000000 1.0
C      1  0.5155580000000  0.5502690000000  0.5036930000000 1.0
END
