TITL C-3289335-9438-712 -0.00194027003321178 125000 -360.64465517504 0 0 66 (C1) n - 1
REM
REM in /nfs/bkarasulu/CARBON/AIRSS/Generating-Clusters/AIREBO/with-SteepDescent/Higher-Symm/SD-CG/HFTN-CG
REM
REM
REM
REM
REM
REM ./C.cell (b20cbc046b6831c77cfcea5457e17084)
REM
REM compiler GCC version 9.2.1 20190827 (Red Hat 9.2.1-1)
REM options -cpp -mtune=generic -march=x86-64 -g -O0 -fpre-include=/usr/include/finclude/math-vector-fortran.h
REM seed 1385870833 -1123018025 -1719975871 304158923 924513752 429439877 -1663231528 -957095788 -1462044069 -190982286 -964981001 -533137191 1679278809 -927599623 1005860400 1461769579 534635336 -943077092 -1587379368 1050609594 601554535 -1777575162 1642320293 -1000593695 -1548071108 99970948 1648854664 -1754489744 1677918249 -251114298 -770831741 -168712955 -238529416
REM
CELL 1.54180   50.00000   50.00000   50.00000   90.00000   90.00000   90.00000
LATT -1
SFAC C  
C      1  0.5754640000000  0.4714860000000  0.5205130000000 1.0
C      1  0.5084760000000  0.4306300000000  0.5232040000000 1.0
C      1  0.4452240000000  0.4443970000000  0.5111250000000 1.0
C      1  0.4262500000000  0.5298230000000  0.5237100000000 1.0
C      1  0.4871830000000  0.5798660000000  0.5200260000000 1.0
C      1  0.5523140000000  0.5549960000000  0.5105670000000 1.0
C      1  0.4513660000000  0.4714970000000  0.5042320000000 1.0
C      1  0.4494280000000  0.5421710000000  0.5103470000000 1.0
C      1  0.5067780000000  0.5671450000000  0.5007760000000 1.0
C      1  0.5493660000000  0.5260690000000  0.5025930000000 1.0
C      1  0.5517000000000  0.4565440000000  0.5077960000000 1.0
C      1  0.4909610000000  0.4281470000000  0.4971170000000 1.0
C      1  0.5229710000000  0.4827020000000  0.4167380000000 1.0
C      1  0.4970750000000  0.4722460000000  0.4115440000000 1.0
C      1  0.4767290000000  0.4864990000000  0.4253750000000 1.0
C      1  0.4755370000000  0.5165760000000  0.4174410000000 1.0
C      1  0.5012500000000  0.5270690000000  0.4112880000000 1.0
C      1  0.5222400000000  0.5129090000000  0.4243490000000 1.0
C      1  0.4797530000000  0.5552840000000  0.4660710000000 1.0
C      1  0.5350160000000  0.5418150000000  0.4623380000000 1.0
C      1  0.5561290000000  0.4900960000000  0.4655130000000 1.0
C      1  0.5216280000000  0.4459730000000  0.4647200000000 1.0
C      1  0.4647160000000  0.4576870000000  0.4617180000000 1.0
C      1  0.4441660000000  0.5088660000000  0.4677680000000 1.0
C      1  0.4984830000000  0.5375040000000  0.4963800000000 1.0
C      1  0.5271780000000  0.5031090000000  0.4909070000000 1.0
C      1  0.5265160000000  0.4760910000000  0.5055200000000 1.0
C      1  0.5013630000000  0.4593910000000  0.4964700000000 1.0
C      1  0.4730830000000  0.4949660000000  0.4926670000000 1.0
C      1  0.4738760000000  0.5219830000000  0.5080150000000 1.0
C      1  0.5126660000000  0.4657480000000  0.5707770000000 1.0
C      1  0.4916520000000  0.4876420000000  0.5804300000000 1.0
C      1  0.4882460000000  0.5120540000000  0.5686380000000 1.0
C      1  0.5034300000000  0.5411080000000  0.5595480000000 1.0
C      1  0.5269880000000  0.5202530000000  0.5724910000000 1.0
C      1  0.5279770000000  0.4941570000000  0.5653640000000 1.0
C      1  0.5428630000000  0.5051990000000  0.5274540000000 1.0
C      1  0.5178120000000  0.4837210000000  0.5356800000000 1.0
C      1  0.4888740000000  0.4781380000000  0.5187920000000 1.0
C      1  0.4598460000000  0.4918310000000  0.5300320000000 1.0
C      1  0.4854350000000  0.5129620000000  0.5375530000000 1.0
C      1  0.5124520000000  0.5183700000000  0.5174880000000 1.0
C      1  0.5693190000000  0.4934210000000  0.5354850000000 1.0
C      1  0.5389570000000  0.4365480000000  0.5273920000000 1.0
C      1  0.4635540000000  0.4200420000000  0.5044670000000 1.0
C      1  0.4348620000000  0.5039440000000  0.5390270000000 1.0
C      1  0.4598150000000  0.5658180000000  0.5251670000000 1.0
C      1  0.5303680000000  0.5673960000000  0.5203260000000 1.0
C      1  0.4881360000000  0.4393730000000  0.4651230000000 1.0
C      1  0.4419140000000  0.4805540000000  0.4728520000000 1.0
C      1  0.4537320000000  0.5392590000000  0.4782730000000 1.0
C      1  0.5134340000000  0.5608790000000  0.4680130000000 1.0
C      1  0.5580910000000  0.5182430000000  0.4711380000000 1.0
C      1  0.5476120000000  0.4596790000000  0.4759320000000 1.0
C      1  0.5229340000000  0.5646820000000  0.5465200000000 1.0
C      1  0.5853890000000  0.5050160000000  0.5543100000000 1.0
C      1  0.5172360000000  0.4453440000000  0.5516210000000 1.0
C      1  0.4353590000000  0.4148340000000  0.5195380000000 1.0
C      1  0.4073760000000  0.5178290000000  0.5477160000000 1.0
C      1  0.4830120000000  0.5632900000000  0.5480580000000 1.0
C      1  0.5208050000000  0.5114040000000  0.4587410000000 1.0
C      1  0.5309400000000  0.4811620000000  0.4469510000000 1.0
C      1  0.5062400000000  0.4752630000000  0.4675990000000 1.0
C      1  0.4787510000000  0.4882870000000  0.4597860000000 1.0
C      1  0.4682100000000  0.5183300000000  0.4478470000000 1.0
C      1  0.4934930000000  0.5246840000000  0.4670440000000 1.0
END
