TITL C-3289335-9438-490 0.00057314044081203 125000 -1034.31872308998 0 0 194 (C1) n - 1
REM
REM in /nfs/bkarasulu/CARBON/AIRSS/Generating-Clusters/AIREBO/with-SteepDescent/Higher-Symm/SD-CG/HFTN-CG
REM
REM
REM
REM
REM
REM ./C.cell (b20cbc046b6831c77cfcea5457e17084)
REM
REM compiler GCC version 9.2.1 20190827 (Red Hat 9.2.1-1)
REM options -cpp -mtune=generic -march=x86-64 -g -O0 -fpre-include=/usr/include/finclude/math-vector-fortran.h
REM seed 231049667 715833454 201428930 606246715 -1403234750 -1725153754 -1060995507 -365023292 -236936809 1960739099 -1852628055 -1607553361 1311697314 -544739551 1172915234 2137347320 552193269 176437961 664487113 531079847 833442841 1086824736 -1636135543 -2038360701 -243180307 474452465 953665483 705399020 -216322022 -1113270280 1617563441 -441995324 -916017198
REM
CELL 1.54180   50.00000   50.00000   50.00000   90.00000   90.00000   90.00000
LATT -1
SFAC C  
C      1  0.4412160000000  0.4753380000000  0.4365630000000 1.0
C      1  0.4497370000000  0.4338290000000  0.4890450000000 1.0
C      1  0.4465100000000  0.4873650000000  0.5558590000000 1.0
C      1  0.4537470000000  0.5532160000000  0.5145280000000 1.0
C      1  0.4421840000000  0.5516020000000  0.4611380000000 1.0
C      1  0.5959910000000  0.4676640000000  0.4298950000000 1.0
C      1  0.5867020000000  0.4283440000000  0.4954300000000 1.0
C      1  0.5839950000000  0.4727740000000  0.5703840000000 1.0
C      1  0.5947570000000  0.5577880000000  0.5487970000000 1.0
C      1  0.5827060000000  0.5602770000000  0.4644270000000 1.0
C      1  0.5190510000000  0.5690990000000  0.5146690000000 1.0
C      1  0.5214730000000  0.5384510000000  0.4538380000000 1.0
C      1  0.5328750000000  0.4687860000000  0.4605710000000 1.0
C      1  0.5118820000000  0.4334850000000  0.5201340000000 1.0
C      1  0.5301250000000  0.5035400000000  0.5586140000000 1.0
C      1  0.5133560000000  0.6075820000000  0.5262830000000 1.0
C      1  0.5150940000000  0.5627610000000  0.4066740000000 1.0
C      1  0.5139360000000  0.4404970000000  0.4143520000000 1.0
C      1  0.5141230000000  0.3956210000000  0.5320450000000 1.0
C      1  0.5223970000000  0.5149340000000  0.6186590000000 1.0
C      1  0.4043320000000  0.4646000000000  0.5093330000000 1.0
C      1  0.4052430000000  0.5181790000000  0.5337850000000 1.0
C      1  0.3903480000000  0.5371070000000  0.5097830000000 1.0
C      1  0.4006170000000  0.4983370000000  0.4685970000000 1.0
C      1  0.3931600000000  0.4674780000000  0.4808130000000 1.0
C      1  0.4207130000000  0.5769610000000  0.4973170000000 1.0
C      1  0.4255690000000  0.5235150000000  0.4341770000000 1.0
C      1  0.4310980000000  0.4401550000000  0.4541450000000 1.0
C      1  0.4375860000000  0.4443970000000  0.5361260000000 1.0
C      1  0.4404530000000  0.5393450000000  0.5683680000000 1.0
C      1  0.4345240000000  0.4267040000000  0.4243360000000 1.0
C      1  0.4315040000000  0.4126450000000  0.5329640000000 1.0
C      1  0.4432730000000  0.5215820000000  0.5934590000000 1.0
C      1  0.4297890000000  0.5959970000000  0.5247120000000 1.0
C      1  0.4348550000000  0.5485390000000  0.4190210000000 1.0
C      1  0.6084230000000  0.5441280000000  0.5229320000000 1.0
C      1  0.6065900000000  0.5392010000000  0.4584880000000 1.0
C      1  0.6055420000000  0.4804840000000  0.4546530000000 1.0
C      1  0.6091070000000  0.4311370000000  0.5175830000000 1.0
C      1  0.6098830000000  0.4919910000000  0.5794030000000 1.0
C      1  0.5369930000000  0.4943790000000  0.5969330000000 1.0
C      1  0.5468240000000  0.5807650000000  0.5472790000000 1.0
C      1  0.5412430000000  0.5619200000000  0.4283880000000 1.0
C      1  0.5453330000000  0.4534850000000  0.4163960000000 1.0
C      1  0.5422690000000  0.4056630000000  0.5157890000000 1.0
C      1  0.5107900000000  0.6016270000000  0.4461710000000 1.0
C      1  0.5154640000000  0.4774780000000  0.3983680000000 1.0
C      1  0.5196620000000  0.3846150000000  0.4761590000000 1.0
C      1  0.5085260000000  0.4572490000000  0.6008840000000 1.0
C      1  0.5206410000000  0.5828100000000  0.5788740000000 1.0
C      1  0.3992230000000  0.5550710000000  0.4823090000000 1.0
C      1  0.3983520000000  0.5085350000000  0.4375850000000 1.0
C      1  0.4110220000000  0.4384500000000  0.4802440000000 1.0
C      1  0.4130320000000  0.4648720000000  0.5383560000000 1.0
C      1  0.4204980000000  0.5431540000000  0.5497710000000 1.0
C      1  0.4628130000000  0.5456780000000  0.4048290000000 1.0
C      1  0.4664930000000  0.4224700000000  0.4205520000000 1.0
C      1  0.4611950000000  0.3984770000000  0.5415580000000 1.0
C      1  0.4730500000000  0.5126940000000  0.6060950000000 1.0
C      1  0.4625650000000  0.6034300000000  0.5229780000000 1.0
C      1  0.5433730000000  0.5135440000000  0.4463410000000 1.0
C      1  0.5409750000000  0.4439600000000  0.4764900000000 1.0
C      1  0.5405970000000  0.4673490000000  0.5472470000000 1.0
C      1  0.5442190000000  0.5316390000000  0.5507180000000 1.0
C      1  0.5338280000000  0.5612750000000  0.4844730000000 1.0
C      1  0.4241390000000  0.4191710000000  0.5029590000000 1.0
C      1  0.4270140000000  0.4993840000000  0.5811040000000 1.0
C      1  0.4292930000000  0.5657790000000  0.5345440000000 1.0
C      1  0.4312070000000  0.5712330000000  0.4383430000000 1.0
C      1  0.4283890000000  0.4568400000000  0.4178790000000 1.0
C      1  0.4640620000000  0.4796200000000  0.4723240000000 1.0
C      1  0.4523430000000  0.4815450000000  0.5020270000000 1.0
C      1  0.4624460000000  0.4943700000000  0.5307070000000 1.0
C      1  0.4576260000000  0.5212560000000  0.5090840000000 1.0
C      1  0.4619460000000  0.5120170000000  0.4766410000000 1.0
C      1  0.5624280000000  0.5583370000000  0.5537220000000 1.0
C      1  0.5540630000000  0.5699490000000  0.4585270000000 1.0
C      1  0.5681120000000  0.4788430000000  0.4159250000000 1.0
C      1  0.5563800000000  0.4152690000000  0.4863020000000 1.0
C      1  0.5531240000000  0.4724120000000  0.5784500000000 1.0
C      1  0.4503710000000  0.5056940000000  0.4452590000000 1.0
C      1  0.4605690000000  0.4509480000000  0.4641040000000 1.0
C      1  0.4639860000000  0.4477100000000  0.5478620000000 1.0
C      1  0.4634320000000  0.5555880000000  0.5640710000000 1.0
C      1  0.4616650000000  0.5669110000000  0.4844300000000 1.0
C      1  0.5543470000000  0.5959420000000  0.4888600000000 1.0
C      1  0.5548900000000  0.5132750000000  0.4006150000000 1.0
C      1  0.5584190000000  0.4089990000000  0.4470050000000 1.0
C      1  0.5491310000000  0.4341810000000  0.5678320000000 1.0
C      1  0.5581300000000  0.5496220000000  0.5922800000000 1.0
C      1  0.5273790000000  0.4781080000000  0.4291590000000 1.0
C      1  0.5173450000000  0.4106700000000  0.4953030000000 1.0
C      1  0.5139320000000  0.4797080000000  0.5766950000000 1.0
C      1  0.5150740000000  0.5686540000000  0.5484580000000 1.0
C      1  0.5156400000000  0.5689720000000  0.4496310000000 1.0
C      1  0.4924920000000  0.4275610000000  0.5715110000000 1.0
C      1  0.5006870000000  0.5504300000000  0.5966570000000 1.0
C      1  0.4926470000000  0.6071700000000  0.4839290000000 1.0
C      1  0.4923190000000  0.5148620000000  0.4019070000000 1.0
C      1  0.5004660000000  0.4018860000000  0.4449110000000 1.0
C      1  0.5239560000000  0.5215530000000  0.4831030000000 1.0
C      1  0.5146410000000  0.4896060000000  0.4758850000000 1.0
C      1  0.5236360000000  0.4691720000000  0.5015510000000 1.0
C      1  0.5243800000000  0.4901290000000  0.5278980000000 1.0
C      1  0.5285520000000  0.5202750000000  0.5157130000000 1.0
C      1  0.4907180000000  0.5288160000000  0.4835090000000 1.0
C      1  0.4893760000000  0.4927440000000  0.4550280000000 1.0
C      1  0.5006190000000  0.4461940000000  0.4915220000000 1.0
C      1  0.4926100000000  0.4834050000000  0.5304890000000 1.0
C      1  0.4995180000000  0.5271770000000  0.5325350000000 1.0
C      1  0.5356220000000  0.5367570000000  0.4060660000000 1.0
C      1  0.5361510000000  0.4265890000000  0.4350650000000 1.0
C      1  0.5286910000000  0.4222000000000  0.5474530000000 1.0
C      1  0.5372690000000  0.5278630000000  0.5916840000000 1.0
C      1  0.5353850000000  0.5969300000000  0.5096190000000 1.0
C      1  0.4786760000000  0.4201200000000  0.4922650000000 1.0
C      1  0.4631580000000  0.4708020000000  0.5804550000000 1.0
C      1  0.4791180000000  0.5541820000000  0.5359240000000 1.0
C      1  0.4741660000000  0.5424550000000  0.4571060000000 1.0
C      1  0.4744090000000  0.4775840000000  0.4284920000000 1.0
C      1  0.4967010000000  0.5219780000000  0.4419710000000 1.0
C      1  0.4906560000000  0.4425750000000  0.4614820000000 1.0
C      1  0.4903620000000  0.4545530000000  0.5358730000000 1.0
C      1  0.4934540000000  0.5179960000000  0.5625520000000 1.0
C      1  0.4917040000000  0.5579760000000  0.4977070000000 1.0
C      1  0.5467340000000  0.5749700000000  0.5899060000000 1.0
C      1  0.5400140000000  0.6002050000000  0.4602230000000 1.0
C      1  0.5435940000000  0.4862290000000  0.3935330000000 1.0
C      1  0.5472690000000  0.3885700000000  0.4672720000000 1.0
C      1  0.5364500000000  0.4477180000000  0.5926220000000 1.0
C      1  0.5549620000000  0.4559560000000  0.5046950000000 1.0
C      1  0.5610640000000  0.4955550000000  0.5469780000000 1.0
C      1  0.5586800000000  0.5343090000000  0.5220830000000 1.0
C      1  0.5547420000000  0.5350530000000  0.4778650000000 1.0
C      1  0.5571110000000  0.4873750000000  0.4541370000000 1.0
C      1  0.4683930000000  0.4524540000000  0.6299560000000 1.0
C      1  0.4907220000000  0.6135010000000  0.6036540000000 1.0
C      1  0.4710550000000  0.6208850000000  0.4241560000000 1.0
C      1  0.4722340000000  0.4681340000000  0.3764330000000 1.0
C      1  0.4843370000000  0.3486330000000  0.4743610000000 1.0
C      1  0.4750250000000  0.5667950000000  0.5901450000000 1.0
C      1  0.4651380000000  0.5978660000000  0.4707750000000 1.0
C      1  0.4648510000000  0.5069990000000  0.4145150000000 1.0
C      1  0.4748060000000  0.4001120000000  0.4665880000000 1.0
C      1  0.4639690000000  0.4377860000000  0.5781700000000 1.0
C      1  0.5731960000000  0.4577640000000  0.4495090000000 1.0
C      1  0.5773340000000  0.4409570000000  0.5255830000000 1.0
C      1  0.5823710000000  0.5068160000000  0.5691640000000 1.0
C      1  0.5797050000000  0.5616410000000  0.5179390000000 1.0
C      1  0.5687780000000  0.5346800000000  0.4468850000000 1.0
C      1  0.4843020000000  0.4023510000000  0.5170940000000 1.0
C      1  0.4844900000000  0.4956490000000  0.5826570000000 1.0
C      1  0.4884820000000  0.5860460000000  0.5363380000000 1.0
C      1  0.4890640000000  0.5488350000000  0.4225680000000 1.0
C      1  0.4853470000000  0.4473980000000  0.4315050000000 1.0
C      1  0.4923500000000  0.5453470000000  0.3879930000000 1.0
C      1  0.4964090000000  0.4121180000000  0.4169810000000 1.0
C      1  0.4914920000000  0.4040630000000  0.5555130000000 1.0
C      1  0.4976350000000  0.5293870000000  0.6152340000000 1.0
C      1  0.4896800000000  0.6161570000000  0.5104610000000 1.0
C      1  0.5726870000000  0.4455560000000  0.5559500000000 1.0
C      1  0.5815530000000  0.5372710000000  0.5724770000000 1.0
C      1  0.5752450000000  0.5765870000000  0.4916750000000 1.0
C      1  0.5749890000000  0.5118790000000  0.4224270000000 1.0
C      1  0.5761040000000  0.4305660000000  0.4631950000000 1.0
C      1  0.4938700000000  0.3739980000000  0.4721870000000 1.0
C      1  0.4813030000000  0.4592730000000  0.6068430000000 1.0
C      1  0.4965670000000  0.5897840000000  0.5914110000000 1.0
C      1  0.4837230000000  0.6088400000000  0.4452410000000 1.0
C      1  0.4882820000000  0.4753240000000  0.3975250000000 1.0
C      1  0.5719390000000  0.4805300000000  0.5007560000000 1.0
C      1  0.5737460000000  0.4973230000000  0.5203500000000 1.0
C      1  0.5874130000000  0.5230790000000  0.5126600000000 1.0
C      1  0.5866860000000  0.5224450000000  0.4803930000000 1.0
C      1  0.5817340000000  0.4897920000000  0.4735820000000 1.0
C      1  0.5138810000000  0.4507490000000  0.5588200000000 1.0
C      1  0.5165080000000  0.5409060000000  0.5681090000000 1.0
C      1  0.5058210000000  0.5797640000000  0.4789530000000 1.0
C      1  0.5203760000000  0.5102590000000  0.4205630000000 1.0
C      1  0.5182050000000  0.4233890000000  0.4637770000000 1.0
C      1  0.4610590000000  0.5446120000000  0.6099710000000 1.0
C      1  0.4439000000000  0.6011380000000  0.4942930000000 1.0
C      1  0.4410650000000  0.5210960000000  0.3959510000000 1.0
C      1  0.4523490000000  0.4091550000000  0.4476430000000 1.0
C      1  0.4437780000000  0.4168660000000  0.5643930000000 1.0
C      1  0.4365670000000  0.4567250000000  0.5071960000000 1.0
C      1  0.4133340000000  0.4932440000000  0.5512800000000 1.0
C      1  0.4235760000000  0.5434410000000  0.5022570000000 1.0
C      1  0.4159180000000  0.5303420000000  0.4659840000000 1.0
C      1  0.4202200000000  0.4717460000000  0.4604920000000 1.0
C      1  0.4923930000000  0.5057020000000  0.5076520000000 1.0
C      1  0.4043690000000  0.5084490000000  0.5005910000000 1.0
C      1  0.4319030000000  0.5044950000000  0.5074370000000 1.0
C      1  0.6177830000000  0.5099820000000  0.4862530000000 1.0
END
