TITL C-3289329-2751-88 -0.000384138019438487 125000 -329.208819099258 0 0 58 (C1) n - 1
REM
REM in /nfs/bkarasulu/CARBON/AIRSS/Generating-Clusters/AIREBO/with-SteepDescent/Higher-Symm/SD-CG/HFTN-CG
REM
REM
REM
REM
REM
REM ./C.cell (b20cbc046b6831c77cfcea5457e17084)
REM
REM compiler GCC version 9.2.1 20190827 (Red Hat 9.2.1-1)
REM options -cpp -mtune=generic -march=x86-64 -g -O0 -fpre-include=/usr/include/finclude/math-vector-fortran.h
REM seed 1954775604 1470432088 -1699366515 26511980 54766137 695383631 363172159 1567429117 -303214416 -266806837 887919970 -499825992 -1235200261 -8746735 -1486185530 -1114795060 -316340893 949601852 -869860181 917068725 1607458138 -1963162868 -930613838 -1961919113 -650048722 -1024657608 1388817761 -1287657633 1493914889 1294138110 -1250229178 -1051560062 -629007278
REM
CELL 1.54180   50.00000   50.00000   50.00000   90.00000   90.00000   90.00000
LATT -1
SFAC C  
C      1  0.5483470000000  0.5010920000000  0.5605120000000 1.0
C      1  0.5442030000000  0.4569480000000  0.4563830000000 1.0
C      1  0.5427430000000  0.5445190000000  0.4804880000000 1.0
C      1  0.4561790000000  0.4543150000000  0.5188160000000 1.0
C      1  0.4564940000000  0.5079240000000  0.4515170000000 1.0
C      1  0.4536100000000  0.5381500000000  0.5313500000000 1.0
C      1  0.5300150000000  0.4960800000000  0.5256620000000 1.0
C      1  0.5326600000000  0.4849210000000  0.4821440000000 1.0
C      1  0.5374230000000  0.5098450000000  0.4997020000000 1.0
C      1  0.4993420000000  0.4803960000000  0.4791370000000 1.0
C      1  0.5057020000000  0.5174340000000  0.4925060000000 1.0
C      1  0.4981270000000  0.4947320000000  0.5274210000000 1.0
C      1  0.4968510000000  0.4454260000000  0.4600320000000 1.0
C      1  0.4968030000000  0.5574500000000  0.4713300000000 1.0
C      1  0.4968700000000  0.4965020000000  0.5673230000000 1.0
C      1  0.5574560000000  0.5327150000000  0.5035250000000 1.0
C      1  0.5482590000000  0.4740530000000  0.5398940000000 1.0
C      1  0.5572200000000  0.4850180000000  0.4596610000000 1.0
C      1  0.4326110000000  0.4780820000000  0.5259620000000 1.0
C      1  0.4344690000000  0.4900780000000  0.4706780000000 1.0
C      1  0.4316220000000  0.5308120000000  0.5061060000000 1.0
C      1  0.5220430000000  0.4794180000000  0.5608760000000 1.0
C      1  0.5181720000000  0.4593790000000  0.4463800000000 1.0
C      1  0.5190760000000  0.5574700000000  0.4888650000000 1.0
C      1  0.5026780000000  0.5065900000000  0.4623160000000 1.0
C      1  0.5038360000000  0.5260260000000  0.5227410000000 1.0
C      1  0.5049520000000  0.4710800000000  0.5074000000000 1.0
C      1  0.4372120000000  0.4693450000000  0.4949140000000 1.0
C      1  0.4429340000000  0.5201180000000  0.4802230000000 1.0
C      1  0.4354580000000  0.5094140000000  0.5301430000000 1.0
C      1  0.4744950000000  0.5261520000000  0.4821880000000 1.0
C      1  0.4654820000000  0.5000640000000  0.5319420000000 1.0
C      1  0.4670830000000  0.4716670000000  0.4846410000000 1.0
C      1  0.4779430000000  0.4577360000000  0.5427400000000 1.0
C      1  0.4763590000000  0.4853900000000  0.4405410000000 1.0
C      1  0.4752240000000  0.5583110000000  0.5171120000000 1.0
C      1  0.4702150000000  0.5338340000000  0.4387590000000 1.0
C      1  0.4710410000000  0.5362360000000  0.5588120000000 1.0
C      1  0.4728220000000  0.4325620000000  0.5009960000000 1.0
C      1  0.4948240000000  0.5427640000000  0.4472080000000 1.0
C      1  0.4957020000000  0.5246390000000  0.5632930000000 1.0
C      1  0.4969870000000  0.4355890000000  0.4877140000000 1.0
C      1  0.5191580000000  0.5233550000000  0.4407150000000 1.0
C      1  0.5197900000000  0.5395150000000  0.5478030000000 1.0
C      1  0.5214160000000  0.4425780000000  0.5082660000000 1.0
C      1  0.5464410000000  0.4550560000000  0.4902300000000 1.0
C      1  0.5452490000000  0.5311360000000  0.4549160000000 1.0
C      1  0.5474010000000  0.5277180000000  0.5506840000000 1.0
C      1  0.5102560000000  0.4578590000000  0.5373010000000 1.0
C      1  0.5092650000000  0.4901130000000  0.4347480000000 1.0
C      1  0.5086950000000  0.5584360000000  0.5212530000000 1.0
C      1  0.5653270000000  0.5361940000000  0.5302110000000 1.0
C      1  0.5580470000000  0.4530370000000  0.5204520000000 1.0
C      1  0.5648930000000  0.5106860000000  0.4518240000000 1.0
C      1  0.4740340000000  0.4834070000000  0.5570800000000 1.0
C      1  0.4731610000000  0.4612070000000  0.4560120000000 1.0
C      1  0.4719750000000  0.5573910000000  0.4880280000000 1.0
C      1  0.4708230000000  0.4993030000000  0.4996700000000 1.0
END
