TITL C-3289321-8710-503 0.00974141150089502 125000 -150.585782734613 0 0 28 (C1) n - 1
REM
REM in /nfs/bkarasulu/CARBON/AIRSS/Generating-Clusters/AIREBO/with-SteepDescent/Higher-Symm/SD-CG/HFTN-CG
REM
REM
REM
REM
REM
REM ./C.cell (b20cbc046b6831c77cfcea5457e17084)
REM
REM compiler GCC version 9.2.1 20190827 (Red Hat 9.2.1-1)
REM options -cpp -mtune=generic -march=x86-64 -g -O0 -fpre-include=/usr/include/finclude/math-vector-fortran.h
REM seed 707027199 1321618694 1796447327 -1028618841 1418290393 1560385605 -1216964258 -474998853 -2115660878 191973692 -1351684278 -506612690 -2045445324 314948800 1953626380 1364041835 -1024864167 -1951307904 1915591666 209241011 871945036 -618872163 296810818 483132315 450254469 1482964304 -1723168864 -1467498683 -1039787428 -1665216895 -994027477 -702588848 650393478
REM
CELL 1.54180   50.00000   50.00000   50.00000   90.00000   90.00000   90.00000
LATT -1
SFAC C  
C      1  0.5404980000000  0.5251360000000  0.5480400000000 1.0
C      1  0.4492630000000  0.5181910000000  0.4956840000000 1.0
C      1  0.5543610000000  0.4968950000000  0.4667150000000 1.0
C      1  0.5247240000000  0.4612460000000  0.4820070000000 1.0
C      1  0.4974150000000  0.4582380000000  0.5248860000000 1.0
C      1  0.5173350000000  0.5208100000000  0.5043720000000 1.0
C      1  0.4520840000000  0.4692780000000  0.4885270000000 1.0
C      1  0.5035120000000  0.4601640000000  0.4574540000000 1.0
C      1  0.5216240000000  0.4629120000000  0.5113780000000 1.0
C      1  0.5351050000000  0.5092820000000  0.5257920000000 1.0
C      1  0.5571860000000  0.5279580000000  0.4639980000000 1.0
C      1  0.4601620000000  0.4988350000000  0.5399450000000 1.0
C      1  0.5284020000000  0.5154390000000  0.4775200000000 1.0
C      1  0.5228660000000  0.5328070000000  0.5676240000000 1.0
C      1  0.4958380000000  0.5345150000000  0.5636060000000 1.0
C      1  0.4666340000000  0.4905500000000  0.5006880000000 1.0
C      1  0.4871540000000  0.4949020000000  0.4471140000000 1.0
C      1  0.4790760000000  0.5209800000000  0.5468530000000 1.0
C      1  0.4802000000000  0.4652770000000  0.4396780000000 1.0
C      1  0.4390590000000  0.5088830000000  0.5229000000000 1.0
C      1  0.5527500000000  0.4707470000000  0.4714570000000 1.0
C      1  0.4950630000000  0.5464250000000  0.5023930000000 1.0
C      1  0.5387010000000  0.4816000000000  0.5238020000000 1.0
C      1  0.4701890000000  0.5164100000000  0.4515610000000 1.0
C      1  0.5149050000000  0.4912470000000  0.4637820000000 1.0
C      1  0.4539670000000  0.5283430000000  0.4702920000000 1.0
C      1  0.4848150000000  0.5161600000000  0.5138260000000 1.0
C      1  0.4771110000000  0.4767730000000  0.5281070000000 1.0
END
