TITL C-3289325-7307-84 0.000481582751736398 125000 -616.236296965728 0 0 106 (C1) n - 1
REM
REM in /nfs/bkarasulu/CARBON/AIRSS/Generating-Clusters/AIREBO/with-SteepDescent/Higher-Symm/SD-CG/HFTN-CG
REM
REM
REM
REM
REM
REM ./C.cell (b20cbc046b6831c77cfcea5457e17084)
REM
REM compiler GCC version 9.2.1 20190827 (Red Hat 9.2.1-1)
REM options -cpp -mtune=generic -march=x86-64 -g -O0 -fpre-include=/usr/include/finclude/math-vector-fortran.h
REM seed 618037940 -607748376 -1287502342 2085735528 1074260731 137624115 -1068933821 -1475815679 -2063179667 1215319949 -8171720 -1260568512 -304641749 -343045916 -388903728 2099648503 746374649 841618748 1089584617 1494674781 -1013453187 -1667360624 -1460573867 166072173 1644005995 -1794461561 -1767598781 -1696091579 1322335453 1360125045 -1356114580 -920589881 -1762974341
REM
CELL 1.54180   50.00000   50.00000   50.00000   90.00000   90.00000   90.00000
LATT -1
SFAC C  
C      1  0.4998320000000  0.5542690000000  0.4348020000000 1.0
C      1  0.5061000000000  0.5236150000000  0.5843870000000 1.0
C      1  0.5015550000000  0.4128840000000  0.4731810000000 1.0
C      1  0.5148470000000  0.5573220000000  0.5647730000000 1.0
C      1  0.5040520000000  0.5275530000000  0.4256160000000 1.0
C      1  0.5118000000000  0.4167750000000  0.5220060000000 1.0
C      1  0.4755910000000  0.4983190000000  0.5790330000000 1.0
C      1  0.4759570000000  0.4264510000000  0.4567430000000 1.0
C      1  0.4762260000000  0.5841930000000  0.4651110000000 1.0
C      1  0.4754560000000  0.4822770000000  0.4148330000000 1.0
C      1  0.4735370000000  0.4305400000000  0.5421090000000 1.0
C      1  0.4743630000000  0.5693760000000  0.5396930000000 1.0
C      1  0.5794060000000  0.4602070000000  0.4639080000000 1.0
C      1  0.5706010000000  0.5535540000000  0.4878380000000 1.0
C      1  0.5711490000000  0.4867130000000  0.5462220000000 1.0
C      1  0.5793710000000  0.4595580000000  0.5446720000000 1.0
C      1  0.5763420000000  0.5647040000000  0.5128970000000 1.0
C      1  0.5790060000000  0.4871600000000  0.4493500000000 1.0
C      1  0.5010260000000  0.5842600000000  0.5310730000000 1.0
C      1  0.5018090000000  0.4421610000000  0.5512190000000 1.0
C      1  0.5071100000000  0.4817250000000  0.4268400000000 1.0
C      1  0.4999860000000  0.5940300000000  0.4778460000000 1.0
C      1  0.5078200000000  0.4287510000000  0.4441280000000 1.0
C      1  0.5031080000000  0.4837840000000  0.5862020000000 1.0
C      1  0.4627220000000  0.4720980000000  0.5615960000000 1.0
C      1  0.4558090000000  0.4511480000000  0.4486790000000 1.0
C      1  0.4549150000000  0.5739860000000  0.4818830000000 1.0
C      1  0.4520520000000  0.4746930000000  0.4306340000000 1.0
C      1  0.4530860000000  0.4475410000000  0.5502420000000 1.0
C      1  0.4567620000000  0.5718870000000  0.5118850000000 1.0
C      1  0.5587360000000  0.4918440000000  0.4269480000000 1.0
C      1  0.5557260000000  0.5647760000000  0.5321620000000 1.0
C      1  0.5578140000000  0.4420110000000  0.5379210000000 1.0
C      1  0.5598670000000  0.4975640000000  0.5704800000000 1.0
C      1  0.5544830000000  0.5680570000000  0.4701880000000 1.0
C      1  0.5567660000000  0.4403380000000  0.4630640000000 1.0
C      1  0.5552250000000  0.4946360000000  0.5250770000000 1.0
C      1  0.5568010000000  0.4765600000000  0.4798560000000 1.0
C      1  0.5586260000000  0.5265920000000  0.4875800000000 1.0
C      1  0.5538020000000  0.5055200000000  0.4640890000000 1.0
C      1  0.5435090000000  0.4730380000000  0.5057690000000 1.0
C      1  0.5440020000000  0.5207930000000  0.5162050000000 1.0
C      1  0.5249210000000  0.5747310000000  0.4857980000000 1.0
C      1  0.5305700000000  0.4844240000000  0.5673570000000 1.0
C      1  0.5369810000000  0.4461490000000  0.4431050000000 1.0
C      1  0.5250170000000  0.5669290000000  0.5189710000000 1.0
C      1  0.5368260000000  0.4714780000000  0.4289830000000 1.0
C      1  0.5312230000000  0.4573030000000  0.5502220000000 1.0
C      1  0.4754630000000  0.5675420000000  0.4399260000000 1.0
C      1  0.4766570000000  0.5313970000000  0.5868340000000 1.0
C      1  0.4722580000000  0.4163640000000  0.4895160000000 1.0
C      1  0.4868040000000  0.5531900000000  0.5642460000000 1.0
C      1  0.4792710000000  0.5111710000000  0.4264070000000 1.0
C      1  0.4835760000000  0.4159490000000  0.5196010000000 1.0
C      1  0.4664520000000  0.4789260000000  0.5119760000000 1.0
C      1  0.4744750000000  0.5104580000000  0.4591460000000 1.0
C      1  0.4702060000000  0.5408180000000  0.5114000000000 1.0
C      1  0.4692570000000  0.4598370000000  0.4772570000000 1.0
C      1  0.4732620000000  0.4929240000000  0.5395540000000 1.0
C      1  0.4782370000000  0.5322570000000  0.4824170000000 1.0
C      1  0.4389740000000  0.5527380000000  0.5330770000000 1.0
C      1  0.4321540000000  0.4479620000000  0.5313250000000 1.0
C      1  0.4394740000000  0.4987420000000  0.4418020000000 1.0
C      1  0.4428340000000  0.5517760000000  0.4693270000000 1.0
C      1  0.4338190000000  0.4424000000000  0.4720590000000 1.0
C      1  0.4296200000000  0.5060580000000  0.5592820000000 1.0
C      1  0.5032070000000  0.4570370000000  0.4048580000000 1.0
C      1  0.4997040000000  0.6101930000000  0.5228420000000 1.0
C      1  0.5026780000000  0.4370920000000  0.5828270000000 1.0
C      1  0.5011260000000  0.4594810000000  0.5988030000000 1.0
C      1  0.4982810000000  0.6159470000000  0.4957600000000 1.0
C      1  0.5072400000000  0.4333400000000  0.4129630000000 1.0
C      1  0.5567770000000  0.4252340000000  0.5146710000000 1.0
C      1  0.5549090000000  0.5255490000000  0.4296450000000 1.0
C      1  0.5561190000000  0.5444700000000  0.5541520000000 1.0
C      1  0.5471820000000  0.4319230000000  0.4884580000000 1.0
C      1  0.5629420000000  0.5256600000000  0.5735850000000 1.0
C      1  0.5490130000000  0.5508540000000  0.4449790000000 1.0
C      1  0.4504450000000  0.5245170000000  0.4305300000000 1.0
C      1  0.4528850000000  0.5519540000000  0.5624650000000 1.0
C      1  0.4282890000000  0.4244970000000  0.5155570000000 1.0
C      1  0.4477580000000  0.5208710000000  0.5755950000000 1.0
C      1  0.4517090000000  0.5499030000000  0.4423040000000 1.0
C      1  0.4412560000000  0.4217990000000  0.4902490000000 1.0
C      1  0.5235960000000  0.4484590000000  0.5182820000000 1.0
C      1  0.5282320000000  0.5117340000000  0.4425300000000 1.0
C      1  0.5263530000000  0.5386660000000  0.5387710000000 1.0
C      1  0.5166170000000  0.4360800000000  0.4873860000000 1.0
C      1  0.5177270000000  0.5133170000000  0.5604250000000 1.0
C      1  0.5187210000000  0.5574220000000  0.4571890000000 1.0
C      1  0.4941870000000  0.5355320000000  0.5281860000000 1.0
C      1  0.4921700000000  0.4610670000000  0.5245540000000 1.0
C      1  0.5032660000000  0.4970230000000  0.4550890000000 1.0
C      1  0.5073240000000  0.5394290000000  0.4803730000000 1.0
C      1  0.4975290000000  0.4621690000000  0.4913790000000 1.0
C      1  0.4999460000000  0.5050480000000  0.5354190000000 1.0
C      1  0.4384690000000  0.4726680000000  0.4841760000000 1.0
C      1  0.4452140000000  0.5245140000000  0.4848240000000 1.0
C      1  0.4407660000000  0.5008070000000  0.5329980000000 1.0
C      1  0.4333420000000  0.4736620000000  0.5157780000000 1.0
C      1  0.4395210000000  0.5254560000000  0.5164890000000 1.0
C      1  0.4352150000000  0.4992440000000  0.4698970000000 1.0
C      1  0.5174200000000  0.4910340000000  0.5166690000000 1.0
C      1  0.5124390000000  0.4882340000000  0.4834810000000 1.0
C      1  0.5255310000000  0.5183270000000  0.4891620000000 1.0
C      1  0.4727930000000  0.4927330000000  0.4846370000000 1.0
END
