TITL C-3289333-7213-707 -0.00194265486368473 125000 -752.860170516833 0 0 124 (C1) n - 1
REM
REM in /nfs/bkarasulu/CARBON/AIRSS/Generating-Clusters/AIREBO/with-SteepDescent/Higher-Symm/SD-CG/HFTN-CG
REM
REM
REM
REM
REM
REM ./C.cell (b20cbc046b6831c77cfcea5457e17084)
REM
REM compiler GCC version 9.2.1 20190827 (Red Hat 9.2.1-1)
REM options -cpp -mtune=generic -march=x86-64 -g -O0 -fpre-include=/usr/include/finclude/math-vector-fortran.h
REM seed 1557545501 -1877038288 -1807465834 -1655570870 -1763733581 -1121511861 -325575597 959586978 690184170 1306415965 1002259510 -1335929308 -1181954779 -190108340 893881636 -917600296 563949691 -1641407911 416717995 1355858698 -1331866609 -1847277364 -792206412 1413629025 -357013051 -669025239 -1549494810 881190945 1824750806 -1705545888 -155581728 -1517457138 -1467362410
REM
CELL 1.54180   50.00000   50.00000   50.00000   90.00000   90.00000   90.00000
LATT -1
SFAC C  
C      1  0.4802000000000  0.5014830000000  0.5426840000000 1.0
C      1  0.5437160000000  0.4800610000000  0.5024150000000 1.0
C      1  0.5017180000000  0.5466660000000  0.4839850000000 1.0
C      1  0.5213690000000  0.5010860000000  0.4597030000000 1.0
C      1  0.4816070000000  0.5019680000000  0.4572100000000 1.0
C      1  0.5198770000000  0.4997930000000  0.5420010000000 1.0
C      1  0.4589160000000  0.4806400000000  0.4987120000000 1.0
C      1  0.5440340000000  0.5199820000000  0.5016950000000 1.0
C      1  0.4597390000000  0.5203970000000  0.5016580000000 1.0
C      1  0.5000650000000  0.5464050000000  0.5237030000000 1.0
C      1  0.5010700000000  0.4556820000000  0.5199910000000 1.0
C      1  0.5001630000000  0.4560140000000  0.4800190000000 1.0
C      1  0.5446920000000  0.5006180000000  0.4764200000000 1.0
C      1  0.4999100000000  0.4753280000000  0.5425400000000 1.0
C      1  0.4762180000000  0.5446130000000  0.5034880000000 1.0
C      1  0.4571810000000  0.5008960000000  0.5255580000000 1.0
C      1  0.4581470000000  0.5019090000000  0.4746180000000 1.0
C      1  0.5442810000000  0.5008490000000  0.5264910000000 1.0
C      1  0.5004530000000  0.4759730000000  0.4576200000000 1.0
C      1  0.5002180000000  0.5259860000000  0.5448870000000 1.0
C      1  0.5032590000000  0.5262840000000  0.4643500000000 1.0
C      1  0.5258310000000  0.5449050000000  0.5036120000000 1.0
C      1  0.5252600000000  0.4570590000000  0.5005640000000 1.0
C      1  0.4763390000000  0.4570050000000  0.4996310000000 1.0
C      1  0.5194730000000  0.5643510000000  0.5790200000000 1.0
C      1  0.5697840000000  0.5413910000000  0.5487340000000 1.0
C      1  0.5474740000000  0.5772440000000  0.5334660000000 1.0
C      1  0.4798400000000  0.5616890000000  0.4302680000000 1.0
C      1  0.5194860000000  0.4368990000000  0.4238560000000 1.0
C      1  0.4799250000000  0.4360990000000  0.5743980000000 1.0
C      1  0.4317100000000  0.5371630000000  0.4393530000000 1.0
C      1  0.5708200000000  0.4646990000000  0.4476070000000 1.0
C      1  0.4296800000000  0.4641520000000  0.5529440000000 1.0
C      1  0.4536320000000  0.5723990000000  0.4723890000000 1.0
C      1  0.5462980000000  0.4264300000000  0.4703620000000 1.0
C      1  0.4547700000000  0.4261070000000  0.5290370000000 1.0
C      1  0.5735520000000  0.5584590000000  0.5223710000000 1.0
C      1  0.5408800000000  0.5411230000000  0.5665180000000 1.0
C      1  0.5252600000000  0.5771880000000  0.5500400000000 1.0
C      1  0.4294250000000  0.5522350000000  0.4687520000000 1.0
C      1  0.4287430000000  0.4428840000000  0.5278150000000 1.0
C      1  0.5726820000000  0.4428400000000  0.4720650000000 1.0
C      1  0.4616480000000  0.5402360000000  0.4273240000000 1.0
C      1  0.4584530000000  0.4609510000000  0.5685670000000 1.0
C      1  0.5411200000000  0.4607920000000  0.4338150000000 1.0
C      1  0.4761060000000  0.5751400000000  0.4555310000000 1.0
C      1  0.4763800000000  0.4237080000000  0.5461110000000 1.0
C      1  0.5247650000000  0.4249690000000  0.4529950000000 1.0
C      1  0.4230960000000  0.5265090000000  0.4103850000000 1.0
C      1  0.4267290000000  0.4181640000000  0.4805720000000 1.0
C      1  0.4865460000000  0.4312650000000  0.4170870000000 1.0
C      1  0.5775640000000  0.5208370000000  0.5745700000000 1.0
C      1  0.4236160000000  0.4732550000000  0.5838740000000 1.0
C      1  0.5757530000000  0.4711620000000  0.4160080000000 1.0
C      1  0.5741950000000  0.4171100000000  0.5189110000000 1.0
C      1  0.4282100000000  0.5868400000000  0.5125300000000 1.0
C      1  0.5726170000000  0.5909340000000  0.4803270000000 1.0
C      1  0.5123030000000  0.4299660000000  0.5833080000000 1.0
C      1  0.4863690000000  0.5697280000000  0.5850690000000 1.0
C      1  0.5083420000000  0.5632210000000  0.4214020000000 1.0
C      1  0.4339770000000  0.5063610000000  0.3994500000000 1.0
C      1  0.4743090000000  0.4119090000000  0.4320070000000 1.0
C      1  0.4173360000000  0.4408320000000  0.4957350000000 1.0
C      1  0.5665740000000  0.5070120000000  0.5957090000000 1.0
C      1  0.5652300000000  0.4892590000000  0.4019110000000 1.0
C      1  0.4340530000000  0.4920470000000  0.5970690000000 1.0
C      1  0.5253050000000  0.4109130000000  0.5681380000000 1.0
C      1  0.5235010000000  0.5848850000000  0.4332650000000 1.0
C      1  0.4744250000000  0.5896020000000  0.5704610000000 1.0
C      1  0.5838240000000  0.4399270000000  0.5041450000000 1.0
C      1  0.5867620000000  0.5689620000000  0.4921320000000 1.0
C      1  0.4200090000000  0.5626540000000  0.4999630000000 1.0
C      1  0.5733710000000  0.4950990000000  0.4616750000000 1.0
C      1  0.4621940000000  0.5706950000000  0.4991050000000 1.0
C      1  0.4978010000000  0.4649200000000  0.5721950000000 1.0
C      1  0.4278330000000  0.4940030000000  0.5387810000000 1.0
C      1  0.5690470000000  0.5075700000000  0.5450170000000 1.0
C      1  0.4298790000000  0.5121200000000  0.4601300000000 1.0
C      1  0.5395150000000  0.5716810000000  0.5052800000000 1.0
C      1  0.4640890000000  0.4298370000000  0.5025750000000 1.0
C      1  0.5369730000000  0.4295190000000  0.4970580000000 1.0
C      1  0.5021110000000  0.4659350000000  0.4276000000000 1.0
C      1  0.5019060000000  0.5253250000000  0.4324690000000 1.0
C      1  0.5024870000000  0.5351340000000  0.5749520000000 1.0
C      1  0.4741090000000  0.4889320000000  0.5710710000000 1.0
C      1  0.5000950000000  0.5738390000000  0.4709930000000 1.0
C      1  0.5720300000000  0.4735760000000  0.4865580000000 1.0
C      1  0.5266140000000  0.4890990000000  0.4304640000000 1.0
C      1  0.5265570000000  0.5114350000000  0.5710870000000 1.0
C      1  0.4739850000000  0.5116620000000  0.4263900000000 1.0
C      1  0.5009120000000  0.5743900000000  0.5355270000000 1.0
C      1  0.5002190000000  0.4280280000000  0.4671900000000 1.0
C      1  0.5008400000000  0.4274170000000  0.5322410000000 1.0
C      1  0.4305240000000  0.4737090000000  0.5137530000000 1.0
C      1  0.4301640000000  0.5257390000000  0.4900340000000 1.0
C      1  0.5701770000000  0.5346340000000  0.5012960000000 1.0
C      1  0.4569080000000  0.4909350000000  0.4133670000000 1.0
C      1  0.4221730000000  0.4671530000000  0.4814460000000 1.0
C      1  0.4756520000000  0.4157040000000  0.4599440000000 1.0
C      1  0.5424900000000  0.4894640000000  0.5860500000000 1.0
C      1  0.4571190000000  0.5095620000000  0.5859080000000 1.0
C      1  0.5438280000000  0.5083670000000  0.4134050000000 1.0
C      1  0.5792980000000  0.4659650000000  0.5188920000000 1.0
C      1  0.4206650000000  0.5382310000000  0.5191500000000 1.0
C      1  0.5815440000000  0.5418870000000  0.4748500000000 1.0
C      1  0.5252650000000  0.4152460000000  0.5400320000000 1.0
C      1  0.4764790000000  0.5870200000000  0.5423250000000 1.0
C      1  0.5241800000000  0.5851840000000  0.4618850000000 1.0
C      1  0.4294220000000  0.4797040000000  0.4580720000000 1.0
C      1  0.4713500000000  0.4607110000000  0.4169460000000 1.0
C      1  0.4553030000000  0.4171120000000  0.4792490000000 1.0
C      1  0.5712080000000  0.4762610000000  0.5427690000000 1.0
C      1  0.5746140000000  0.5252030000000  0.4536220000000 1.0
C      1  0.4296950000000  0.5250270000000  0.5417480000000 1.0
C      1  0.5275910000000  0.4593990000000  0.5830730000000 1.0
C      1  0.5265010000000  0.5370050000000  0.4187990000000 1.0
C      1  0.4714950000000  0.5402690000000  0.5839230000000 1.0
C      1  0.5455700000000  0.4163690000000  0.5204550000000 1.0
C      1  0.5446250000000  0.5861790000000  0.4814000000000 1.0
C      1  0.4565650000000  0.5872040000000  0.5227320000000 1.0
C      1  0.4451170000000  0.5322680000000  0.5639370000000 1.0
C      1  0.5548930000000  0.4664540000000  0.5640960000000 1.0
C      1  0.5570650000000  0.5315540000000  0.4328560000000 1.0
C      1  0.4451200000000  0.4701240000000  0.4366850000000 1.0
END
