TITL C-3289326-3776-461 -0.00255708801514189 125000 -861.639625559018 0 0 151 (C1) n - 1
REM
REM in /nfs/bkarasulu/CARBON/AIRSS/Generating-Clusters/AIREBO/with-SteepDescent/Higher-Symm/SD-CG/HFTN-CG
REM
REM
REM
REM
REM
REM ./C.cell (b20cbc046b6831c77cfcea5457e17084)
REM
REM compiler GCC version 9.2.1 20190827 (Red Hat 9.2.1-1)
REM options -cpp -mtune=generic -march=x86-64 -g -O0 -fpre-include=/usr/include/finclude/math-vector-fortran.h
REM seed 196665954 -817818293 -1763659754 -1747546888 -1754992700 -132199972 1073878516 -2035350970 -2085720580 2139475479 719490739 -2122574870 545584269 -1629320434 1658886492 1061524333 -1129638766 -230572486 1185268452 -1743584700 1661452174 -1070159459 -381115352 -1054586511 -1564157794 -1127677371 -639103400 692093461 765969908 862808752 -726025404 -982200886 -820675119
REM
CELL 1.54180   50.00000   50.00000   50.00000   90.00000   90.00000   90.00000
LATT -1
SFAC C  
C      1  0.5383400000000  0.4394410000000  0.5737630000000 1.0
C      1  0.4174470000000  0.4314580000000  0.4905820000000 1.0
C      1  0.5401890000000  0.4352510000000  0.4361700000000 1.0
C      1  0.5397140000000  0.5683770000000  0.5698650000000 1.0
C      1  0.4199660000000  0.5615850000000  0.5029470000000 1.0
C      1  0.5431050000000  0.5618230000000  0.4245920000000 1.0
C      1  0.4242250000000  0.5565380000000  0.5329000000000 1.0
C      1  0.5147060000000  0.5559850000000  0.4135900000000 1.0
C      1  0.5629060000000  0.5589960000000  0.5536620000000 1.0
C      1  0.4244850000000  0.4466450000000  0.5194350000000 1.0
C      1  0.5190680000000  0.4574960000000  0.4212890000000 1.0
C      1  0.5609890000000  0.4481870000000  0.5577700000000 1.0
C      1  0.5691790000000  0.5310520000000  0.5538950000000 1.0
C      1  0.4231340000000  0.5286660000000  0.5397870000000 1.0
C      1  0.5088100000000  0.5282490000000  0.4088530000000 1.0
C      1  0.5747450000000  0.4744850000000  0.5577710000000 1.0
C      1  0.4187020000000  0.4709690000000  0.5424890000000 1.0
C      1  0.5030720000000  0.4712510000000  0.3974640000000 1.0
C      1  0.4551970000000  0.4761700000000  0.4060430000000 1.0
C      1  0.5916710000000  0.4723270000000  0.5122910000000 1.0
C      1  0.4516550000000  0.4720920000000  0.5912670000000 1.0
C      1  0.4599970000000  0.5311260000000  0.4096940000000 1.0
C      1  0.5975910000000  0.5326930000000  0.5132420000000 1.0
C      1  0.4442660000000  0.5306590000000  0.5823050000000 1.0
C      1  0.5884690000000  0.5219480000000  0.4822980000000 1.0
C      1  0.4731670000000  0.5180170000000  0.5846520000000 1.0
C      1  0.4437060000000  0.5192330000000  0.4351100000000 1.0
C      1  0.5918760000000  0.4898500000000  0.4868130000000 1.0
C      1  0.4739590000000  0.4895350000000  0.5998850000000 1.0
C      1  0.4429090000000  0.4875100000000  0.4334640000000 1.0
C      1  0.4505650000000  0.5561180000000  0.4213060000000 1.0
C      1  0.5899430000000  0.5580860000000  0.4990310000000 1.0
C      1  0.4605890000000  0.5558640000000  0.5863350000000 1.0
C      1  0.4355840000000  0.4531100000000  0.4148320000000 1.0
C      1  0.5778810000000  0.4486010000000  0.5067710000000 1.0
C      1  0.4578390000000  0.4456210000000  0.5936810000000 1.0
C      1  0.4653430000000  0.4342660000000  0.4462630000000 1.0
C      1  0.5487210000000  0.4260140000000  0.4913540000000 1.0
C      1  0.4691370000000  0.4404690000000  0.5479400000000 1.0
C      1  0.4795560000000  0.5574350000000  0.4487840000000 1.0
C      1  0.5493810000000  0.5573240000000  0.5049390000000 1.0
C      1  0.4713810000000  0.5572270000000  0.5474590000000 1.0
C      1  0.5891900000000  0.4878300000000  0.5368770000000 1.0
C      1  0.4353930000000  0.4847040000000  0.5650730000000 1.0
C      1  0.4798050000000  0.4879470000000  0.3980820000000 1.0
C      1  0.5900500000000  0.5186330000000  0.5375090000000 1.0
C      1  0.4293220000000  0.5160900000000  0.5641070000000 1.0
C      1  0.4831500000000  0.5168900000000  0.4016710000000 1.0
C      1  0.5198530000000  0.5244260000000  0.5743920000000 1.0
C      1  0.4325520000000  0.5269220000000  0.4875750000000 1.0
C      1  0.5496320000000  0.5257950000000  0.4402250000000 1.0
C      1  0.5180430000000  0.4738310000000  0.5725240000000 1.0
C      1  0.4229450000000  0.4757020000000  0.4789870000000 1.0
C      1  0.5589090000000  0.4765830000000  0.4481210000000 1.0
C      1  0.4184190000000  0.5264530000000  0.4568510000000 1.0
C      1  0.5824690000000  0.5265220000000  0.4490350000000 1.0
C      1  0.5028750000000  0.5066530000000  0.5937330000000 1.0
C      1  0.4191520000000  0.4944180000000  0.4535090000000 1.0
C      1  0.5838470000000  0.4935690000000  0.4553270000000 1.0
C      1  0.5043750000000  0.4742030000000  0.6029980000000 1.0
C      1  0.4948700000000  0.5157560000000  0.5228460000000 1.0
C      1  0.4842790000000  0.5183570000000  0.4844260000000 1.0
C      1  0.5245230000000  0.5159050000000  0.4917760000000 1.0
C      1  0.5001070000000  0.4708130000000  0.5250510000000 1.0
C      1  0.4814810000000  0.4694230000000  0.4830730000000 1.0
C      1  0.5216400000000  0.4710470000000  0.4823840000000 1.0
C      1  0.4781930000000  0.4366670000000  0.5774390000000 1.0
C      1  0.4344580000000  0.4428200000000  0.4425810000000 1.0
C      1  0.5708300000000  0.4389310000000  0.4767750000000 1.0
C      1  0.4884580000000  0.5613100000000  0.5756380000000 1.0
C      1  0.4480170000000  0.5696000000000  0.4519340000000 1.0
C      1  0.5658110000000  0.5691750000000  0.4777930000000 1.0
C      1  0.4634980000000  0.4718840000000  0.5528320000000 1.0
C      1  0.4657560000000  0.4673040000000  0.4464650000000 1.0
C      1  0.5617580000000  0.4961440000000  0.5012940000000 1.0
C      1  0.4699450000000  0.5269350000000  0.5519860000000 1.0
C      1  0.4726850000000  0.5280330000000  0.4474340000000 1.0
C      1  0.5609450000000  0.5306280000000  0.4976550000000 1.0
C      1  0.5172750000000  0.5393990000000  0.4682790000000 1.0
C      1  0.5157440000000  0.5415800000000  0.5301000000000 1.0
C      1  0.4689010000000  0.5407310000000  0.5031320000000 1.0
C      1  0.5123500000000  0.4441780000000  0.4634410000000 1.0
C      1  0.5300480000000  0.4547980000000  0.5295790000000 1.0
C      1  0.4603920000000  0.4510660000000  0.5025550000000 1.0
C      1  0.4791470000000  0.4292640000000  0.5174270000000 1.0
C      1  0.4975410000000  0.4411040000000  0.4928960000000 1.0
C      1  0.5279990000000  0.4443970000000  0.5000440000000 1.0
C      1  0.4853410000000  0.5652020000000  0.5193560000000 1.0
C      1  0.4967360000000  0.5622770000000  0.4772750000000 1.0
C      1  0.5159670000000  0.5636800000000  0.5046450000000 1.0
C      1  0.4707930000000  0.5939560000000  0.5094000000000 1.0
C      1  0.5006570000000  0.5896170000000  0.4593990000000 1.0
C      1  0.5269380000000  0.5937480000000  0.5161190000000 1.0
C      1  0.4689980000000  0.3989120000000  0.5098030000000 1.0
C      1  0.5012380000000  0.3944730000000  0.4627960000000 1.0
C      1  0.5306180000000  0.3909240000000  0.5274220000000 1.0
C      1  0.4506550000000  0.5682380000000  0.5002130000000 1.0
C      1  0.5255390000000  0.5672950000000  0.4506230000000 1.0
C      1  0.5231410000000  0.5722830000000  0.5428610000000 1.0
C      1  0.4457520000000  0.4209070000000  0.4975720000000 1.0
C      1  0.5244330000000  0.4155450000000  0.4537100000000 1.0
C      1  0.5203090000000  0.4300170000000  0.5507530000000 1.0
C      1  0.5591430000000  0.4372040000000  0.5282910000000 1.0
C      1  0.4418480000000  0.4270920000000  0.5368000000000 1.0
C      1  0.4972590000000  0.4382090000000  0.4352210000000 1.0
C      1  0.5636500000000  0.5719490000000  0.5288380000000 1.0
C      1  0.4440270000000  0.5720280000000  0.5466100000000 1.0
C      1  0.4936250000000  0.5711530000000  0.4246650000000 1.0
C      1  0.5309720000000  0.3868650000000  0.4703510000000 1.0
C      1  0.5108740000000  0.4041570000000  0.5419880000000 1.0
C      1  0.4557950000000  0.3952020000000  0.4795330000000 1.0
C      1  0.5322550000000  0.5971830000000  0.4649880000000 1.0
C      1  0.5059960000000  0.6015500000000  0.5404630000000 1.0
C      1  0.4559010000000  0.5959140000000  0.4809990000000 1.0
C      1  0.5439970000000  0.4840090000000  0.5628370000000 1.0
C      1  0.4329220000000  0.4786420000000  0.5115460000000 1.0
C      1  0.5264180000000  0.4829580000000  0.4403640000000 1.0
C      1  0.5432390000000  0.5147380000000  0.5546670000000 1.0
C      1  0.4284770000000  0.5122430000000  0.5142520000000 1.0
C      1  0.5242170000000  0.5129730000000  0.4296580000000 1.0
C      1  0.5421400000000  0.3961130000000  0.4964930000000 1.0
C      1  0.4840570000000  0.3962300000000  0.5391190000000 1.0
C      1  0.4720470000000  0.4024100000000  0.4562390000000 1.0
C      1  0.5487360000000  0.5958940000000  0.4904230000000 1.0
C      1  0.4785290000000  0.6045780000000  0.5367910000000 1.0
C      1  0.4696970000000  0.5957430000000  0.4537420000000 1.0
C      1  0.4527950000000  0.4837990000000  0.4720330000000 1.0
C      1  0.5454670000000  0.4857170000000  0.4754050000000 1.0
C      1  0.4948930000000  0.4822310000000  0.5543540000000 1.0
C      1  0.4556720000000  0.5128740000000  0.4726650000000 1.0
C      1  0.5497770000000  0.5167680000000  0.4696580000000 1.0
C      1  0.4985760000000  0.5119330000000  0.5543920000000 1.0
C      1  0.5068020000000  0.4453310000000  0.5850770000000 1.0
C      1  0.4199380000000  0.4475080000000  0.4669220000000 1.0
C      1  0.5623450000000  0.4471750000000  0.4503830000000 1.0
C      1  0.5152000000000  0.5537220000000  0.5773520000000 1.0
C      1  0.4275380000000  0.5558940000000  0.4702570000000 1.0
C      1  0.5635160000000  0.5549310000000  0.4509280000000 1.0
C      1  0.5343720000000  0.5152170000000  0.5229900000000 1.0
C      1  0.4616760000000  0.5130620000000  0.5215480000000 1.0
C      1  0.5017250000000  0.5121370000000  0.4551810000000 1.0
C      1  0.5468570000000  0.4843760000000  0.5289580000000 1.0
C      1  0.4659210000000  0.4793280000000  0.5206450000000 1.0
C      1  0.4953670000000  0.4787810000000  0.4534430000000 1.0
C      1  0.4890560000000  0.4087110000000  0.4274810000000 1.0
C      1  0.5579060000000  0.4068830000000  0.5248820000000 1.0
C      1  0.4551930000000  0.4030280000000  0.5470020000000 1.0
C      1  0.4846700000000  0.5986340000000  0.4239850000000 1.0
C      1  0.5665710000000  0.5977760000000  0.5182200000000 1.0
C      1  0.4543820000000  0.5989710000000  0.5518640000000 1.0
C      1  0.5009390000000  0.4924440000000  0.4988320000000 1.0
END
