TITL C-3289324-3781-429 -0.00198978028639213 125000 -1107.74999241908 0 0 200 (C1) n - 1
REM
REM in /nfs/bkarasulu/CARBON/AIRSS/Generating-Clusters/AIREBO/with-SteepDescent/Higher-Symm/SD-CG/HFTN-CG
REM
REM
REM
REM
REM
REM ./C.cell (b20cbc046b6831c77cfcea5457e17084)
REM
REM compiler GCC version 9.2.1 20190827 (Red Hat 9.2.1-1)
REM options -cpp -mtune=generic -march=x86-64 -g -O0 -fpre-include=/usr/include/finclude/math-vector-fortran.h
REM seed -1669860303 -629410777 541457434 2037671262 1111392504 -470675333 -818479310 -2058479922 -425024666 846621384 824732898 -38893236 -1503508527 1767704156 -1484692390 -1897494789 1905528665 228456296 -473930368 1128797488 -1249087635 -1420623375 -1329979545 1086299079 -932355016 -1638105975 -1185179739 -68611354 -705921139 -1858257834 -1216144951 -241580420 -2126715479
REM
CELL 1.54180   50.00000   50.00000   50.00000   90.00000   90.00000   90.00000
LATT -1
SFAC C  
C      1  0.4052270000000  0.5464560000000  0.4722540000000 1.0
C      1  0.3908940000000  0.5333360000000  0.5323620000000 1.0
C      1  0.3933170000000  0.4605900000000  0.5340240000000 1.0
C      1  0.3999200000000  0.4663310000000  0.4633640000000 1.0
C      1  0.5959310000000  0.4593260000000  0.4636460000000 1.0
C      1  0.6022580000000  0.4697710000000  0.5437410000000 1.0
C      1  0.6008850000000  0.5364760000000  0.5360090000000 1.0
C      1  0.6064060000000  0.5332670000000  0.4627580000000 1.0
C      1  0.5396880000000  0.5562620000000  0.5774680000000 1.0
C      1  0.5452080000000  0.4236490000000  0.5698180000000 1.0
C      1  0.5348330000000  0.4494930000000  0.4092240000000 1.0
C      1  0.5426330000000  0.5665450000000  0.4626820000000 1.0
C      1  0.4637320000000  0.4380970000000  0.5813610000000 1.0
C      1  0.4572280000000  0.5622800000000  0.5563710000000 1.0
C      1  0.4631460000000  0.5534400000000  0.4170990000000 1.0
C      1  0.4636480000000  0.4166190000000  0.4624730000000 1.0
C      1  0.5642480000000  0.4777490000000  0.4796550000000 1.0
C      1  0.5737290000000  0.5071680000000  0.4707450000000 1.0
C      1  0.5760190000000  0.5188110000000  0.5106260000000 1.0
C      1  0.5729780000000  0.4885020000000  0.5083920000000 1.0
C      1  0.4379200000000  0.5265650000000  0.4837730000000 1.0
C      1  0.4412630000000  0.4972740000000  0.4751170000000 1.0
C      1  0.4275450000000  0.4822470000000  0.4996860000000 1.0
C      1  0.4175310000000  0.5051250000000  0.5227580000000 1.0
C      1  0.5764230000000  0.4389350000000  0.4701260000000 1.0
C      1  0.5848210000000  0.5347730000000  0.4439700000000 1.0
C      1  0.5761830000000  0.5492270000000  0.5364780000000 1.0
C      1  0.5765380000000  0.4587900000000  0.5477980000000 1.0
C      1  0.4290680000000  0.5529510000000  0.4554060000000 1.0
C      1  0.4177240000000  0.4688560000000  0.4414320000000 1.0
C      1  0.4201230000000  0.4472210000000  0.5338760000000 1.0
C      1  0.4113890000000  0.5343610000000  0.5554480000000 1.0
C      1  0.5972720000000  0.5085880000000  0.5506950000000 1.0
C      1  0.5965480000000  0.4471850000000  0.5112880000000 1.0
C      1  0.5896600000000  0.4729400000000  0.4388120000000 1.0
C      1  0.6035060000000  0.5597800000000  0.4783480000000 1.0
C      1  0.4079890000000  0.4740840000000  0.5606660000000 1.0
C      1  0.3988300000000  0.5559540000000  0.5104440000000 1.0
C      1  0.4028210000000  0.5083530000000  0.4466100000000 1.0
C      1  0.4072730000000  0.4436600000000  0.4787280000000 1.0
C      1  0.4429010000000  0.5781220000000  0.4411630000000 1.0
C      1  0.4298610000000  0.5400230000000  0.5829410000000 1.0
C      1  0.4308900000000  0.4260100000000  0.5482490000000 1.0
C      1  0.4331650000000  0.4484900000000  0.4297350000000 1.0
C      1  0.5608220000000  0.4196320000000  0.4575700000000 1.0
C      1  0.5633240000000  0.4541330000000  0.5784570000000 1.0
C      1  0.5742210000000  0.5764330000000  0.5477060000000 1.0
C      1  0.5747720000000  0.5458220000000  0.4182950000000 1.0
C      1  0.5401570000000  0.5303670000000  0.4924770000000 1.0
C      1  0.5341980000000  0.5090950000000  0.5160940000000 1.0
C      1  0.5309270000000  0.4784920000000  0.5016410000000 1.0
C      1  0.5274290000000  0.5026870000000  0.4773630000000 1.0
C      1  0.4756810000000  0.4917780000000  0.4946210000000 1.0
C      1  0.4577510000000  0.4962610000000  0.5232480000000 1.0
C      1  0.4645650000000  0.5274080000000  0.5138360000000 1.0
C      1  0.4773100000000  0.5246550000000  0.4873820000000 1.0
C      1  0.4965780000000  0.4715860000000  0.6173870000000 1.0
C      1  0.4958090000000  0.3776110000000  0.4747150000000 1.0
C      1  0.5025210000000  0.5334470000000  0.4139720000000 1.0
C      1  0.4952270000000  0.5986100000000  0.5416960000000 1.0
C      1  0.4897260000000  0.5362150000000  0.5935140000000 1.0
C      1  0.5065140000000  0.6058140000000  0.4616670000000 1.0
C      1  0.5016660000000  0.4650180000000  0.3918010000000 1.0
C      1  0.4960950000000  0.4072750000000  0.5439530000000 1.0
C      1  0.5503080000000  0.4260020000000  0.3898130000000 1.0
C      1  0.5386060000000  0.5827240000000  0.4330470000000 1.0
C      1  0.5292480000000  0.5653120000000  0.6065930000000 1.0
C      1  0.5339500000000  0.3970360000000  0.5728800000000 1.0
C      1  0.4737220000000  0.5732850000000  0.4009340000000 1.0
C      1  0.4587970000000  0.4010980000000  0.4335040000000 1.0
C      1  0.4776950000000  0.4297700000000  0.6038910000000 1.0
C      1  0.4670640000000  0.5872890000000  0.5675120000000 1.0
C      1  0.5307680000000  0.5051660000000  0.5997860000000 1.0
C      1  0.5310200000000  0.3933500000000  0.5048550000000 1.0
C      1  0.5318730000000  0.4799870000000  0.3964070000000 1.0
C      1  0.5302020000000  0.6042600000000  0.4834050000000 1.0
C      1  0.4722490000000  0.4878420000000  0.6044390000000 1.0
C      1  0.4639160000000  0.6123080000000  0.5029200000000 1.0
C      1  0.4599240000000  0.4968840000000  0.3875340000000 1.0
C      1  0.4725110000000  0.3942790000000  0.4844530000000 1.0
C      1  0.4449990000000  0.4104990000000  0.4973230000000 1.0
C      1  0.4363010000000  0.5056790000000  0.4068540000000 1.0
C      1  0.4399220000000  0.5952270000000  0.5161960000000 1.0
C      1  0.4391860000000  0.4821040000000  0.5976650000000 1.0
C      1  0.5589880000000  0.5911180000000  0.4937800000000 1.0
C      1  0.5619390000000  0.4956520000000  0.4018150000000 1.0
C      1  0.5577020000000  0.4121970000000  0.5138850000000 1.0
C      1  0.5605840000000  0.5068600000000  0.5835300000000 1.0
C      1  0.4399940000000  0.4682420000000  0.5272370000000 1.0
C      1  0.4579770000000  0.4677560000000  0.4783150000000 1.0
C      1  0.4603700000000  0.5449450000000  0.4660340000000 1.0
C      1  0.4382800000000  0.5289400000000  0.5353540000000 1.0
C      1  0.5467100000000  0.5361790000000  0.5314960000000 1.0
C      1  0.5566970000000  0.5355900000000  0.4630640000000 1.0
C      1  0.5394320000000  0.4742850000000  0.4629860000000 1.0
C      1  0.5528770000000  0.4692630000000  0.5259250000000 1.0
C      1  0.5259120000000  0.4453120000000  0.5586920000000 1.0
C      1  0.5214870000000  0.4492470000000  0.4354290000000 1.0
C      1  0.5181210000000  0.5554450000000  0.4331730000000 1.0
C      1  0.5232420000000  0.5726160000000  0.5533140000000 1.0
C      1  0.4628730000000  0.5389280000000  0.5778260000000 1.0
C      1  0.4996860000000  0.5809240000000  0.4395270000000 1.0
C      1  0.4900450000000  0.4436700000000  0.4382260000000 1.0
C      1  0.4973070000000  0.4339490000000  0.5607090000000 1.0
C      1  0.5289770000000  0.4422620000000  0.4676210000000 1.0
C      1  0.5326960000000  0.5275090000000  0.4422820000000 1.0
C      1  0.5279310000000  0.5613550000000  0.5225760000000 1.0
C      1  0.5316380000000  0.4756720000000  0.5490740000000 1.0
C      1  0.4703310000000  0.5717360000000  0.4844480000000 1.0
C      1  0.4748150000000  0.4722130000000  0.4421860000000 1.0
C      1  0.4698520000000  0.4592480000000  0.5321170000000 1.0
C      1  0.4662490000000  0.5213200000000  0.5531540000000 1.0
C      1  0.5113590000000  0.4945570000000  0.4169490000000 1.0
C      1  0.5136420000000  0.5860070000000  0.5046500000000 1.0
C      1  0.5082500000000  0.5131500000000  0.5767130000000 1.0
C      1  0.5097360000000  0.4183310000000  0.5149430000000 1.0
C      1  0.4850540000000  0.5076970000000  0.4077760000000 1.0
C      1  0.4838410000000  0.4220820000000  0.4965630000000 1.0
C      1  0.4837490000000  0.4891380000000  0.5749420000000 1.0
C      1  0.4812750000000  0.5851430000000  0.5137380000000 1.0
C      1  0.3972940000000  0.5265170000000  0.4934010000000 1.0
C      1  0.3841020000000  0.5065850000000  0.5164030000000 1.0
C      1  0.3943060000000  0.4777450000000  0.5052700000000 1.0
C      1  0.3925560000000  0.4967270000000  0.4770840000000 1.0
C      1  0.6065540000000  0.4739380000000  0.4927240000000 1.0
C      1  0.6021000000000  0.4907100000000  0.5220110000000 1.0
C      1  0.6088180000000  0.5274830000000  0.5082180000000 1.0
C      1  0.6035220000000  0.5065530000000  0.4834850000000 1.0
C      1  0.4944590000000  0.5213270000000  0.5402140000000 1.0
C      1  0.4940180000000  0.4713930000000  0.5147360000000 1.0
C      1  0.4886810000000  0.4903200000000  0.4639600000000 1.0
C      1  0.5029180000000  0.5416070000000  0.4848440000000 1.0
C      1  0.5100670000000  0.4951170000000  0.5314000000000 1.0
C      1  0.5010170000000  0.5433470000000  0.5171150000000 1.0
C      1  0.5047040000000  0.5198570000000  0.4587700000000 1.0
C      1  0.5067680000000  0.4614370000000  0.4848190000000 1.0
C      1  0.5327670000000  0.4092810000000  0.4602470000000 1.0
C      1  0.5580050000000  0.5294100000000  0.4028690000000 1.0
C      1  0.5700260000000  0.5952500000000  0.5257450000000 1.0
C      1  0.5526300000000  0.4755860000000  0.5944340000000 1.0
C      1  0.4599100000000  0.5907170000000  0.4583500000000 1.0
C      1  0.4574740000000  0.4577970000000  0.4181970000000 1.0
C      1  0.4446140000000  0.4072320000000  0.5311900000000 1.0
C      1  0.4420660000000  0.5138270000000  0.6009230000000 1.0
C      1  0.5786400000000  0.4247050000000  0.5270840000000 1.0
C      1  0.5806510000000  0.4713180000000  0.4102210000000 1.0
C      1  0.5800090000000  0.5785100000000  0.4702140000000 1.0
C      1  0.5811780000000  0.5276830000000  0.5740900000000 1.0
C      1  0.4170960000000  0.5777330000000  0.5294110000000 1.0
C      1  0.4190120000000  0.5223710000000  0.4202850000000 1.0
C      1  0.4235080000000  0.4168400000000  0.4739200000000 1.0
C      1  0.4231170000000  0.4622540000000  0.5827770000000 1.0
C      1  0.4363620000000  0.4366240000000  0.5753990000000 1.0
C      1  0.4355450000000  0.4225120000000  0.4445830000000 1.0
C      1  0.4314760000000  0.5506270000000  0.4236630000000 1.0
C      1  0.4268210000000  0.5624170000000  0.5539340000000 1.0
C      1  0.5697750000000  0.5561140000000  0.5746450000000 1.0
C      1  0.5681030000000  0.5708380000000  0.4403470000000 1.0
C      1  0.5675660000000  0.4481870000000  0.4035660000000 1.0
C      1  0.5750150000000  0.4285340000000  0.5590080000000 1.0
C      1  0.4805360000000  0.4449200000000  0.4708480000000 1.0
C      1  0.4820490000000  0.5378640000000  0.4407590000000 1.0
C      1  0.4722860000000  0.5564810000000  0.5297010000000 1.0
C      1  0.4780190000000  0.4585030000000  0.5613390000000 1.0
C      1  0.5195120000000  0.5658720000000  0.4812880000000 1.0
C      1  0.5134350000000  0.4812990000000  0.4454480000000 1.0
C      1  0.5137910000000  0.4479170000000  0.5274340000000 1.0
C      1  0.5168210000000  0.5400350000000  0.5577350000000 1.0
C      1  0.5359640000000  0.4322560000000  0.4983640000000 1.0
C      1  0.5422270000000  0.5024870000000  0.4276980000000 1.0
C      1  0.5538420000000  0.5604320000000  0.5005660000000 1.0
C      1  0.5367960000000  0.5038600000000  0.5601030000000 1.0
C      1  0.4458680000000  0.5700400000000  0.5029500000000 1.0
C      1  0.4605420000000  0.4965360000000  0.4271350000000 1.0
C      1  0.4599490000000  0.4378980000000  0.5108130000000 1.0
C      1  0.4557560000000  0.4912380000000  0.5557520000000 1.0
C      1  0.5701260000000  0.4941460000000  0.4424270000000 1.0
C      1  0.5777800000000  0.5428330000000  0.4887370000000 1.0
C      1  0.5645620000000  0.5113420000000  0.5418200000000 1.0
C      1  0.5647010000000  0.4503620000000  0.4998120000000 1.0
C      1  0.4339530000000  0.4950500000000  0.4452990000000 1.0
C      1  0.4351010000000  0.4499430000000  0.4922250000000 1.0
C      1  0.4240290000000  0.4953500000000  0.5516100000000 1.0
C      1  0.4296880000000  0.5455800000000  0.5069700000000 1.0
C      1  0.5234280000000  0.4769650000000  0.6118190000000 1.0
C      1  0.5219670000000  0.3895500000000  0.4775190000000 1.0
C      1  0.5317980000000  0.5368960000000  0.4001030000000 1.0
C      1  0.5039790000000  0.6234230000000  0.5406330000000 1.0
C      1  0.4697320000000  0.5195270000000  0.6120160000000 1.0
C      1  0.4766640000000  0.6100050000000  0.4749000000000 1.0
C      1  0.4709950000000  0.4697990000000  0.3944040000000 1.0
C      1  0.4675120000000  0.3961660000000  0.5406650000000 1.0
C      1  0.5026500000000  0.5635840000000  0.5952450000000 1.0
C      1  0.5150740000000  0.3878170000000  0.5590130000000 1.0
C      1  0.4955660000000  0.4406610000000  0.4063930000000 1.0
C      1  0.5158550000000  0.6075740000000  0.4284400000000 1.0
C      1  0.4890150000000  0.4451650000000  0.6236040000000 1.0
C      1  0.4976830000000  0.5820670000000  0.5709110000000 1.0
C      1  0.4896770000000  0.5927430000000  0.4115610000000 1.0
C      1  0.4914790000000  0.3541200000000  0.4613130000000 1.0
END
