TITL C-3289325-7307-614 -0.0018764500017055 125000 -143.767745850096 0 0 26 (C1) n - 1
REM
REM in /nfs/bkarasulu/CARBON/AIRSS/Generating-Clusters/AIREBO/with-SteepDescent/Higher-Symm/SD-CG/HFTN-CG
REM
REM
REM
REM
REM
REM ./C.cell (b20cbc046b6831c77cfcea5457e17084)
REM
REM compiler GCC version 9.2.1 20190827 (Red Hat 9.2.1-1)
REM options -cpp -mtune=generic -march=x86-64 -g -O0 -fpre-include=/usr/include/finclude/math-vector-fortran.h
REM seed 1430495667 -1138832272 -881676993 1143860511 -830055679 1822846317 -1169925983 -1175069765 1855309986 1540565026 -1489570348 -1795610312 -1707512703 1462813973 762975861 71857436 1849129180 1301715600 1033120885 -1769028998 1107642233 940844230 -450786877 -810011253 1576141086 -2003058078 1656796260 2035392773 1494031735 -56169669 -973214958 519069232 -2138326201
REM
CELL 1.54180   50.00000   50.00000   50.00000   90.00000   90.00000   90.00000
LATT -1
SFAC C  
C      1  0.5497340000000  0.4356010000000  0.5099640000000 1.0
C      1  0.5340330000000  0.5593000000000  0.5746740000000 1.0
C      1  0.4811610000000  0.5339260000000  0.4425250000000 1.0
C      1  0.4742530000000  0.5387890000000  0.5145180000000 1.0
C      1  0.4909950000000  0.4691560000000  0.4973820000000 1.0
C      1  0.5570520000000  0.5135050000000  0.5293330000000 1.0
C      1  0.4920970000000  0.5239060000000  0.4991260000000 1.0
C      1  0.5140540000000  0.4809650000000  0.5080340000000 1.0
C      1  0.5308740000000  0.5225540000000  0.5305200000000 1.0
C      1  0.4700120000000  0.5047120000000  0.4507400000000 1.0
C      1  0.5685370000000  0.4617180000000  0.5105340000000 1.0
C      1  0.5048690000000  0.5632240000000  0.5617540000000 1.0
C      1  0.4604290000000  0.4797200000000  0.4567970000000 1.0
C      1  0.5878540000000  0.4806860000000  0.5151750000000 1.0
C      1  0.4786670000000  0.5666230000000  0.5545730000000 1.0
C      1  0.4184860000000  0.4437280000000  0.4414690000000 1.0
C      1  0.4006810000000  0.4434830000000  0.4137760000000 1.0
C      1  0.4393520000000  0.4685800000000  0.4441810000000 1.0
C      1  0.5242370000000  0.5398960000000  0.5504300000000 1.0
C      1  0.4875890000000  0.5221780000000  0.4718720000000 1.0
C      1  0.5361590000000  0.4651340000000  0.5103070000000 1.0
C      1  0.4675450000000  0.5593950000000  0.5306980000000 1.0
C      1  0.4754760000000  0.4656470000000  0.4756360000000 1.0
C      1  0.5826960000000  0.5056220000000  0.5256720000000 1.0
C      1  0.4145270000000  0.4717770000000  0.4233520000000 1.0
C      1  0.5125370000000  0.5090670000000  0.5129650000000 1.0
END
