TITL C-3289327-5623-2 -0.00183169957391276 125000 -517.957554538668 0 0 92 (C1) n - 1
REM
REM in /nfs/bkarasulu/CARBON/AIRSS/Generating-Clusters/AIREBO/with-SteepDescent/Higher-Symm/SD-CG/HFTN-CG
REM
REM
REM
REM
REM
REM ./C.cell (b20cbc046b6831c77cfcea5457e17084)
REM
REM compiler GCC version 9.2.1 20190827 (Red Hat 9.2.1-1)
REM options -cpp -mtune=generic -march=x86-64 -g -O0 -fpre-include=/usr/include/finclude/math-vector-fortran.h
REM seed -990816844 1003631678 -782088695 1298464975 901410075 -1808017542 -2135301032 1819514444 -907718863 1570582492 -2013737673 2130123873 577992739 -1671828756 -1395585093 771658765 2021527351 150552398 135968846 -1713916781 1640783895 874981788 1902313663 -174515523 -1381240899 -515874915 -1251743195 -68911042 246467820 1445343486 672185326 -91575544 632382471
REM
CELL 1.54180   50.00000   50.00000   50.00000   90.00000   90.00000   90.00000
LATT -1
SFAC C  
C      1  0.5014850000000  0.3720230000000  0.4869500000000 1.0
C      1  0.5015870000000  0.3943580000000  0.4709300000000 1.0
C      1  0.5021800000000  0.4210760000000  0.4773560000000 1.0
C      1  0.4889520000000  0.4352390000000  0.4979910000000 1.0
C      1  0.4808490000000  0.4192720000000  0.5197490000000 1.0
C      1  0.4854870000000  0.3933880000000  0.5273870000000 1.0
C      1  0.4895970000000  0.3710730000000  0.5118280000000 1.0
C      1  0.5761030000000  0.4695730000000  0.4676310000000 1.0
C      1  0.5190020000000  0.4776570000000  0.4255620000000 1.0
C      1  0.4442970000000  0.4694590000000  0.4367720000000 1.0
C      1  0.4086160000000  0.4597850000000  0.4999670000000 1.0
C      1  0.4474700000000  0.4720300000000  0.5608580000000 1.0
C      1  0.5102220000000  0.4819530000000  0.5761000000000 1.0
C      1  0.5838110000000  0.4669170000000  0.5414550000000 1.0
C      1  0.4325190000000  0.5474550000000  0.5499450000000 1.0
C      1  0.4926610000000  0.5553390000000  0.5738890000000 1.0
C      1  0.5576960000000  0.5579490000000  0.5279280000000 1.0
C      1  0.5786920000000  0.5427930000000  0.4868910000000 1.0
C      1  0.5252080000000  0.5415280000000  0.4368510000000 1.0
C      1  0.4763930000000  0.5352230000000  0.4250100000000 1.0
C      1  0.4236880000000  0.5354190000000  0.4962240000000 1.0
C      1  0.4426710000000  0.4383420000000  0.4732470000000 1.0
C      1  0.4435170000000  0.4382600000000  0.5266690000000 1.0
C      1  0.4859160000000  0.4422930000000  0.5607370000000 1.0
C      1  0.5403730000000  0.4432390000000  0.5558200000000 1.0
C      1  0.5654270000000  0.4378590000000  0.5054290000000 1.0
C      1  0.5356110000000  0.4414420000000  0.4556800000000 1.0
C      1  0.4841990000000  0.4428070000000  0.4394070000000 1.0
C      1  0.5128350000000  0.4539420000000  0.5670300000000 1.0
C      1  0.5649290000000  0.4451910000000  0.5357740000000 1.0
C      1  0.5616320000000  0.4459860000000  0.4758820000000 1.0
C      1  0.5118730000000  0.4529520000000  0.4375250000000 1.0
C      1  0.4569050000000  0.4474370000000  0.4495310000000 1.0
C      1  0.4317870000000  0.4428680000000  0.4999650000000 1.0
C      1  0.4586240000000  0.4476730000000  0.5502090000000 1.0
C      1  0.4319330000000  0.5032090000000  0.5034070000000 1.0
C      1  0.4616830000000  0.5216560000000  0.5422520000000 1.0
C      1  0.5089950000000  0.5126200000000  0.5604660000000 1.0
C      1  0.5792460000000  0.5135100000000  0.5276750000000 1.0
C      1  0.5557940000000  0.5219530000000  0.4728250000000 1.0
C      1  0.5269510000000  0.5075770000000  0.4404900000000 1.0
C      1  0.4576120000000  0.5222210000000  0.4502230000000 1.0
C      1  0.5535510000000  0.5615240000000  0.4782080000000 1.0
C      1  0.4857440000000  0.5748840000000  0.4465560000000 1.0
C      1  0.4623850000000  0.5726530000000  0.4609650000000 1.0
C      1  0.4370100000000  0.5787440000000  0.5255160000000 1.0
C      1  0.4617620000000  0.5730160000000  0.5351330000000 1.0
C      1  0.5146560000000  0.5630580000000  0.5583260000000 1.0
C      1  0.5412330000000  0.5666660000000  0.5037200000000 1.0
C      1  0.5004200000000  0.5104480000000  0.5910920000000 1.0
C      1  0.5957320000000  0.4930000000000  0.5374540000000 1.0
C      1  0.5781310000000  0.4969930000000  0.4659120000000 1.0
C      1  0.5366560000000  0.4987850000000  0.4091120000000 1.0
C      1  0.4473830000000  0.4958610000000  0.4311420000000 1.0
C      1  0.4054300000000  0.4871850000000  0.4980830000000 1.0
C      1  0.4423170000000  0.4987490000000  0.5570350000000 1.0
C      1  0.5790250000000  0.5404680000000  0.5182280000000 1.0
C      1  0.5473550000000  0.5630950000000  0.4510350000000 1.0
C      1  0.4960600000000  0.5528630000000  0.4321820000000 1.0
C      1  0.4190790000000  0.5562140000000  0.4516440000000 1.0
C      1  0.4220310000000  0.5534280000000  0.5211680000000 1.0
C      1  0.4649570000000  0.5507390000000  0.5606220000000 1.0
C      1  0.5448330000000  0.5647090000000  0.5525780000000 1.0
C      1  0.5382200000000  0.5284470000000  0.4082900000000 1.0
C      1  0.4597650000000  0.5145790000000  0.4112100000000 1.0
C      1  0.3967950000000  0.5153190000000  0.4900860000000 1.0
C      1  0.4239830000000  0.5220670000000  0.5608170000000 1.0
C      1  0.4976870000000  0.5384800000000  0.5968990000000 1.0
C      1  0.6216490000000  0.4972400000000  0.5436810000000 1.0
C      1  0.5953830000000  0.5205920000000  0.4699350000000 1.0
C      1  0.4819830000000  0.4805830000000  0.5176090000000 1.0
C      1  0.5037490000000  0.4877500000000  0.5304690000000 1.0
C      1  0.5316320000000  0.4791810000000  0.5197860000000 1.0
C      1  0.5325880000000  0.4595670000000  0.4995840000000 1.0
C      1  0.5204350000000  0.4569340000000  0.4763420000000 1.0
C      1  0.4980020000000  0.4802600000000  0.4725830000000 1.0
C      1  0.4866370000000  0.4630570000000  0.4966530000000 1.0
C      1  0.4741050000000  0.5463020000000  0.5223810000000 1.0
C      1  0.4985200000000  0.5316730000000  0.5402030000000 1.0
C      1  0.5173660000000  0.5347290000000  0.5020700000000 1.0
C      1  0.5245470000000  0.5356500000000  0.4688410000000 1.0
C      1  0.4940380000000  0.5301740000000  0.4796710000000 1.0
C      1  0.5171720000000  0.5558210000000  0.5251930000000 1.0
C      1  0.4691510000000  0.5435580000000  0.4934850000000 1.0
C      1  0.5376230000000  0.5109670000000  0.4967470000000 1.0
C      1  0.5257280000000  0.4958890000000  0.4695520000000 1.0
C      1  0.4799160000000  0.5034310000000  0.4672470000000 1.0
C      1  0.4589880000000  0.5136740000000  0.4891330000000 1.0
C      1  0.4606370000000  0.5000430000000  0.5184630000000 1.0
C      1  0.5322240000000  0.4975200000000  0.5468080000000 1.0
C      1  0.5529710000000  0.5033140000000  0.5223220000000 1.0
C      1  0.4439370000000  0.5458210000000  0.4707740000000 1.0
END
