TITL C-3289326-3776-349 0.00264408975673569 125000 -716.571144190696 0 0 138 (C1) n - 1
REM
REM in /nfs/bkarasulu/CARBON/AIRSS/Generating-Clusters/AIREBO/with-SteepDescent/Higher-Symm/SD-CG/HFTN-CG
REM
REM
REM
REM
REM
REM ./C.cell (b20cbc046b6831c77cfcea5457e17084)
REM
REM compiler GCC version 9.2.1 20190827 (Red Hat 9.2.1-1)
REM options -cpp -mtune=generic -march=x86-64 -g -O0 -fpre-include=/usr/include/finclude/math-vector-fortran.h
REM seed -1552825777 1453184002 -260282036 -1457339224 -656879026 -1035371847 1186395108 170205336 -266309873 713822327 71813620 1871280175 883136523 -961694509 991432851 -2050300037 1007589281 -365348920 -1859076530 152677331 1843360538 -1473401789 -1187566526 -835462688 -1072923878 1427519934 -1527755317 -1415986392 449707333 -1703377994 -947404579 -82546954 322949531
REM
CELL 1.54180   50.00000   50.00000   50.00000   90.00000   90.00000   90.00000
LATT -1
SFAC C  
C      1  0.4355030000000  0.5355190000000  0.5361020000000 1.0
C      1  0.5631630000000  0.5331950000000  0.5347120000000 1.0
C      1  0.4495950000000  0.4126530000000  0.5679290000000 1.0
C      1  0.5486010000000  0.4136440000000  0.5686510000000 1.0
C      1  0.4401910000000  0.4740430000000  0.4651730000000 1.0
C      1  0.5707750000000  0.4774360000000  0.4649590000000 1.0
C      1  0.4582520000000  0.4771350000000  0.5160700000000 1.0
C      1  0.5319180000000  0.4763790000000  0.5157900000000 1.0
C      1  0.4483460000000  0.4473290000000  0.5291560000000 1.0
C      1  0.5483170000000  0.4498550000000  0.5294520000000 1.0
C      1  0.4351590000000  0.5828350000000  0.4810050000000 1.0
C      1  0.5600790000000  0.5738020000000  0.4782620000000 1.0
C      1  0.5329990000000  0.4414740000000  0.4681050000000 1.0
C      1  0.4673870000000  0.4389570000000  0.4647260000000 1.0
C      1  0.5300730000000  0.5219250000000  0.4003460000000 1.0
C      1  0.4659490000000  0.5253320000000  0.4029800000000 1.0
C      1  0.4449460000000  0.5360120000000  0.4559840000000 1.0
C      1  0.5491090000000  0.5250350000000  0.4605730000000 1.0
C      1  0.5647480000000  0.4353520000000  0.5097700000000 1.0
C      1  0.4347720000000  0.4307990000000  0.5086240000000 1.0
C      1  0.5644100000000  0.4727570000000  0.5444230000000 1.0
C      1  0.4327080000000  0.4700730000000  0.5457660000000 1.0
C      1  0.5456070000000  0.4197180000000  0.4886360000000 1.0
C      1  0.4570750000000  0.4171290000000  0.4882120000000 1.0
C      1  0.5709980000000  0.5424630000000  0.4412370000000 1.0
C      1  0.4178680000000  0.5522650000000  0.4433700000000 1.0
C      1  0.4670440000000  0.4602890000000  0.4912940000000 1.0
C      1  0.5350450000000  0.4674810000000  0.4847080000000 1.0
C      1  0.4850100000000  0.6022730000000  0.5505390000000 1.0
C      1  0.5388680000000  0.6041970000000  0.5348740000000 1.0
C      1  0.4729070000000  0.3994610000000  0.4662970000000 1.0
C      1  0.5342950000000  0.4016800000000  0.4655650000000 1.0
C      1  0.5760590000000  0.5534150000000  0.4685340000000 1.0
C      1  0.4191190000000  0.5618410000000  0.4718540000000 1.0
C      1  0.4266570000000  0.4814630000000  0.4871130000000 1.0
C      1  0.5833730000000  0.4739850000000  0.4886550000000 1.0
C      1  0.5582380000000  0.5024740000000  0.5001810000000 1.0
C      1  0.4362220000000  0.5078410000000  0.5023100000000 1.0
C      1  0.5293470000000  0.5096500000000  0.5089030000000 1.0
C      1  0.4682950000000  0.5082150000000  0.5097260000000 1.0
C      1  0.4690700000000  0.5316760000000  0.5697530000000 1.0
C      1  0.5317030000000  0.5332810000000  0.5800560000000 1.0
C      1  0.5285070000000  0.5863250000000  0.4821920000000 1.0
C      1  0.4661860000000  0.5974650000000  0.4809210000000 1.0
C      1  0.5292780000000  0.4832020000000  0.6009480000000 1.0
C      1  0.4662400000000  0.4856890000000  0.6018970000000 1.0
C      1  0.5298910000000  0.5466680000000  0.4784260000000 1.0
C      1  0.4647730000000  0.5566160000000  0.4728120000000 1.0
C      1  0.5416670000000  0.4124050000000  0.4408730000000 1.0
C      1  0.4601240000000  0.4088240000000  0.4394700000000 1.0
C      1  0.5476880000000  0.5559070000000  0.5748860000000 1.0
C      1  0.4567500000000  0.5487640000000  0.5525920000000 1.0
C      1  0.4505100000000  0.4787560000000  0.5728680000000 1.0
C      1  0.5460200000000  0.4794110000000  0.5722640000000 1.0
C      1  0.4739220000000  0.4783590000000  0.4640550000000 1.0
C      1  0.5401910000000  0.4921490000000  0.4627080000000 1.0
C      1  0.5370740000000  0.4928270000000  0.4294170000000 1.0
C      1  0.4616960000000  0.4907310000000  0.4361630000000 1.0
C      1  0.4726330000000  0.5661060000000  0.5396100000000 1.0
C      1  0.5584640000000  0.5602380000000  0.5492630000000 1.0
C      1  0.5497820000000  0.5796330000000  0.5312770000000 1.0
C      1  0.4623830000000  0.5937190000000  0.5287290000000 1.0
C      1  0.5847410000000  0.5287070000000  0.5144630000000 1.0
C      1  0.4111150000000  0.5364320000000  0.5141720000000 1.0
C      1  0.5598150000000  0.5063180000000  0.5473480000000 1.0
C      1  0.4353220000000  0.5052170000000  0.5473180000000 1.0
C      1  0.5303930000000  0.5617320000000  0.4490270000000 1.0
C      1  0.4645730000000  0.5673320000000  0.4412640000000 1.0
C      1  0.5326870000000  0.4667760000000  0.4183060000000 1.0
C      1  0.4680920000000  0.4660460000000  0.4175690000000 1.0
C      1  0.5418340000000  0.5093220000000  0.5878750000000 1.0
C      1  0.4561730000000  0.5108060000000  0.5813030000000 1.0
C      1  0.4186590000000  0.4834050000000  0.5186980000000 1.0
C      1  0.5794610000000  0.4865090000000  0.5187300000000 1.0
C      1  0.6036820000000  0.5079390000000  0.5230850000000 1.0
C      1  0.4056040000000  0.5102320000000  0.5314150000000 1.0
C      1  0.5339430000000  0.5367740000000  0.5215640000000 1.0
C      1  0.4569700000000  0.5400620000000  0.5136050000000 1.0
C      1  0.5472400000000  0.4450670000000  0.4373330000000 1.0
C      1  0.4551790000000  0.4411550000000  0.4330690000000 1.0
C      1  0.4694580000000  0.4154400000000  0.5176370000000 1.0
C      1  0.5309880000000  0.4161220000000  0.5169010000000 1.0
C      1  0.5292210000000  0.4915290000000  0.5461110000000 1.0
C      1  0.4664110000000  0.4915040000000  0.5457990000000 1.0
C      1  0.5412310000000  0.5645690000000  0.5050250000000 1.0
C      1  0.4592160000000  0.5721560000000  0.5025480000000 1.0
C      1  0.4668270000000  0.4276080000000  0.5475510000000 1.0
C      1  0.5310590000000  0.4277480000000  0.5480830000000 1.0
C      1  0.4279510000000  0.5337600000000  0.4856200000000 1.0
C      1  0.5729160000000  0.5268420000000  0.4851250000000 1.0
C      1  0.5740160000000  0.4586520000000  0.4453110000000 1.0
C      1  0.4313920000000  0.4549710000000  0.4481260000000 1.0
C      1  0.4631840000000  0.5217430000000  0.4354200000000 1.0
C      1  0.5287220000000  0.5252100000000  0.4333550000000 1.0
C      1  0.5006690000000  0.6284620000000  0.5048710000000 1.0
C      1  0.4992810000000  0.4062070000000  0.4469520000000 1.0
C      1  0.5072850000000  0.4839200000000  0.4599250000000 1.0
C      1  0.5019730000000  0.5326610000000  0.5639120000000 1.0
C      1  0.5073990000000  0.3960490000000  0.5532130000000 1.0
C      1  0.4964860000000  0.5597240000000  0.5837780000000 1.0
C      1  0.5002240000000  0.4576040000000  0.4395610000000 1.0
C      1  0.5024330000000  0.4272750000000  0.4259010000000 1.0
C      1  0.4946390000000  0.4466410000000  0.4945070000000 1.0
C      1  0.4987160000000  0.5496510000000  0.3991530000000 1.0
C      1  0.5085810000000  0.6088790000000  0.5291180000000 1.0
C      1  0.4983100000000  0.4543370000000  0.5794130000000 1.0
C      1  0.4955180000000  0.5825560000000  0.4895520000000 1.0
C      1  0.4903850000000  0.6206610000000  0.4801800000000 1.0
C      1  0.4958360000000  0.5295710000000  0.4408440000000 1.0
C      1  0.4999290000000  0.5760120000000  0.4048660000000 1.0
C      1  0.4979760000000  0.4669730000000  0.5496490000000 1.0
C      1  0.5097310000000  0.3787200000000  0.5321290000000 1.0
C      1  0.5011850000000  0.4352150000000  0.4649950000000 1.0
C      1  0.4984520000000  0.4280210000000  0.5578730000000 1.0
C      1  0.4984570000000  0.5052470000000  0.4999220000000 1.0
C      1  0.5078860000000  0.5483930000000  0.5342980000000 1.0
C      1  0.4982920000000  0.5003970000000  0.4235570000000 1.0
C      1  0.4992220000000  0.4799210000000  0.5968140000000 1.0
C      1  0.4963220000000  0.5440960000000  0.4785970000000 1.0
C      1  0.5071740000000  0.3855910000000  0.5041890000000 1.0
C      1  0.4980910000000  0.4790990000000  0.5179320000000 1.0
C      1  0.5062600000000  0.4467390000000  0.5235930000000 1.0
C      1  0.4985970000000  0.5009430000000  0.5514270000000 1.0
C      1  0.5004590000000  0.4703770000000  0.4080430000000 1.0
C      1  0.4986780000000  0.5786020000000  0.5216250000000 1.0
C      1  0.4860710000000  0.4298040000000  0.5957490000000 1.0
C      1  0.4972770000000  0.5161540000000  0.3934380000000 1.0
C      1  0.4880900000000  0.5109790000000  0.6053170000000 1.0
C      1  0.4990990000000  0.4142670000000  0.5173380000000 1.0
C      1  0.4970700000000  0.5626720000000  0.4501150000000 1.0
C      1  0.5059440000000  0.3885650000000  0.4746060000000 1.0
C      1  0.4955070000000  0.5118570000000  0.4698650000000 1.0
C      1  0.4961850000000  0.4856590000000  0.3779710000000 1.0
C      1  0.4951580000000  0.5937610000000  0.4251470000000 1.0
C      1  0.4988250000000  0.5956290000000  0.4583270000000 1.0
C      1  0.4911510000000  0.5850650000000  0.5727100000000 1.0
C      1  0.4929090000000  0.5365640000000  0.6026690000000 1.0
C      1  0.4883520000000  0.5424720000000  0.5096950000000 1.0
END
