TITL C-3289320-4661-465 0.000173176570706525 125000 -542.105050967725 0 0 98 (C1) n - 1
REM
REM in /nfs/bkarasulu/CARBON/AIRSS/Generating-Clusters/AIREBO/with-SteepDescent/Higher-Symm/SD-CG/HFTN-CG
REM
REM
REM
REM
REM
REM ./C.cell (b20cbc046b6831c77cfcea5457e17084)
REM
REM compiler GCC version 9.2.1 20190827 (Red Hat 9.2.1-1)
REM options -cpp -mtune=generic -march=x86-64 -g -O0 -fpre-include=/usr/include/finclude/math-vector-fortran.h
REM seed 269903769 -2015173982 457611901 375335019 2063525347 -1552552837 1279024279 1215925205 1854411198 -1913643166 -1649771398 44001957 -1952459314 1001361832 441786035 764203927 1593260110 -1911602330 -1900826287 1093729082 1966135240 -706381620 216091294 1227785611 1955169487 1409916754 1271147831 -1426903805 225895396 1717569815 618304498 503005893 -1101688204
REM
CELL 1.54180   50.00000   50.00000   50.00000   90.00000   90.00000   90.00000
LATT -1
SFAC C  
C      1  0.4727480000000  0.5680700000000  0.4732910000000 1.0
C      1  0.4668450000000  0.5638420000000  0.5388370000000 1.0
C      1  0.4703080000000  0.5058740000000  0.5732200000000 1.0
C      1  0.4781830000000  0.4427840000000  0.5604540000000 1.0
C      1  0.4716100000000  0.4301000000000  0.4905560000000 1.0
C      1  0.4678080000000  0.4644390000000  0.4386650000000 1.0
C      1  0.4773700000000  0.5239210000000  0.4206520000000 1.0
C      1  0.5479010000000  0.5530620000000  0.4433800000000 1.0
C      1  0.5402550000000  0.5738670000000  0.5183400000000 1.0
C      1  0.5422550000000  0.5387060000000  0.5640560000000 1.0
C      1  0.5462340000000  0.4806780000000  0.5756140000000 1.0
C      1  0.5464080000000  0.4277350000000  0.5267050000000 1.0
C      1  0.5399350000000  0.4366680000000  0.4535020000000 1.0
C      1  0.5464820000000  0.4974880000000  0.4235210000000 1.0
C      1  0.4673920000000  0.4967650000000  0.4144610000000 1.0
C      1  0.4715680000000  0.5660090000000  0.4417710000000 1.0
C      1  0.4605120000000  0.5802480000000  0.5171670000000 1.0
C      1  0.4640020000000  0.5332510000000  0.5765690000000 1.0
C      1  0.4691720000000  0.4642390000000  0.5778190000000 1.0
C      1  0.4721070000000  0.4149380000000  0.5190400000000 1.0
C      1  0.4608240000000  0.4395150000000  0.4497140000000 1.0
C      1  0.4841390000000  0.4242470000000  0.4512120000000 1.0
C      1  0.4960130000000  0.4905870000000  0.4088190000000 1.0
C      1  0.4987800000000  0.5683110000000  0.4341000000000 1.0
C      1  0.4843310000000  0.5927710000000  0.5090570000000 1.0
C      1  0.4890170000000  0.5460880000000  0.5800570000000 1.0
C      1  0.4948330000000  0.4719490000000  0.5880280000000 1.0
C      1  0.4986340000000  0.4079800000000  0.5248820000000 1.0
C      1  0.5712820000000  0.5306570000000  0.4497040000000 1.0
C      1  0.5535500000000  0.5629460000000  0.4953320000000 1.0
C      1  0.5681650000000  0.5422580000000  0.5426540000000 1.0
C      1  0.5726250000000  0.4969450000000  0.5617510000000 1.0
C      1  0.5611620000000  0.4484740000000  0.5388480000000 1.0
C      1  0.5530110000000  0.4357640000000  0.4786950000000 1.0
C      1  0.5613590000000  0.4763910000000  0.4380810000000 1.0
C      1  0.4976240000000  0.5044570000000  0.5651950000000 1.0
C      1  0.5048180000000  0.4477130000000  0.5520690000000 1.0
C      1  0.5056130000000  0.4299740000000  0.4918280000000 1.0
C      1  0.4960110000000  0.4678900000000  0.4415730000000 1.0
C      1  0.5008950000000  0.5216020000000  0.4386680000000 1.0
C      1  0.5065740000000  0.5674110000000  0.4771340000000 1.0
C      1  0.4949670000000  0.5584530000000  0.5392650000000 1.0
C      1  0.5541450000000  0.4494240000000  0.4329900000000 1.0
C      1  0.5547290000000  0.5245250000000  0.4241870000000 1.0
C      1  0.5402650000000  0.5709850000000  0.4712750000000 1.0
C      1  0.5482320000000  0.5657620000000  0.5435340000000 1.0
C      1  0.5523530000000  0.5140400000000  0.5797800000000 1.0
C      1  0.5627580000000  0.4541420000000  0.5658170000000 1.0
C      1  0.5384680000000  0.4206250000000  0.4971170000000 1.0
C      1  0.5175250000000  0.4769610000000  0.5631820000000 1.0
C      1  0.5146120000000  0.4379730000000  0.5236460000000 1.0
C      1  0.5100810000000  0.4438790000000  0.4611130000000 1.0
C      1  0.5170700000000  0.4938520000000  0.4353380000000 1.0
C      1  0.5160490000000  0.5457000000000  0.4527230000000 1.0
C      1  0.5096360000000  0.5701310000000  0.5109010000000 1.0
C      1  0.5112850000000  0.5345230000000  0.5570950000000 1.0
C      1  0.5139830000000  0.4738200000000  0.4767630000000 1.0
C      1  0.5309560000000  0.4995370000000  0.4658730000000 1.0
C      1  0.5289500000000  0.5303270000000  0.4801800000000 1.0
C      1  0.5135730000000  0.5369130000000  0.5048080000000 1.0
C      1  0.5170160000000  0.5163400000000  0.5289390000000 1.0
C      1  0.5235820000000  0.4825380000000  0.5301740000000 1.0
C      1  0.5260830000000  0.4623800000000  0.5028990000000 1.0
C      1  0.4457150000000  0.5654460000000  0.4944630000000 1.0
C      1  0.4479450000000  0.5433530000000  0.5527670000000 1.0
C      1  0.4448590000000  0.4851510000000  0.5664330000000 1.0
C      1  0.4608800000000  0.4311240000000  0.5393200000000 1.0
C      1  0.4428870000000  0.4409820000000  0.4755300000000 1.0
C      1  0.4430270000000  0.4861000000000  0.4356650000000 1.0
C      1  0.4589830000000  0.5421500000000  0.4317840000000 1.0
C      1  0.4440880000000  0.5276460000000  0.4506390000000 1.0
C      1  0.4488260000000  0.5366060000000  0.4785080000000 1.0
C      1  0.4557330000000  0.5239210000000  0.5268620000000 1.0
C      1  0.4603720000000  0.4919900000000  0.5370820000000 1.0
C      1  0.4608430000000  0.4602040000000  0.5290130000000 1.0
C      1  0.4480470000000  0.4602830000000  0.5016720000000 1.0
C      1  0.4585790000000  0.4988840000000  0.4615670000000 1.0
C      1  0.5733970000000  0.4976300000000  0.5338520000000 1.0
C      1  0.5575730000000  0.4750770000000  0.5229070000000 1.0
C      1  0.5576210000000  0.4649650000000  0.4904350000000 1.0
C      1  0.5667180000000  0.4818520000000  0.4659710000000 1.0
C      1  0.5623740000000  0.5114810000000  0.4712780000000 1.0
C      1  0.5587950000000  0.5308430000000  0.4967990000000 1.0
C      1  0.5714130000000  0.5229570000000  0.5230610000000 1.0
C      1  0.4924590000000  0.4712430000000  0.5223620000000 1.0
C      1  0.4797780000000  0.4629210000000  0.4941330000000 1.0
C      1  0.4842700000000  0.4870080000000  0.4746790000000 1.0
C      1  0.4933980000000  0.5167320000000  0.4684300000000 1.0
C      1  0.4792600000000  0.5366510000000  0.4843800000000 1.0
C      1  0.4829650000000  0.5303730000000  0.5135200000000 1.0
C      1  0.4888790000000  0.5017030000000  0.5263060000000 1.0
C      1  0.4229430000000  0.4682560000000  0.4835430000000 1.0
C      1  0.4268580000000  0.4930330000000  0.4658370000000 1.0
C      1  0.4144120000000  0.5166300000000  0.4794140000000 1.0
C      1  0.4261860000000  0.5379160000000  0.5022860000000 1.0
C      1  0.4237370000000  0.5277280000000  0.5340700000000 1.0
C      1  0.4265380000000  0.4938480000000  0.5376440000000 1.0
C      1  0.4149680000000  0.4778700000000  0.5151660000000 1.0
END
