TITL C-3289324-3781-721 -0.000234334016096478 125000 -641.875127928405 0 0 116 (C1) n - 1
REM
REM in /nfs/bkarasulu/CARBON/AIRSS/Generating-Clusters/AIREBO/with-SteepDescent/Higher-Symm/SD-CG/HFTN-CG
REM
REM
REM
REM
REM
REM ./C.cell (b20cbc046b6831c77cfcea5457e17084)
REM
REM compiler GCC version 9.2.1 20190827 (Red Hat 9.2.1-1)
REM options -cpp -mtune=generic -march=x86-64 -g -O0 -fpre-include=/usr/include/finclude/math-vector-fortran.h
REM seed 704367749 -1598203809 1702517218 1522444683 258494628 1791772546 -520668064 -410209806 -759414796 1291800221 218410768 -1015435140 1314030930 -1117893041 -657097758 -526074508 617056564 -765493749 -1735558968 -539527087 -1041124632 798078710 1833322905 122594856 1444034833 647565540 -1248796712 -251419866 1470682811 -2043670505 -870919996 1190541663 254962797
REM
CELL 1.54180   50.00000   50.00000   50.00000   90.00000   90.00000   90.00000
LATT -1
SFAC C  
C      1  0.4193650000000  0.5439780000000  0.4519000000000 1.0
C      1  0.4172850000000  0.5059460000000  0.5624440000000 1.0
C      1  0.4129330000000  0.4459950000000  0.4788490000000 1.0
C      1  0.5680550000000  0.5388640000000  0.4563430000000 1.0
C      1  0.5798430000000  0.5269530000000  0.5580880000000 1.0
C      1  0.5750050000000  0.4489280000000  0.5068460000000 1.0
C      1  0.5285200000000  0.5713970000000  0.5572540000000 1.0
C      1  0.5390530000000  0.4293180000000  0.5439020000000 1.0
C      1  0.5410630000000  0.4917740000000  0.4316100000000 1.0
C      1  0.4651010000000  0.5552780000000  0.5429430000000 1.0
C      1  0.4550000000000  0.4390010000000  0.5361580000000 1.0
C      1  0.4635880000000  0.4919020000000  0.4203560000000 1.0
C      1  0.4871430000000  0.4821170000000  0.5009400000000 1.0
C      1  0.4828250000000  0.5095610000000  0.4724310000000 1.0
C      1  0.4956850000000  0.5098410000000  0.5163840000000 1.0
C      1  0.5148530000000  0.4708860000000  0.4928950000000 1.0
C      1  0.5161400000000  0.5124290000000  0.4662610000000 1.0
C      1  0.5259150000000  0.5075770000000  0.5207750000000 1.0
C      1  0.4191610000000  0.4395220000000  0.5052820000000 1.0
C      1  0.4386560000000  0.5239980000000  0.4449590000000 1.0
C      1  0.4286220000000  0.5315780000000  0.5650880000000 1.0
C      1  0.5734580000000  0.4219810000000  0.5109060000000 1.0
C      1  0.5575980000000  0.5358400000000  0.4310690000000 1.0
C      1  0.5675830000000  0.5463300000000  0.5739520000000 1.0
C      1  0.5753760000000  0.4955030000000  0.4853650000000 1.0
C      1  0.5935060000000  0.5232440000000  0.4929790000000 1.0
C      1  0.5880230000000  0.4998110000000  0.5170000000000 1.0
C      1  0.4205420000000  0.4923410000000  0.4830410000000 1.0
C      1  0.4225050000000  0.5214160000000  0.4980710000000 1.0
C      1  0.4258370000000  0.4932290000000  0.5167900000000 1.0
C      1  0.4565980000000  0.4728230000000  0.5746060000000 1.0
C      1  0.4570310000000  0.4439740000000  0.4301110000000 1.0
C      1  0.4598130000000  0.5839520000000  0.4883980000000 1.0
C      1  0.5564290000000  0.4755660000000  0.5910090000000 1.0
C      1  0.5719900000000  0.4337810000000  0.4540700000000 1.0
C      1  0.5372160000000  0.5845800000000  0.4696460000000 1.0
C      1  0.5538200000000  0.5614010000000  0.4859140000000 1.0
C      1  0.5575220000000  0.4776900000000  0.5592670000000 1.0
C      1  0.5541490000000  0.4561210000000  0.4434030000000 1.0
C      1  0.4388790000000  0.5660500000000  0.4935370000000 1.0
C      1  0.4365360000000  0.4821100000000  0.5535540000000 1.0
C      1  0.4453940000000  0.4724240000000  0.4414270000000 1.0
C      1  0.4469970000000  0.4310180000000  0.5087620000000 1.0
C      1  0.4566560000000  0.5187940000000  0.4234190000000 1.0
C      1  0.4535350000000  0.5448150000000  0.5671360000000 1.0
C      1  0.5501590000000  0.4114350000000  0.5228570000000 1.0
C      1  0.5361810000000  0.5201280000000  0.4262630000000 1.0
C      1  0.5399450000000  0.5511140000000  0.5709570000000 1.0
C      1  0.5232880000000  0.4515850000000  0.5150100000000 1.0
C      1  0.5014860000000  0.4946050000000  0.4412770000000 1.0
C      1  0.5203980000000  0.5412530000000  0.5178630000000 1.0
C      1  0.4834760000000  0.4754310000000  0.5313270000000 1.0
C      1  0.4745890000000  0.4803590000000  0.4569970000000 1.0
C      1  0.4903750000000  0.5370580000000  0.5036200000000 1.0
C      1  0.5845180000000  0.5474080000000  0.4814850000000 1.0
C      1  0.5796230000000  0.4962120000000  0.5498950000000 1.0
C      1  0.5698290000000  0.4772180000000  0.4218360000000 1.0
C      1  0.4160730000000  0.5490440000000  0.4801520000000 1.0
C      1  0.3915740000000  0.4999200000000  0.5699230000000 1.0
C      1  0.4206780000000  0.4752360000000  0.4221010000000 1.0
C      1  0.4905120000000  0.5418740000000  0.4743490000000 1.0
C      1  0.4819340000000  0.5046460000000  0.5442880000000 1.0
C      1  0.4845280000000  0.4537500000000  0.4699770000000 1.0
C      1  0.5156420000000  0.5449010000000  0.4552180000000 1.0
C      1  0.5283950000000  0.5039230000000  0.5520060000000 1.0
C      1  0.5160280000000  0.4527560000000  0.4682670000000 1.0
C      1  0.5126090000000  0.4503930000000  0.5468200000000 1.0
C      1  0.5168620000000  0.4742390000000  0.4224660000000 1.0
C      1  0.5141890000000  0.5702280000000  0.5300220000000 1.0
C      1  0.4794130000000  0.4500200000000  0.5485180000000 1.0
C      1  0.4844300000000  0.4732860000000  0.4122940000000 1.0
C      1  0.4823700000000  0.5745730000000  0.5305710000000 1.0
C      1  0.5239820000000  0.4751750000000  0.5644540000000 1.0
C      1  0.5249590000000  0.4442920000000  0.4304900000000 1.0
C      1  0.5256620000000  0.5760070000000  0.4989550000000 1.0
C      1  0.4904710000000  0.4736930000000  0.5702840000000 1.0
C      1  0.4909790000000  0.4453790000000  0.4314040000000 1.0
C      1  0.4916650000000  0.5765740000000  0.4977360000000 1.0
C      1  0.4706870000000  0.5678870000000  0.4380440000000 1.0
C      1  0.4720220000000  0.5296200000000  0.5851710000000 1.0
C      1  0.4611120000000  0.4241860000000  0.4862550000000 1.0
C      1  0.5241000000000  0.5821440000000  0.4215240000000 1.0
C      1  0.5284160000000  0.5151820000000  0.6034520000000 1.0
C      1  0.5360230000000  0.4111990000000  0.4779420000000 1.0
C      1  0.4434890000000  0.5076710000000  0.4669870000000 1.0
C      1  0.4636320000000  0.5328400000000  0.5229280000000 1.0
C      1  0.4308260000000  0.4617310000000  0.5285360000000 1.0
C      1  0.5525210000000  0.4842870000000  0.4628200000000 1.0
C      1  0.5529000000000  0.5359520000000  0.5157460000000 1.0
C      1  0.5493650000000  0.4604960000000  0.5351180000000 1.0
C      1  0.4801220000000  0.5702770000000  0.4662840000000 1.0
C      1  0.4741480000000  0.4958760000000  0.5902260000000 1.0
C      1  0.4719240000000  0.4275980000000  0.4541850000000 1.0
C      1  0.5249590000000  0.5728750000000  0.4476700000000 1.0
C      1  0.5488130000000  0.4966970000000  0.6062530000000 1.0
C      1  0.5300800000000  0.4284850000000  0.4587030000000 1.0
C      1  0.4511280000000  0.5362030000000  0.4936620000000 1.0
C      1  0.4498380000000  0.5074650000000  0.5371040000000 1.0
C      1  0.4259330000000  0.4669610000000  0.4680030000000 1.0
C      1  0.5501430000000  0.5276850000000  0.4833890000000 1.0
C      1  0.5759340000000  0.5289150000000  0.5282940000000 1.0
C      1  0.5570770000000  0.4769180000000  0.5063460000000 1.0
C      1  0.4809940000000  0.5689040000000  0.4080610000000 1.0
C      1  0.4825160000000  0.5170910000000  0.6140350000000 1.0
C      1  0.4881310000000  0.3977030000000  0.5028160000000 1.0
C      1  0.5040650000000  0.5833650000000  0.4028090000000 1.0
C      1  0.5079750000000  0.5205960000000  0.6217560000000 1.0
C      1  0.5064770000000  0.3935030000000  0.5226160000000 1.0
C      1  0.4936180000000  0.4260120000000  0.4875440000000 1.0
C      1  0.4784220000000  0.5388120000000  0.4214260000000 1.0
C      1  0.4945120000000  0.5198560000000  0.5658950000000 1.0
C      1  0.5214200000000  0.4195030000000  0.5065790000000 1.0
C      1  0.5046940000000  0.5267970000000  0.4307580000000 1.0
C      1  0.5240730000000  0.5261660000000  0.5752080000000 1.0
C      1  0.5357150000000  0.4975560000000  0.4897790000000 1.0
C      1  0.4615950000000  0.5039020000000  0.4955260000000 1.0
END
