TITL C-3289323-3850-265 4.73674341316012 125000 -854.159005249227 0 0 164 (C1) n - 1
REM
REM in /nfs/bkarasulu/CARBON/AIRSS/Generating-Clusters/AIREBO/with-SteepDescent/Higher-Symm/SD-CG/HFTN-CG
REM
REM
REM
REM
REM
REM ./C.cell (b20cbc046b6831c77cfcea5457e17084)
REM
REM compiler GCC version 9.2.1 20190827 (Red Hat 9.2.1-1)
REM options -cpp -mtune=generic -march=x86-64 -g -O0 -fpre-include=/usr/include/finclude/math-vector-fortran.h
REM seed -1862623472 -1160270276 -762768642 1130569913 -1366082667 -1222937790 413300424 27811892 1050875484 428960949 -933616727 -90772661 -1020543319 1735156485 -1801829122 -105298759 -1941797952 1973041000 287423770 -1551309442 -409955400 -800480926 1563256043 -589976903 1908201309 -1473518286 -779541603 -1288058177 -1570857982 -594069146 -93427818 569648589 -259851735
REM
CELL 1.54180   50.00000   50.00000   50.00000   90.00000   90.00000   90.00000
LATT -1
SFAC C  
C      1  0.4514170000000  0.4615570000000  0.4338110000000 1.0
C      1  0.5358940000000  0.4523180000000  0.5676630000000 1.0
C      1  0.5468760000000  0.5352750000000  0.4339060000000 1.0
C      1  0.4587400000000  0.5512580000000  0.5713900000000 1.0
C      1  0.5872000000000  0.4445420000000  0.4761650000000 1.0
C      1  0.5554090000000  0.5894340000000  0.5234750000000 1.0
C      1  0.4127660000000  0.5559230000000  0.4771020000000 1.0
C      1  0.4448260000000  0.4119050000000  0.5243030000000 1.0
C      1  0.4611470000000  0.4535690000000  0.5859360000000 1.0
C      1  0.5438150000000  0.4624770000000  0.4148220000000 1.0
C      1  0.5332040000000  0.5510010000000  0.5812640000000 1.0
C      1  0.4550280000000  0.5370630000000  0.4159220000000 1.0
C      1  0.5937930000000  0.5599220000000  0.5230470000000 1.0
C      1  0.4419710000000  0.5925170000000  0.4778480000000 1.0
C      1  0.4075870000000  0.4385690000000  0.5218420000000 1.0
C      1  0.5577340000000  0.4072940000000  0.4757680000000 1.0
C      1  0.5271480000000  0.5857770000000  0.4773470000000 1.0
C      1  0.4161660000000  0.5244690000000  0.5206780000000 1.0
C      1  0.4741870000000  0.4129950000000  0.4783360000000 1.0
C      1  0.5850840000000  0.4740430000000  0.5218710000000 1.0
C      1  0.5383060000000  0.5106710000000  0.5644940000000 1.0
C      1  0.4889440000000  0.5392720000000  0.4370690000000 1.0
C      1  0.4608920000000  0.4868710000000  0.5639050000000 1.0
C      1  0.5101720000000  0.4600530000000  0.4366580000000 1.0
C      1  0.5070830000000  0.5560640000000  0.4136780000000 1.0
C      1  0.4405550000000  0.5040410000000  0.5851110000000 1.0
C      1  0.4922410000000  0.4427200000000  0.4135000000000 1.0
C      1  0.5566220000000  0.4923700000000  0.5865650000000 1.0
C      1  0.4126230000000  0.4827160000000  0.4612410000000 1.0
C      1  0.5206080000000  0.4110380000000  0.5372130000000 1.0
C      1  0.5873230000000  0.5191010000000  0.4629430000000 1.0
C      1  0.4827230000000  0.5946680000000  0.5397220000000 1.0
C      1  0.5545250000000  0.5700010000000  0.5757260000000 1.0
C      1  0.4328310000000  0.5513780000000  0.4257870000000 1.0
C      1  0.4469160000000  0.4313620000000  0.5756210000000 1.0
C      1  0.5664440000000  0.4486990000000  0.4245460000000 1.0
C      1  0.5283570000000  0.4636510000000  0.5391150000000 1.0
C      1  0.5354600000000  0.5300710000000  0.4632280000000 1.0
C      1  0.4703110000000  0.5407260000000  0.5411480000000 1.0
C      1  0.4640220000000  0.4690500000000  0.4617110000000 1.0
C      1  0.4376460000000  0.4636600000000  0.5551170000000 1.0
C      1  0.5344070000000  0.4375270000000  0.4445430000000 1.0
C      1  0.5606740000000  0.5359230000000  0.5564580000000 1.0
C      1  0.4653850000000  0.5625180000000  0.4449100000000 1.0
C      1  0.4315540000000  0.4316810000000  0.5452440000000 1.0
C      1  0.5665470000000  0.4325750000000  0.4545530000000 1.0
C      1  0.5688740000000  0.5670590000000  0.5453240000000 1.0
C      1  0.4335220000000  0.5679690000000  0.4555310000000 1.0
C      1  0.5416560000000  0.4668060000000  0.5941030000000 1.0
C      1  0.5330760000000  0.5401400000000  0.4067500000000 1.0
C      1  0.4538900000000  0.5327550000000  0.5962560000000 1.0
C      1  0.4655270000000  0.4571930000000  0.4068020000000 1.0
C      1  0.5620810000000  0.5763580000000  0.4923060000000 1.0
C      1  0.4254050000000  0.5603790000000  0.5084550000000 1.0
C      1  0.4383120000000  0.4200570000000  0.4914910000000 1.0
C      1  0.5765280000000  0.4385150000000  0.5081310000000 1.0
C      1  0.4034110000000  0.4384990000000  0.4880860000000 1.0
C      1  0.5607040000000  0.4023240000000  0.5087670000000 1.0
C      1  0.5983050000000  0.5609240000000  0.4893580000000 1.0
C      1  0.4416080000000  0.5962680000000  0.5116560000000 1.0
C      1  0.5664940000000  0.4664940000000  0.5633300000000 1.0
C      1  0.5332840000000  0.5655460000000  0.4369790000000 1.0
C      1  0.4342420000000  0.5309190000000  0.5623180000000 1.0
C      1  0.4670830000000  0.4317930000000  0.4368580000000 1.0
C      1  0.4958340000000  0.4325810000000  0.4510700000000 1.0
C      1  0.5650930000000  0.4970780000000  0.5485390000000 1.0
C      1  0.5042140000000  0.5664510000000  0.4510110000000 1.0
C      1  0.4363880000000  0.5022320000000  0.5458920000000 1.0
C      1  0.4353920000000  0.5058020000000  0.4380500000000 1.0
C      1  0.5001610000000  0.4358350000000  0.5605610000000 1.0
C      1  0.5623020000000  0.4988140000000  0.4395780000000 1.0
C      1  0.5069620000000  0.5588460000000  0.5613780000000 1.0
C      1  0.4855090000000  0.4411180000000  0.5305520000000 1.0
C      1  0.5566150000000  0.4864040000000  0.4703590000000 1.0
C      1  0.5163110000000  0.5591220000000  0.5318370000000 1.0
C      1  0.4439090000000  0.5130620000000  0.4695790000000 1.0
C      1  0.5306330000000  0.4009550000000  0.4700140000000 1.0
C      1  0.6012910000000  0.5325260000000  0.5276660000000 1.0
C      1  0.4686900000000  0.5992370000000  0.4701810000000 1.0
C      1  0.3990240000000  0.4656600000000  0.5268420000000 1.0
C      1  0.4686690000000  0.5120650000000  0.4345200000000 1.0
C      1  0.4876480000000  0.4663860000000  0.5688400000000 1.0
C      1  0.5307420000000  0.4870650000000  0.4343330000000 1.0
C      1  0.5094810000000  0.5278900000000  0.5699450000000 1.0
C      1  0.4328710000000  0.4533170000000  0.4947040000000 1.0
C      1  0.5453520000000  0.4323370000000  0.5043400000000 1.0
C      1  0.5687260000000  0.5453910000000  0.4956750000000 1.0
C      1  0.4567640000000  0.5673640000000  0.5050700000000 1.0
C      1  0.3979110000000  0.5122570000000  0.4981530000000 1.0
C      1  0.4885720000000  0.3963920000000  0.5019540000000 1.0
C      1  0.6029220000000  0.4875180000000  0.4981770000000 1.0
C      1  0.5127840000000  0.6044400000000  0.4980390000000 1.0
C      1  0.4424260000000  0.4329430000000  0.4602710000000 1.0
C      1  0.5748540000000  0.4415240000000  0.5419590000000 1.0
C      1  0.5583830000000  0.5733910000000  0.4586050000000 1.0
C      1  0.4294480000000  0.5573170000000  0.5414190000000 1.0
C      1  0.5509140000000  0.5001880000000  0.5072950000000 1.0
C      1  0.4994410000000  0.5511130000000  0.4969040000000 1.0
C      1  0.4484400000000  0.4989740000000  0.5066970000000 1.0
C      1  0.4998640000000  0.4495310000000  0.4944450000000 1.0
C      1  0.4415270000000  0.4804810000000  0.4790090000000 1.0
C      1  0.5182960000000  0.4405030000000  0.5215580000000 1.0
C      1  0.5585600000000  0.5189560000000  0.4799890000000 1.0
C      1  0.4837020000000  0.5645840000000  0.5238810000000 1.0
C      1  0.4664420000000  0.5599370000000  0.4767350000000 1.0
C      1  0.4388100000000  0.4643430000000  0.5233930000000 1.0
C      1  0.5338320000000  0.4402130000000  0.4762540000000 1.0
C      1  0.5615540000000  0.5344330000000  0.5239630000000 1.0
C      1  0.4163160000000  0.4502330000000  0.4585470000000 1.0
C      1  0.5539900000000  0.4156650000000  0.5395460000000 1.0
C      1  0.5839110000000  0.5525000000000  0.4594850000000 1.0
C      1  0.4512240000000  0.5821330000000  0.5416480000000 1.0
C      1  0.5418780000000  0.5217750000000  0.5964400000000 1.0
C      1  0.4783670000000  0.5413770000000  0.3987410000000 1.0
C      1  0.4543870000000  0.4773360000000  0.6019260000000 1.0
C      1  0.5203990000000  0.4580360000000  0.3981960000000 1.0
C      1  0.5086490000000  0.4893580000000  0.5380170000000 1.0
C      1  0.5107490000000  0.5101060000000  0.4639360000000 1.0
C      1  0.4874850000000  0.5125660000000  0.5379060000000 1.0
C      1  0.4888550000000  0.4890600000000  0.4634320000000 1.0
C      1  0.4789280000000  0.4883740000000  0.4959800000000 1.0
C      1  0.5105130000000  0.4799310000000  0.5053510000000 1.0
C      1  0.5206930000000  0.5114010000000  0.4964500000000 1.0
C      1  0.4887560000000  0.5197680000000  0.5046080000000 1.0
C      1  0.4760630000000  0.4984600000000  0.6016450000000 1.0
C      1  0.4992560000000  0.4790620000000  0.3991420000000 1.0
C      1  0.5197350000000  0.4997200000000  0.5992340000000 1.0
C      1  0.4990730000000  0.5199170000000  0.3994390000000 1.0
C      1  0.5086300000000  0.6108260000000  0.5425610000000 1.0
C      1  0.4048230000000  0.5119110000000  0.4527230000000 1.0
C      1  0.4910780000000  0.4048380000000  0.5477540000000 1.0
C      1  0.5932370000000  0.4897470000000  0.4527160000000 1.0
C      1  0.4857920000000  0.4828760000000  0.4301400000000 1.0
C      1  0.5152750000000  0.4863230000000  0.5712320000000 1.0
C      1  0.5123740000000  0.5155160000000  0.4304270000000 1.0
C      1  0.4813730000000  0.5129810000000  0.5713520000000 1.0
C      1  0.4794870000000  0.5727370000000  0.5627900000000 1.0
C      1  0.4240850000000  0.4742220000000  0.4322830000000 1.0
C      1  0.5307880000000  0.4220420000000  0.5660490000000 1.0
C      1  0.5769380000000  0.5290290000000  0.4339800000000 1.0
C      1  0.4701120000000  0.4667900000000  0.5207340000000 1.0
C      1  0.5311130000000  0.4708950000000  0.4798450000000 1.0
C      1  0.5301470000000  0.5333330000000  0.5206610000000 1.0
C      1  0.4695020000000  0.5289550000000  0.4781290000000 1.0
C      1  0.4782830000000  0.4454110000000  0.4727590000000 1.0
C      1  0.5521880000000  0.4768440000000  0.5276250000000 1.0
C      1  0.5205000000000  0.5539840000000  0.4738310000000 1.0
C      1  0.4496990000000  0.5239490000000  0.5262810000000 1.0
C      1  0.4746500000000  0.3957920000000  0.5269540000000 1.0
C      1  0.6029680000000  0.4736830000000  0.4733320000000 1.0
C      1  0.5265110000000  0.6076730000000  0.5223870000000 1.0
C      1  0.3964750000000  0.5271920000000  0.4742840000000 1.0
C      1  0.4108530000000  0.4823580000000  0.5490350000000 1.0
C      1  0.5168660000000  0.4086640000000  0.4445090000000 1.0
C      1  0.5881550000000  0.5182690000000  0.5498030000000 1.0
C      1  0.4835580000000  0.5909100000000  0.4450400000000 1.0
C      1  0.5115590000000  0.4180100000000  0.4892870000000 1.0
C      1  0.5828380000000  0.5114010000000  0.5107580000000 1.0
C      1  0.4893450000000  0.5823850000000  0.4881380000000 1.0
C      1  0.4169150000000  0.4865820000000  0.5098010000000 1.0
C      1  0.5324710000000  0.5711910000000  0.5076080000000 1.0
C      1  0.4320130000000  0.5319750000000  0.4915380000000 1.0
C      1  0.4669610000000  0.4294320000000  0.5072250000000 1.0
C      1  0.5687840000000  0.4676030000000  0.4927210000000 1.0
END
