TITL C-3289321-8710-260 0.00209525993508941 125000 -360.687450640096 0 0 63 (C1) n - 1
REM
REM in /nfs/bkarasulu/CARBON/AIRSS/Generating-Clusters/AIREBO/with-SteepDescent/Higher-Symm/SD-CG/HFTN-CG
REM
REM
REM
REM
REM
REM ./C.cell (b20cbc046b6831c77cfcea5457e17084)
REM
REM compiler GCC version 9.2.1 20190827 (Red Hat 9.2.1-1)
REM options -cpp -mtune=generic -march=x86-64 -g -O0 -fpre-include=/usr/include/finclude/math-vector-fortran.h
REM seed 1691352949 1952479669 1444256491 665865489 362745310 1619116872 -538162943 1256364561 -1711882815 251053325 -933772986 221162420 -1109539392 -1106693480 -868464247 1084980352 100748545 292161607 2087091329 -1472927440 -1413142911 1417783817 1923645505 -1292471770 -1599676551 1052040086 -1976314598 1888815000 -568702559 935991635 1506747071 1593681107 2109100816
REM
CELL 1.54180   50.00000   50.00000   50.00000   90.00000   90.00000   90.00000
LATT -1
SFAC C  
C      1  0.5061160000000  0.4709010000000  0.4274180000000 1.0
C      1  0.5049880000000  0.5208470000000  0.4242510000000 1.0
C      1  0.5123250000000  0.5524280000000  0.4633860000000 1.0
C      1  0.5102970000000  0.5687630000000  0.5128500000000 1.0
C      1  0.5062980000000  0.5477250000000  0.5556660000000 1.0
C      1  0.5098690000000  0.5121570000000  0.5735110000000 1.0
C      1  0.5114050000000  0.4594990000000  0.5551310000000 1.0
C      1  0.5093690000000  0.4393260000000  0.5147870000000 1.0
C      1  0.5083050000000  0.4386350000000  0.4634520000000 1.0
C      1  0.5553220000000  0.5024970000000  0.5615160000000 1.0
C      1  0.5572470000000  0.4758650000000  0.5560480000000 1.0
C      1  0.5569050000000  0.4354840000000  0.5026560000000 1.0
C      1  0.5555350000000  0.4405700000000  0.4759020000000 1.0
C      1  0.5615600000000  0.4769280000000  0.4212840000000 1.0
C      1  0.5568370000000  0.5038950000000  0.4226940000000 1.0
C      1  0.5560090000000  0.5371680000000  0.4802530000000 1.0
C      1  0.5553190000000  0.5529070000000  0.5025840000000 1.0
C      1  0.5529540000000  0.5692370000000  0.5692950000000 1.0
C      1  0.4869380000000  0.4950100000000  0.4228550000000 1.0
C      1  0.4959570000000  0.5495040000000  0.4376560000000 1.0
C      1  0.4966870000000  0.5672910000000  0.4874440000000 1.0
C      1  0.4925450000000  0.5648520000000  0.5343410000000 1.0
C      1  0.4850740000000  0.5304340000000  0.5737500000000 1.0
C      1  0.5030530000000  0.4829560000000  0.5747610000000 1.0
C      1  0.4919830000000  0.4344210000000  0.5422830000000 1.0
C      1  0.4943790000000  0.4311920000000  0.4875430000000 1.0
C      1  0.4912230000000  0.4485340000000  0.4434130000000 1.0
C      1  0.4664370000000  0.4374040000000  0.4895600000000 1.0
C      1  0.4640610000000  0.4570950000000  0.4550710000000 1.0
C      1  0.4643120000000  0.4924380000000  0.4363450000000 1.0
C      1  0.4696740000000  0.5311630000000  0.4440990000000 1.0
C      1  0.4688120000000  0.5603200000000  0.4869860000000 1.0
C      1  0.4670460000000  0.5517850000000  0.5256940000000 1.0
C      1  0.4580430000000  0.5283700000000  0.5655070000000 1.0
C      1  0.4732370000000  0.4920330000000  0.5704530000000 1.0
C      1  0.4652940000000  0.4536850000000  0.5398270000000 1.0
C      1  0.4505620000000  0.5354740000000  0.5015720000000 1.0
C      1  0.4437500000000  0.5305580000000  0.5347330000000 1.0
C      1  0.4479030000000  0.5000920000000  0.5492460000000 1.0
C      1  0.4388000000000  0.4739340000000  0.5375850000000 1.0
C      1  0.4464090000000  0.4514840000000  0.5131540000000 1.0
C      1  0.4468870000000  0.4645440000000  0.4829850000000 1.0
C      1  0.4381500000000  0.4786340000000  0.4531740000000 1.0
C      1  0.4420370000000  0.5123750000000  0.4515760000000 1.0
C      1  0.4497080000000  0.5400090000000  0.4686150000000 1.0
C      1  0.5016170000000  0.5279090000000  0.4843670000000 1.0
C      1  0.4899070000000  0.5337390000000  0.5081350000000 1.0
C      1  0.4950550000000  0.5249640000000  0.5354520000000 1.0
C      1  0.4871440000000  0.5006330000000  0.5427140000000 1.0
C      1  0.4908790000000  0.4727380000000  0.5326600000000 1.0
C      1  0.4959320000000  0.4680430000000  0.5025030000000 1.0
C      1  0.4865500000000  0.4700210000000  0.4767640000000 1.0
C      1  0.5021970000000  0.4848090000000  0.4582070000000 1.0
C      1  0.4964540000000  0.5143210000000  0.4565580000000 1.0
C      1  0.5349700000000  0.5213230000000  0.5642000000000 1.0
C      1  0.5397570000000  0.4571410000000  0.5455270000000 1.0
C      1  0.5386070000000  0.4426980000000  0.5220660000000 1.0
C      1  0.5348910000000  0.4496910000000  0.4598140000000 1.0
C      1  0.5359630000000  0.4751770000000  0.4410430000000 1.0
C      1  0.5328970000000  0.5117850000000  0.4403530000000 1.0
C      1  0.5372590000000  0.5325510000000  0.4615220000000 1.0
C      1  0.5364540000000  0.5599720000000  0.5217160000000 1.0
C      1  0.5378420000000  0.5520610000000  0.5534900000000 1.0
END
