TITL C-3289328-6581-586 -0.00150393813525851 125000 -918.578875596059 0 0 168 (C1) n - 1
REM
REM in /nfs/bkarasulu/CARBON/AIRSS/Generating-Clusters/AIREBO/with-SteepDescent/Higher-Symm/SD-CG/HFTN-CG
REM
REM
REM
REM
REM
REM ./C.cell (b20cbc046b6831c77cfcea5457e17084)
REM
REM compiler GCC version 9.2.1 20190827 (Red Hat 9.2.1-1)
REM options -cpp -mtune=generic -march=x86-64 -g -O0 -fpre-include=/usr/include/finclude/math-vector-fortran.h
REM seed 781339508 263359210 617289321 529749368 -1764233398 -1092465677 239908923 946431859 167416551 945335193 -1671638159 1156606603 -207405960 1104981812 -2047032916 2080465625 -1890390296 69002794 735131108 -1757708041 546443093 -1338363900 722861262 1939794025 -1085138842 -534396672 189387121 -1076156397 2129685947 584852069 -740930425 1695609144 1114590502
REM
CELL 1.54180   50.00000   50.00000   50.00000   90.00000   90.00000   90.00000
LATT -1
SFAC C  
C      1  0.5264350000000  0.4958570000000  0.5233500000000 1.0
C      1  0.4904650000000  0.5024060000000  0.4724950000000 1.0
C      1  0.5176960000000  0.5228240000000  0.4781860000000 1.0
C      1  0.4869470000000  0.4929780000000  0.5253860000000 1.0
C      1  0.4495720000000  0.5957690000000  0.4571240000000 1.0
C      1  0.5373630000000  0.5924350000000  0.5510590000000 1.0
C      1  0.4414970000000  0.5835810000000  0.5344310000000 1.0
C      1  0.5479350000000  0.5921440000000  0.4633310000000 1.0
C      1  0.5229370000000  0.5228980000000  0.4445900000000 1.0
C      1  0.4850180000000  0.5316320000000  0.5604520000000 1.0
C      1  0.5278910000000  0.5055990000000  0.5558500000000 1.0
C      1  0.4814830000000  0.5205470000000  0.4451630000000 1.0
C      1  0.4396110000000  0.4496150000000  0.5331240000000 1.0
C      1  0.5716300000000  0.4546440000000  0.4749670000000 1.0
C      1  0.4398060000000  0.4526420000000  0.4742730000000 1.0
C      1  0.5798280000000  0.4534340000000  0.5255580000000 1.0
C      1  0.5776680000000  0.3859060000000  0.4352720000000 1.0
C      1  0.5159540000000  0.4224670000000  0.5763080000000 1.0
C      1  0.4874060000000  0.4134150000000  0.5768660000000 1.0
C      1  0.5512280000000  0.4028220000000  0.4353560000000 1.0
C      1  0.5691410000000  0.3819240000000  0.4638150000000 1.0
C      1  0.5118900000000  0.4049080000000  0.5470930000000 1.0
C      1  0.4779480000000  0.4031810000000  0.5482600000000 1.0
C      1  0.5386450000000  0.3954330000000  0.4661920000000 1.0
C      1  0.5210640000000  0.5631490000000  0.4693250000000 1.0
C      1  0.4778810000000  0.5434800000000  0.5213370000000 1.0
C      1  0.5300360000000  0.5511320000000  0.5271050000000 1.0
C      1  0.4701450000000  0.5503370000000  0.4688690000000 1.0
C      1  0.4420250000000  0.4690870000000  0.5693880000000 1.0
C      1  0.5690750000000  0.4600170000000  0.4414910000000 1.0
C      1  0.4231710000000  0.4643420000000  0.4493690000000 1.0
C      1  0.5754690000000  0.4652170000000  0.5571690000000 1.0
C      1  0.4732260000000  0.6043040000000  0.4581150000000 1.0
C      1  0.5123940000000  0.6029690000000  0.5566470000000 1.0
C      1  0.4597650000000  0.5973490000000  0.5491470000000 1.0
C      1  0.5254550000000  0.6026900000000  0.4652260000000 1.0
C      1  0.4803830000000  0.4798320000000  0.5560600000000 1.0
C      1  0.5308510000000  0.4706320000000  0.4463900000000 1.0
C      1  0.4819080000000  0.4784910000000  0.4498630000000 1.0
C      1  0.5359800000000  0.4680460000000  0.5404260000000 1.0
C      1  0.5474860000000  0.5340230000000  0.4762920000000 1.0
C      1  0.4651950000000  0.5171060000000  0.5289420000000 1.0
C      1  0.5449510000000  0.5240850000000  0.5248780000000 1.0
C      1  0.4684940000000  0.5227220000000  0.4886380000000 1.0
C      1  0.5284850000000  0.5058830000000  0.5957250000000 1.0
C      1  0.4811190000000  0.4989590000000  0.4066680000000 1.0
C      1  0.5334240000000  0.4958690000000  0.4039150000000 1.0
C      1  0.4781670000000  0.5032970000000  0.6003390000000 1.0
C      1  0.4916690000000  0.4770200000000  0.5942940000000 1.0
C      1  0.5233740000000  0.4692570000000  0.4071450000000 1.0
C      1  0.4935740000000  0.4698380000000  0.4067780000000 1.0
C      1  0.5211000000000  0.4789400000000  0.5895330000000 1.0
C      1  0.4858900000000  0.4535780000000  0.5367850000000 1.0
C      1  0.5172570000000  0.4424960000000  0.4505240000000 1.0
C      1  0.4886260000000  0.4471410000000  0.4583010000000 1.0
C      1  0.5145870000000  0.4479970000000  0.5351320000000 1.0
C      1  0.5882390000000  0.5374660000000  0.5310310000000 1.0
C      1  0.4087880000000  0.5363780000000  0.4739990000000 1.0
C      1  0.5905250000000  0.5295430000000  0.4708750000000 1.0
C      1  0.4060980000000  0.5277330000000  0.5270270000000 1.0
C      1  0.5497600000000  0.5687510000000  0.5422480000000 1.0
C      1  0.4436960000000  0.5679160000000  0.4668440000000 1.0
C      1  0.5531380000000  0.5613440000000  0.4598080000000 1.0
C      1  0.4318050000000  0.5568200000000  0.5174410000000 1.0
C      1  0.4700140000000  0.4587010000000  0.5807790000000 1.0
C      1  0.5450390000000  0.4505870000000  0.4229140000000 1.0
C      1  0.4660310000000  0.4663310000000  0.4231720000000 1.0
C      1  0.5442390000000  0.4622970000000  0.5707930000000 1.0
C      1  0.5487920000000  0.5193080000000  0.5789850000000 1.0
C      1  0.4583500000000  0.5152120000000  0.4208910000000 1.0
C      1  0.5455400000000  0.5195290000000  0.4194040000000 1.0
C      1  0.4620160000000  0.5273350000000  0.5825200000000 1.0
C      1  0.5315140000000  0.4247670000000  0.4710540000000 1.0
C      1  0.4632490000000  0.4310050000000  0.5363580000000 1.0
C      1  0.5232560000000  0.4217410000000  0.5198180000000 1.0
C      1  0.4615490000000  0.4315920000000  0.4692960000000 1.0
C      1  0.5476500000000  0.4787580000000  0.4748780000000 1.0
C      1  0.4510070000000  0.4811160000000  0.5389730000000 1.0
C      1  0.5624610000000  0.4794110000000  0.5223370000000 1.0
C      1  0.4558660000000  0.4799320000000  0.4716900000000 1.0
C      1  0.6000090000000  0.4985470000000  0.4737140000000 1.0
C      1  0.4008340000000  0.4948010000000  0.5337520000000 1.0
C      1  0.5959310000000  0.5083600000000  0.5339520000000 1.0
C      1  0.4087500000000  0.5089370000000  0.4753970000000 1.0
C      1  0.4400250000000  0.4595190000000  0.4238510000000 1.0
C      1  0.5418710000000  0.4318160000000  0.5770480000000 1.0
C      1  0.4700700000000  0.4305040000000  0.5904610000000 1.0
C      1  0.5448700000000  0.4216230000000  0.4162540000000 1.0
C      1  0.4150620000000  0.4674570000000  0.5487240000000 1.0
C      1  0.5982090000000  0.4683670000000  0.4581560000000 1.0
C      1  0.3974960000000  0.4527280000000  0.4467500000000 1.0
C      1  0.6027080000000  0.4751310000000  0.5364550000000 1.0
C      1  0.4364240000000  0.4986630000000  0.5718100000000 1.0
C      1  0.5759670000000  0.4921500000000  0.4502160000000 1.0
C      1  0.4223910000000  0.4946850000000  0.4559370000000 1.0
C      1  0.5860120000000  0.4964140000000  0.5642040000000 1.0
C      1  0.5215460000000  0.3801820000000  0.4854350000000 1.0
C      1  0.4691820000000  0.4055090000000  0.5160580000000 1.0
C      1  0.5218750000000  0.3877690000000  0.5189590000000 1.0
C      1  0.4602380000000  0.4088000000000  0.4848410000000 1.0
C      1  0.4518110000000  0.5051570000000  0.4516880000000 1.0
C      1  0.5589010000000  0.5003080000000  0.5457350000000 1.0
C      1  0.4480500000000  0.5187340000000  0.5527320000000 1.0
C      1  0.5505880000000  0.5081000000000  0.4579520000000 1.0
C      1  0.5422420000000  0.4145070000000  0.3898180000000 1.0
C      1  0.4546010000000  0.4231760000000  0.6118090000000 1.0
C      1  0.5638760000000  0.4180530000000  0.5856650000000 1.0
C      1  0.4269690000000  0.4489930000000  0.4020710000000 1.0
C      1  0.5761250000000  0.5422170000000  0.4497560000000 1.0
C      1  0.4265270000000  0.5412800000000  0.5468770000000 1.0
C      1  0.5721100000000  0.5526940000000  0.5500400000000 1.0
C      1  0.4249280000000  0.5479990000000  0.4552090000000 1.0
C      1  0.4357090000000  0.5480710000000  0.5763870000000 1.0
C      1  0.5689880000000  0.5348600000000  0.4229230000000 1.0
C      1  0.4334630000000  0.5349660000000  0.4323330000000 1.0
C      1  0.5659830000000  0.5410440000000  0.5755930000000 1.0
C      1  0.3951310000000  0.4471810000000  0.5081380000000 1.0
C      1  0.6012530000000  0.3893200000000  0.4977980000000 1.0
C      1  0.4973140000000  0.5908270000000  0.4688270000000 1.0
C      1  0.4871520000000  0.6016190000000  0.5440230000000 1.0
C      1  0.5981010000000  0.4894800000000  0.5057560000000 1.0
C      1  0.3879040000000  0.4635030000000  0.5306850000000 1.0
C      1  0.6066270000000  0.5694840000000  0.4979020000000 1.0
C      1  0.3828670000000  0.5681700000000  0.5019290000000 1.0
C      1  0.4596450000000  0.5627370000000  0.4987630000000 1.0
C      1  0.5254070000000  0.5670860000000  0.5015250000000 1.0
C      1  0.5675100000000  0.4958510000000  0.4965480000000 1.0
C      1  0.4316900000000  0.4822250000000  0.5117970000000 1.0
C      1  0.4992910000000  0.5463010000000  0.4516930000000 1.0
C      1  0.5030030000000  0.5497250000000  0.5409140000000 1.0
C      1  0.5875100000000  0.4107380000000  0.4997010000000 1.0
C      1  0.3802640000000  0.4278970000000  0.4959370000000 1.0
C      1  0.5074870000000  0.5147860000000  0.4087420000000 1.0
C      1  0.5023530000000  0.5238680000000  0.5954980000000 1.0
C      1  0.5073740000000  0.5640400000000  0.3831880000000 1.0
C      1  0.5032680000000  0.5660250000000  0.5689690000000 1.0
C      1  0.5921950000000  0.5458050000000  0.4999820000000 1.0
C      1  0.4036910000000  0.5496290000000  0.5010860000000 1.0
C      1  0.5738000000000  0.4375420000000  0.5015370000000 1.0
C      1  0.4253220000000  0.4519100000000  0.5022960000000 1.0
C      1  0.4703780000000  0.4601970000000  0.5100570000000 1.0
C      1  0.5425440000000  0.4397380000000  0.4981760000000 1.0
C      1  0.5233480000000  0.5971850000000  0.5067640000000 1.0
C      1  0.4591630000000  0.5964100000000  0.5009470000000 1.0
C      1  0.5075380000000  0.5413370000000  0.3948420000000 1.0
C      1  0.5051520000000  0.5537710000000  0.5909680000000 1.0
C      1  0.5295060000000  0.4710690000000  0.5002690000000 1.0
C      1  0.4620320000000  0.4922290000000  0.5022370000000 1.0
C      1  0.5087520000000  0.4934320000000  0.4352560000000 1.0
C      1  0.5004230000000  0.5050050000000  0.5672640000000 1.0
C      1  0.5638710000000  0.5269940000000  0.5005030000000 1.0
C      1  0.4095110000000  0.5007170000000  0.5023190000000 1.0
C      1  0.4954060000000  0.7349950000000  0.4739780000000 1.0
C      1  0.4905770000000  0.6337110000000  0.5038140000000 1.0
C      1  0.4946980000000  0.7103550000000  0.4828920000000 1.0
C      1  0.4925280000000  0.6593730000000  0.4979640000000 1.0
C      1  0.4901280000000  0.4516220000000  0.4887870000000 1.0
C      1  0.4945200000000  0.6845560000000  0.4895250000000 1.0
C      1  0.4955440000000  0.3970700000000  0.4994210000000 1.0
C      1  0.4551920000000  0.3393700000000  0.4549700000000 1.0
C      1  0.4921500000000  0.5726130000000  0.4970710000000 1.0
C      1  0.4905590000000  0.6026020000000  0.5131030000000 1.0
C      1  0.4726430000000  0.3542850000000  0.4684790000000 1.0
C      1  0.4365820000000  0.3246830000000  0.4437930000000 1.0
C      1  0.5056210000000  0.4262290000000  0.4910970000000 1.0
C      1  0.4893800000000  0.3702090000000  0.4794850000000 1.0
C      1  0.4976090000000  0.5391070000000  0.4949610000000 1.0
C      1  0.5002880000000  0.4824440000000  0.4964480000000 1.0
END
