TITL C-3289326-3776-448 0.0165030297278996 125000 -743.203611001971 0 0 142 (C1) n - 1
REM
REM in /nfs/bkarasulu/CARBON/AIRSS/Generating-Clusters/AIREBO/with-SteepDescent/Higher-Symm/SD-CG/HFTN-CG
REM
REM
REM
REM
REM
REM ./C.cell (b20cbc046b6831c77cfcea5457e17084)
REM
REM compiler GCC version 9.2.1 20190827 (Red Hat 9.2.1-1)
REM options -cpp -mtune=generic -march=x86-64 -g -O0 -fpre-include=/usr/include/finclude/math-vector-fortran.h
REM seed 151178910 -897189620 738249398 -288342289 -642098257 227769425 96395530 1210147906 99717818 627278360 -511278366 -1402779952 1816944101 953914789 -1906224068 51135001 -352623508 -1811097120 -1515252017 -1951718413 536404918 1374227986 456947338 1995927854 1002843252 59818580 9226388 1486727860 1866290154 799605378 1521782193 -50103460 -2021042556
REM
CELL 1.54180   50.00000   50.00000   50.00000   90.00000   90.00000   90.00000
LATT -1
SFAC C  
C      1  0.4702600000000  0.5008390000000  0.4754430000000 1.0
C      1  0.5042770000000  0.4804440000000  0.4564540000000 1.0
C      1  0.4766560000000  0.4636750000000  0.4960900000000 1.0
C      1  0.5322870000000  0.4891740000000  0.4690490000000 1.0
C      1  0.4710710000000  0.4990650000000  0.5241200000000 1.0
C      1  0.5335490000000  0.5080230000000  0.5284050000000 1.0
C      1  0.4980560000000  0.5185850000000  0.4653590000000 1.0
C      1  0.5080410000000  0.5220320000000  0.5407270000000 1.0
C      1  0.5008190000000  0.4835880000000  0.5334450000000 1.0
C      1  0.5226360000000  0.5310380000000  0.4941980000000 1.0
C      1  0.4770720000000  0.5361590000000  0.5023040000000 1.0
C      1  0.5276460000000  0.4664160000000  0.5092920000000 1.0
C      1  0.4314710000000  0.4939630000000  0.5698560000000 1.0
C      1  0.4994170000000  0.5703150000000  0.4409610000000 1.0
C      1  0.5741530000000  0.4496480000000  0.5135430000000 1.0
C      1  0.5624730000000  0.5120090000000  0.5720320000000 1.0
C      1  0.4322380000000  0.5100180000000  0.4340750000000 1.0
C      1  0.5662480000000  0.5030760000000  0.4322220000000 1.0
C      1  0.4997360000000  0.4329090000000  0.4426070000000 1.0
C      1  0.5024170000000  0.4316670000000  0.5567040000000 1.0
C      1  0.5006240000000  0.5681970000000  0.5573620000000 1.0
C      1  0.4268070000000  0.5564690000000  0.5072430000000 1.0
C      1  0.5758370000000  0.5530120000000  0.4884880000000 1.0
C      1  0.4262630000000  0.4477550000000  0.4947750000000 1.0
C      1  0.4561470000000  0.5601140000000  0.4741120000000 1.0
C      1  0.5781740000000  0.4632820000000  0.4676990000000 1.0
C      1  0.4731130000000  0.4639930000000  0.5600630000000 1.0
C      1  0.5421320000000  0.4385400000000  0.4796990000000 1.0
C      1  0.4602900000000  0.4386080000000  0.5230900000000 1.0
C      1  0.5412310000000  0.5620260000000  0.5148300000000 1.0
C      1  0.4241900000000  0.5306300000000  0.4675370000000 1.0
C      1  0.5740580000000  0.5388470000000  0.5311730000000 1.0
C      1  0.4257890000000  0.4718240000000  0.5363180000000 1.0
C      1  0.5354670000000  0.5498880000000  0.5521740000000 1.0
C      1  0.4708990000000  0.5373020000000  0.4390380000000 1.0
C      1  0.5345330000000  0.4570220000000  0.4451950000000 1.0
C      1  0.5590590000000  0.4535400000000  0.4216960000000 1.0
C      1  0.4511460000000  0.4248700000000  0.5523290000000 1.0
C      1  0.4082610000000  0.5601770000000  0.4608030000000 1.0
C      1  0.4497700000000  0.5558680000000  0.4199350000000 1.0
C      1  0.5484930000000  0.5561220000000  0.5768620000000 1.0
C      1  0.4464630000000  0.4436840000000  0.5727460000000 1.0
C      1  0.5510710000000  0.5837700000000  0.5390600000000 1.0
C      1  0.4492160000000  0.5730080000000  0.4433750000000 1.0
C      1  0.5499900000000  0.4205100000000  0.4519600000000 1.0
C      1  0.5956190000000  0.4340260000000  0.4667390000000 1.0
C      1  0.4132640000000  0.4405700000000  0.5425870000000 1.0
C      1  0.5942240000000  0.5660220000000  0.5352080000000 1.0
C      1  0.5211550000000  0.5911190000000  0.5479630000000 1.0
C      1  0.6018650000000  0.5544070000000  0.5074520000000 1.0
C      1  0.5507520000000  0.5307950000000  0.5914820000000 1.0
C      1  0.4798400000000  0.4141790000000  0.5473890000000 1.0
C      1  0.5220570000000  0.4098150000000  0.4443670000000 1.0
C      1  0.4756820000000  0.5856900000000  0.4508630000000 1.0
C      1  0.4042570000000  0.4467890000000  0.5142240000000 1.0
C      1  0.6003770000000  0.4444780000000  0.4950320000000 1.0
C      1  0.4036030000000  0.5559940000000  0.4903410000000 1.0
C      1  0.4434670000000  0.4703670000000  0.5858010000000 1.0
C      1  0.5503660000000  0.4845670000000  0.4129950000000 1.0
C      1  0.4404660000000  0.5266250000000  0.4122850000000 1.0
C      1  0.4893550000000  0.5206350000000  0.5781680000000 1.0
C      1  0.5270610000000  0.5730750000000  0.4791130000000 1.0
C      1  0.5677900000000  0.4721200000000  0.5382720000000 1.0
C      1  0.5207850000000  0.4773930000000  0.5840750000000 1.0
C      1  0.4846790000000  0.4788580000000  0.4189860000000 1.0
C      1  0.5163440000000  0.5244670000000  0.4149260000000 1.0
C      1  0.4693640000000  0.4355750000000  0.4686320000000 1.0
C      1  0.5228160000000  0.4219010000000  0.5156770000000 1.0
C      1  0.4710580000000  0.5633200000000  0.5309150000000 1.0
C      1  0.4244220000000  0.5097480000000  0.5237540000000 1.0
C      1  0.5665370000000  0.5182900000000  0.4687940000000 1.0
C      1  0.4217090000000  0.4903270000000  0.4793360000000 1.0
C      1  0.5553120000000  0.4671350000000  0.4925820000000 1.0
C      1  0.4540240000000  0.4846080000000  0.5464130000000 1.0
C      1  0.4873200000000  0.5504610000000  0.4657690000000 1.0
C      1  0.4468960000000  0.5331940000000  0.4927190000000 1.0
C      1  0.5540920000000  0.5322850000000  0.5044300000000 1.0
C      1  0.4475420000000  0.4676330000000  0.5107800000000 1.0
C      1  0.5522050000000  0.5246000000000  0.5461120000000 1.0
C      1  0.4530830000000  0.5187080000000  0.4559810000000 1.0
C      1  0.5572490000000  0.4794240000000  0.4520330000000 1.0
C      1  0.5117690000000  0.4499430000000  0.4694780000000 1.0
C      1  0.4890850000000  0.4516830000000  0.5326670000000 1.0
C      1  0.5112730000000  0.5535990000000  0.5285430000000 1.0
C      1  0.5749890000000  0.4885290000000  0.5671710000000 1.0
C      1  0.5040770000000  0.5503120000000  0.5865070000000 1.0
C      1  0.5594860000000  0.5822990000000  0.4829230000000 1.0
C      1  0.4064800000000  0.5070930000000  0.5528820000000 1.0
C      1  0.5921370000000  0.5164850000000  0.4464780000000 1.0
C      1  0.4181760000000  0.4899030000000  0.4456920000000 1.0
C      1  0.5119330000000  0.4448470000000  0.5787880000000 1.0
C      1  0.4985320000000  0.4479540000000  0.4118180000000 1.0
C      1  0.5141740000000  0.5576650000000  0.4226110000000 1.0
C      1  0.4385990000000  0.4289680000000  0.4798370000000 1.0
C      1  0.5564590000000  0.4241660000000  0.5144240000000 1.0
C      1  0.4382600000000  0.5675820000000  0.5296190000000 1.0
C      1  0.3992320000000  0.4781360000000  0.5166360000000 1.0
C      1  0.4719050000000  0.5255120000000  0.4068490000000 1.0
C      1  0.5206320000000  0.4119730000000  0.4771370000000 1.0
C      1  0.5946940000000  0.5227440000000  0.5138040000000 1.0
C      1  0.3984710000000  0.5249340000000  0.4890350000000 1.0
C      1  0.5950700000000  0.4759970000000  0.4919100000000 1.0
C      1  0.5222780000000  0.4661270000000  0.4158170000000 1.0
C      1  0.4721440000000  0.4759780000000  0.5918840000000 1.0
C      1  0.5235850000000  0.5261060000000  0.5989730000000 1.0
C      1  0.4737920000000  0.5878740000000  0.4833300000000 1.0
C      1  0.5207360000000  0.5894830000000  0.5149400000000 1.0
C      1  0.4785220000000  0.4107990000000  0.5149970000000 1.0
C      1  0.4869750000000  0.5038180000000  0.3978520000000 1.0
C      1  0.4873940000000  0.4166760000000  0.4829110000000 1.0
C      1  0.3901110000000  0.4931090000000  0.4885950000000 1.0
C      1  0.5196430000000  0.4949470000000  0.4012690000000 1.0
C      1  0.4834160000000  0.4988190000000  0.6009080000000 1.0
C      1  0.5131230000000  0.5009090000000  0.6034290000000 1.0
C      1  0.5045410000000  0.5957750000000  0.4879950000000 1.0
C      1  0.4868940000000  0.5847510000000  0.5148940000000 1.0
C      1  0.5065450000000  0.3971480000000  0.5032590000000 1.0
C      1  0.5926370000000  0.5069340000000  0.4874540000000 1.0
C      1  0.3908860000000  0.5105260000000  0.5181810000000 1.0
C      1  0.5905110000000  0.4907530000000  0.5202130000000 1.0
C      1  0.5423420000000  0.4533590000000  0.5798780000000 1.0
C      1  0.4500780000000  0.5483000000000  0.5531490000000 1.0
C      1  0.5578120000000  0.5352620000000  0.4406440000000 1.0
C      1  0.4763980000000  0.5487380000000  0.5677230000000 1.0
C      1  0.5422160000000  0.5440460000000  0.4171290000000 1.0
C      1  0.4724150000000  0.4495410000000  0.4310750000000 1.0
C      1  0.5433820000000  0.4268690000000  0.5423760000000 1.0
C      1  0.4472070000000  0.4488360000000  0.4465070000000 1.0
C      1  0.5522210000000  0.5552150000000  0.4641100000000 1.0
C      1  0.4271890000000  0.4626790000000  0.4578170000000 1.0
C      1  0.5560680000000  0.4464600000000  0.5572640000000 1.0
C      1  0.4367310000000  0.5226630000000  0.5523960000000 1.0
C      1  0.5035960000000  0.5545880000000  0.4953730000000 1.0
C      1  0.5048310000000  0.4477130000000  0.5027490000000 1.0
C      1  0.5006080000000  0.5042620000000  0.4351570000000 1.0
C      1  0.5071350000000  0.4972920000000  0.5633570000000 1.0
C      1  0.4469030000000  0.4999730000000  0.5001690000000 1.0
C      1  0.5467240000000  0.4996270000000  0.4981710000000 1.0
C      1  0.5344070000000  0.4783260000000  0.5358030000000 1.0
C      1  0.5325920000000  0.5204620000000  0.4675530000000 1.0
C      1  0.4790450000000  0.5302790000000  0.5324080000000 1.0
C      1  0.4759100000000  0.4688400000000  0.4658140000000 1.0
END
