TITL C-3289334-2237-494 -0.00113235176015044 125000 -502.214930748073 0 0 99 (C1) n - 1
REM
REM in /nfs/bkarasulu/CARBON/AIRSS/Generating-Clusters/AIREBO/with-SteepDescent/Higher-Symm/SD-CG/HFTN-CG
REM
REM
REM
REM
REM
REM ./C.cell (b20cbc046b6831c77cfcea5457e17084)
REM
REM compiler GCC version 9.2.1 20190827 (Red Hat 9.2.1-1)
REM options -cpp -mtune=generic -march=x86-64 -g -O0 -fpre-include=/usr/include/finclude/math-vector-fortran.h
REM seed 1641906537 -1107438090 178705857 -1841669728 1666345897 -1735791797 -901948490 -987138952 -497356361 443097587 -190729494 2140945887 1531570941 710923987 1646270205 -197686412 -198212484 263265020 505364830 -1543149425 1637061035 1702560371 1816259606 -92068644 1422338093 -546593991 -1755361859 404768985 -1210163172 -1198456445 -745817980 1058256045 1293312873
REM
CELL 1.54180   50.00000   50.00000   50.00000   90.00000   90.00000   90.00000
LATT -1
SFAC C  
C      1  0.4545560000000  0.4950560000000  0.4310820000000 1.0
C      1  0.5411230000000  0.4897630000000  0.4390550000000 1.0
C      1  0.5697500000000  0.4861110000000  0.5145780000000 1.0
C      1  0.5019150000000  0.4904080000000  0.5781870000000 1.0
C      1  0.4325500000000  0.4817700000000  0.5268950000000 1.0
C      1  0.5464480000000  0.5225050000000  0.4438360000000 1.0
C      1  0.4567300000000  0.5275230000000  0.4333900000000 1.0
C      1  0.4301570000000  0.5155670000000  0.5227630000000 1.0
C      1  0.4985100000000  0.5239550000000  0.5780060000000 1.0
C      1  0.5724660000000  0.5178620000000  0.5264440000000 1.0
C      1  0.4723030000000  0.4166380000000  0.4967290000000 1.0
C      1  0.4835490000000  0.3899640000000  0.4788940000000 1.0
C      1  0.5083380000000  0.4042430000000  0.4637680000000 1.0
C      1  0.5218630000000  0.4248970000000  0.5142930000000 1.0
C      1  0.5175350000000  0.4142300000000  0.5459060000000 1.0
C      1  0.5484360000000  0.5888140000000  0.5065330000000 1.0
C      1  0.5241560000000  0.5833250000000  0.4487280000000 1.0
C      1  0.4899780000000  0.5881570000000  0.4830580000000 1.0
C      1  0.4618980000000  0.5943720000000  0.4988200000000 1.0
C      1  0.5043890000000  0.5895990000000  0.5310520000000 1.0
C      1  0.5230100000000  0.5599450000000  0.4736310000000 1.0
C      1  0.5306910000000  0.5683240000000  0.5275650000000 1.0
C      1  0.4934550000000  0.5591180000000  0.5385480000000 1.0
C      1  0.4596330000000  0.5620740000000  0.4922560000000 1.0
C      1  0.4924480000000  0.5544890000000  0.4875230000000 1.0
C      1  0.4642780000000  0.4405970000000  0.4776440000000 1.0
C      1  0.4840390000000  0.4342030000000  0.5233850000000 1.0
C      1  0.5119030000000  0.4476530000000  0.5375290000000 1.0
C      1  0.5389240000000  0.4480860000000  0.5027510000000 1.0
C      1  0.5136730000000  0.4262890000000  0.4478920000000 1.0
C      1  0.5230920000000  0.5171930000000  0.5575020000000 1.0
C      1  0.4579210000000  0.5141250000000  0.5378420000000 1.0
C      1  0.4619490000000  0.5185760000000  0.4641610000000 1.0
C      1  0.5151490000000  0.5170000000000  0.4507510000000 1.0
C      1  0.5561080000000  0.5197880000000  0.4979790000000 1.0
C      1  0.4805440000000  0.4868460000000  0.5554880000000 1.0
C      1  0.5456790000000  0.4906460000000  0.5381610000000 1.0
C      1  0.5401120000000  0.4723670000000  0.4637980000000 1.0
C      1  0.4854060000000  0.4832810000000  0.4370460000000 1.0
C      1  0.4473650000000  0.4878670000000  0.4999150000000 1.0
C      1  0.4244190000000  0.4562900000000  0.5077150000000 1.0
C      1  0.4685090000000  0.4463900000000  0.4446170000000 1.0
C      1  0.5365390000000  0.4404980000000  0.4546520000000 1.0
C      1  0.5600220000000  0.4565760000000  0.5234920000000 1.0
C      1  0.5023860000000  0.4565890000000  0.5689310000000 1.0
C      1  0.5589030000000  0.5496690000000  0.5240820000000 1.0
C      1  0.5332210000000  0.5513620000000  0.4436480000000 1.0
C      1  0.4383230000000  0.5511070000000  0.4425150000000 1.0
C      1  0.4462890000000  0.5461350000000  0.5174130000000 1.0
C      1  0.5069550000000  0.5527870000000  0.5653110000000 1.0
C      1  0.5152620000000  0.5688180000000  0.4211480000000 1.0
C      1  0.5487530000000  0.5592420000000  0.4930750000000 1.0
C      1  0.5332650000000  0.5636870000000  0.5611520000000 1.0
C      1  0.4633950000000  0.5534740000000  0.5418160000000 1.0
C      1  0.4366790000000  0.5549150000000  0.4705430000000 1.0
C      1  0.4933540000000  0.4401720000000  0.4330240000000 1.0
C      1  0.4353800000000  0.4488810000000  0.4840840000000 1.0
C      1  0.4745070000000  0.4476090000000  0.5515100000000 1.0
C      1  0.5466260000000  0.4514840000000  0.5487040000000 1.0
C      1  0.5536010000000  0.4379320000000  0.4786100000000 1.0
C      1  0.4498090000000  0.5581270000000  0.5727290000000 1.0
C      1  0.4047230000000  0.5452240000000  0.4856640000000 1.0
C      1  0.4933510000000  0.5575610000000  0.4088740000000 1.0
C      1  0.5924030000000  0.5265070000000  0.4654390000000 1.0
C      1  0.5578640000000  0.5556980000000  0.5741530000000 1.0
C      1  0.5498850000000  0.4545230000000  0.5824150000000 1.0
C      1  0.5817750000000  0.4461630000000  0.4775530000000 1.0
C      1  0.5033740000000  0.4571930000000  0.4126930000000 1.0
C      1  0.4225780000000  0.4577820000000  0.4593100000000 1.0
C      1  0.4454520000000  0.4434540000000  0.5688210000000 1.0
C      1  0.5161350000000  0.4849760000000  0.4223020000000 1.0
C      1  0.5671960000000  0.4753200000000  0.4822410000000 1.0
C      1  0.5297260000000  0.4763520000000  0.5645850000000 1.0
C      1  0.4504940000000  0.4717030000000  0.5505710000000 1.0
C      1  0.4527110000000  0.4734740000000  0.4577940000000 1.0
C      1  0.4808370000000  0.5353550000000  0.4168240000000 1.0
C      1  0.4336100000000  0.5282280000000  0.4913920000000 1.0
C      1  0.4679370000000  0.5301200000000  0.5661330000000 1.0
C      1  0.5537960000000  0.5306720000000  0.5518200000000 1.0
C      1  0.5605940000000  0.5378340000000  0.4694610000000 1.0
C      1  0.5304810000000  0.4802410000000  0.5106620000000 1.0
C      1  0.4950940000000  0.4758970000000  0.5287890000000 1.0
C      1  0.4778530000000  0.4844380000000  0.5013590000000 1.0
C      1  0.4817930000000  0.4830280000000  0.4694190000000 1.0
C      1  0.5120910000000  0.4754680000000  0.4828770000000 1.0
C      1  0.4803240000000  0.5114320000000  0.5181950000000 1.0
C      1  0.5090360000000  0.5058140000000  0.5337350000000 1.0
C      1  0.5262800000000  0.5138210000000  0.5064190000000 1.0
C      1  0.5101930000000  0.5091620000000  0.4786780000000 1.0
C      1  0.4829800000000  0.5226090000000  0.4861700000000 1.0
C      1  0.4377060000000  0.5000740000000  0.4727700000000 1.0
C      1  0.5786410000000  0.5042630000000  0.4802720000000 1.0
C      1  0.4976760000000  0.5123840000000  0.4248320000000 1.0
C      1  0.4522670000000  0.5000960000000  0.5692020000000 1.0
C      1  0.5510410000000  0.5022330000000  0.5702570000000 1.0
C      1  0.5115600000000  0.5439240000000  0.5135890000000 1.0
C      1  0.4927870000000  0.4499420000000  0.4945030000000 1.0
C      1  0.4905410000000  0.6027740000000  0.5114220000000 1.0
C      1  0.5047040000000  0.4093110000000  0.4974190000000 1.0
END
