TITL C-3289326-3776-60 -0.0029693560254436 125000 -1077.83666078205 0 0 197 (C1) n - 1
REM
REM in /nfs/bkarasulu/CARBON/AIRSS/Generating-Clusters/AIREBO/with-SteepDescent/Higher-Symm/SD-CG/HFTN-CG
REM
REM
REM
REM
REM
REM ./C.cell (b20cbc046b6831c77cfcea5457e17084)
REM
REM compiler GCC version 9.2.1 20190827 (Red Hat 9.2.1-1)
REM options -cpp -mtune=generic -march=x86-64 -g -O0 -fpre-include=/usr/include/finclude/math-vector-fortran.h
REM seed 1435819334 -1382259901 -836555021 1379321678 -1820184053 900275856 2057265221 1555657019 993367132 1801180003 2082558664 1339504180 -814815463 -372731886 2048247742 669619783 -333851048 1055505619 673618337 -938946605 1107904749 -1798302647 -1289258287 -1223822117 -2081816156 -1560439967 829139924 -2063247151 584055595 -168207212 213627298 -1389366505 -1301104791
REM
CELL 1.54180   50.00000   50.00000   50.00000   90.00000   90.00000   90.00000
LATT -1
SFAC C  
C      1  0.4761450000000  0.5188260000000  0.5651900000000 1.0
C      1  0.4402370000000  0.5233530000000  0.5081580000000 1.0
C      1  0.4739450000000  0.5161290000000  0.4430080000000 1.0
C      1  0.5446990000000  0.5147130000000  0.4624720000000 1.0
C      1  0.5515020000000  0.5170000000000  0.5330460000000 1.0
C      1  0.5381480000000  0.4188050000000  0.5687020000000 1.0
C      1  0.4505220000000  0.4320080000000  0.5722600000000 1.0
C      1  0.4263140000000  0.4198600000000  0.4786820000000 1.0
C      1  0.5064510000000  0.4273770000000  0.4222610000000 1.0
C      1  0.5591310000000  0.4356010000000  0.4810670000000 1.0
C      1  0.5639920000000  0.4153040000000  0.5551330000000 1.0
C      1  0.4839080000000  0.4255650000000  0.5723870000000 1.0
C      1  0.4335390000000  0.4385520000000  0.5061620000000 1.0
C      1  0.4762370000000  0.4250690000000  0.4277750000000 1.0
C      1  0.5407970000000  0.4386590000000  0.4555760000000 1.0
C      1  0.4236860000000  0.5128380000000  0.4852070000000 1.0
C      1  0.4964080000000  0.5236790000000  0.4191970000000 1.0
C      1  0.5746590000000  0.5255470000000  0.4719580000000 1.0
C      1  0.5713940000000  0.5150790000000  0.5529340000000 1.0
C      1  0.4571810000000  0.5177220000000  0.5896630000000 1.0
C      1  0.5568220000000  0.5919830000000  0.5254630000000 1.0
C      1  0.4956010000000  0.5894470000000  0.5691620000000 1.0
C      1  0.4190500000000  0.5793260000000  0.5431650000000 1.0
C      1  0.4722140000000  0.5898120000000  0.4316760000000 1.0
C      1  0.5456660000000  0.5914680000000  0.4504130000000 1.0
C      1  0.5233290000000  0.5470140000000  0.5934830000000 1.0
C      1  0.4055170000000  0.5631090000000  0.5618000000000 1.0
C      1  0.4218040000000  0.5480300000000  0.4111160000000 1.0
C      1  0.5495560000000  0.5549550000000  0.4057490000000 1.0
C      1  0.6003970000000  0.5490350000000  0.5143110000000 1.0
C      1  0.4222590000000  0.5148560000000  0.5526900000000 1.0
C      1  0.4320900000000  0.5074600000000  0.4394200000000 1.0
C      1  0.5385270000000  0.5083850000000  0.4130160000000 1.0
C      1  0.5848280000000  0.4981780000000  0.5056670000000 1.0
C      1  0.5200850000000  0.4998090000000  0.5750670000000 1.0
C      1  0.4337740000000  0.5605380000000  0.5213960000000 1.0
C      1  0.4608500000000  0.5608510000000  0.4388620000000 1.0
C      1  0.5440180000000  0.5609450000000  0.4387570000000 1.0
C      1  0.5692060000000  0.5616680000000  0.5192000000000 1.0
C      1  0.5039750000000  0.5575180000000  0.5675740000000 1.0
C      1  0.4685510000000  0.5928170000000  0.5498900000000 1.0
C      1  0.4418300000000  0.5941980000000  0.4741180000000 1.0
C      1  0.5001740000000  0.5897960000000  0.4298010000000 1.0
C      1  0.5540410000000  0.5910940000000  0.4777970000000 1.0
C      1  0.5407720000000  0.5911830000000  0.5488740000000 1.0
C      1  0.4163050000000  0.5381540000000  0.5707250000000 1.0
C      1  0.4137710000000  0.5342590000000  0.4346990000000 1.0
C      1  0.5357700000000  0.5330140000000  0.3961960000000 1.0
C      1  0.6033880000000  0.5261080000000  0.5000580000000 1.0
C      1  0.5353400000000  0.5230170000000  0.5891760000000 1.0
C      1  0.4173390000000  0.4834180000000  0.5115080000000 1.0
C      1  0.4572610000000  0.4875220000000  0.4095310000000 1.0
C      1  0.5618140000000  0.4821810000000  0.4471760000000 1.0
C      1  0.5840450000000  0.4773880000000  0.5521980000000 1.0
C      1  0.4887340000000  0.4775070000000  0.5924510000000 1.0
C      1  0.5197850000000  0.5709820000000  0.4819860000000 1.0
C      1  0.5216490000000  0.5697900000000  0.5128950000000 1.0
C      1  0.4920990000000  0.5713390000000  0.5251370000000 1.0
C      1  0.4731820000000  0.5743210000000  0.5018620000000 1.0
C      1  0.4898410000000  0.5704650000000  0.4741720000000 1.0
C      1  0.5261330000000  0.5296440000000  0.4943390000000 1.0
C      1  0.5115810000000  0.5287930000000  0.5215330000000 1.0
C      1  0.4784370000000  0.5212440000000  0.5198170000000 1.0
C      1  0.4748520000000  0.5270460000000  0.4864960000000 1.0
C      1  0.5039940000000  0.5214910000000  0.4698450000000 1.0
C      1  0.5059180000000  0.5368960000000  0.3893340000000 1.0
C      1  0.6079460000000  0.5324210000000  0.4702270000000 1.0
C      1  0.5645440000000  0.5225970000000  0.5843200000000 1.0
C      1  0.4359490000000  0.5401100000000  0.5898920000000 1.0
C      1  0.4015320000000  0.5215080000000  0.4608810000000 1.0
C      1  0.4475970000000  0.4509080000000  0.5441380000000 1.0
C      1  0.4434430000000  0.4462290000000  0.4542150000000 1.0
C      1  0.5184750000000  0.4547350000000  0.4265610000000 1.0
C      1  0.5658230000000  0.4461960000000  0.5108960000000 1.0
C      1  0.5241540000000  0.4466050000000  0.5589410000000 1.0
C      1  0.5689390000000  0.5027660000000  0.4210670000000 1.0
C      1  0.6043530000000  0.4969750000000  0.5334760000000 1.0
C      1  0.5122400000000  0.4966270000000  0.6079890000000 1.0
C      1  0.4013710000000  0.5057580000000  0.5310280000000 1.0
C      1  0.4252610000000  0.4915350000000  0.4101640000000 1.0
C      1  0.4886390000000  0.4163880000000  0.5198050000000 1.0
C      1  0.4710000000000  0.4136510000000  0.4947670000000 1.0
C      1  0.4835110000000  0.4019690000000  0.4682950000000 1.0
C      1  0.5133150000000  0.4027250000000  0.4847130000000 1.0
C      1  0.5212440000000  0.4130010000000  0.5151230000000 1.0
C      1  0.4884750000000  0.5456630000000  0.4516020000000 1.0
C      1  0.5415280000000  0.5477440000000  0.4700080000000 1.0
C      1  0.5391990000000  0.5478250000000  0.5273110000000 1.0
C      1  0.4829180000000  0.5446630000000  0.5441380000000 1.0
C      1  0.4524840000000  0.5513790000000  0.4945130000000 1.0
C      1  0.4415250000000  0.5976400000000  0.5338420000000 1.0
C      1  0.4549730000000  0.6097140000000  0.4467090000000 1.0
C      1  0.5192800000000  0.6056000000000  0.4444570000000 1.0
C      1  0.5443220000000  0.6018960000000  0.5019480000000 1.0
C      1  0.5182580000000  0.6063360000000  0.5557820000000 1.0
C      1  0.4728630000000  0.4993080000000  0.6131660000000 1.0
C      1  0.3935430000000  0.4990730000000  0.4928250000000 1.0
C      1  0.4699970000000  0.5136760000000  0.3988960000000 1.0
C      1  0.5890030000000  0.5010150000000  0.4551020000000 1.0
C      1  0.5964130000000  0.5021690000000  0.5720010000000 1.0
C      1  0.5573540000000  0.5174600000000  0.5001620000000 1.0
C      1  0.5036830000000  0.5108290000000  0.5490070000000 1.0
C      1  0.4495440000000  0.5138000000000  0.5361790000000 1.0
C      1  0.4516160000000  0.5117520000000  0.4669340000000 1.0
C      1  0.5197260000000  0.5122040000000  0.4411280000000 1.0
C      1  0.5360830000000  0.5617330000000  0.5571960000000 1.0
C      1  0.4550080000000  0.5628090000000  0.5480550000000 1.0
C      1  0.4400200000000  0.5631270000000  0.4648970000000 1.0
C      1  0.5109260000000  0.5592870000000  0.4300060000000 1.0
C      1  0.5676990000000  0.5634310000000  0.4850360000000 1.0
C      1  0.4010670000000  0.4598240000000  0.4935940000000 1.0
C      1  0.4715810000000  0.4623640000000  0.3996440000000 1.0
C      1  0.5848550000000  0.4620120000000  0.4619650000000 1.0
C      1  0.5746910000000  0.4584450000000  0.5751530000000 1.0
C      1  0.4662330000000  0.4527950000000  0.5949060000000 1.0
C      1  0.5827530000000  0.4370520000000  0.5554200000000 1.0
C      1  0.4970830000000  0.4388920000000  0.5978210000000 1.0
C      1  0.4048110000000  0.4470540000000  0.5222400000000 1.0
C      1  0.4585710000000  0.4397940000000  0.4099220000000 1.0
C      1  0.5697460000000  0.4442150000000  0.4386230000000 1.0
C      1  0.4386950000000  0.5215160000000  0.4002060000000 1.0
C      1  0.5839900000000  0.5263750000000  0.4330060000000 1.0
C      1  0.6037780000000  0.5268170000000  0.5497620000000 1.0
C      1  0.4928110000000  0.5247140000000  0.6061960000000 1.0
C      1  0.3930500000000  0.5280920000000  0.5105380000000 1.0
C      1  0.4325290000000  0.4435430000000  0.4221210000000 1.0
C      1  0.5489300000000  0.4559900000000  0.4198540000000 1.0
C      1  0.5919890000000  0.4461480000000  0.5286280000000 1.0
C      1  0.5225660000000  0.4492680000000  0.5916260000000 1.0
C      1  0.4144020000000  0.4576170000000  0.5471510000000 1.0
C      1  0.5778370000000  0.4982490000000  0.5997860000000 1.0
C      1  0.4469840000000  0.4874740000000  0.5952880000000 1.0
C      1  0.4021290000000  0.4876080000000  0.4634430000000 1.0
C      1  0.5013880000000  0.5024120000000  0.3931280000000 1.0
C      1  0.6193810000000  0.5004730000000  0.4679790000000 1.0
C      1  0.4941230000000  0.3967070000000  0.5670550000000 1.0
C      1  0.4349380000000  0.4111890000000  0.5263030000000 1.0
C      1  0.4667470000000  0.3948480000000  0.4333550000000 1.0
C      1  0.5403200000000  0.4061140000000  0.4459260000000 1.0
C      1  0.5571130000000  0.3993900000000  0.5316420000000 1.0
C      1  0.4135930000000  0.5496760000000  0.4740670000000 1.0
C      1  0.4872380000000  0.5592530000000  0.4055380000000 1.0
C      1  0.5913540000000  0.5604580000000  0.4642780000000 1.0
C      1  0.5621970000000  0.5505620000000  0.5688430000000 1.0
C      1  0.4581220000000  0.5567230000000  0.5813690000000 1.0
C      1  0.4744420000000  0.5983910000000  0.4704460000000 1.0
C      1  0.5156290000000  0.6035390000000  0.4736360000000 1.0
C      1  0.5123210000000  0.6018000000000  0.5062280000000 1.0
C      1  0.4955290000000  0.6045490000000  0.5327190000000 1.0
C      1  0.4482560000000  0.5954000000000  0.5060690000000 1.0
C      1  0.4753090000000  0.4701060000000  0.4542010000000 1.0
C      1  0.5140690000000  0.4895270000000  0.4756170000000 1.0
C      1  0.5337060000000  0.4729810000000  0.5135880000000 1.0
C      1  0.4910740000000  0.4690080000000  0.5356340000000 1.0
C      1  0.4713110000000  0.4901070000000  0.5080710000000 1.0
C      1  0.4081100000000  0.4837270000000  0.5547390000000 1.0
C      1  0.4147580000000  0.4623180000000  0.4126350000000 1.0
C      1  0.5542170000000  0.4790360000000  0.4052000000000 1.0
C      1  0.6081200000000  0.4677230000000  0.5165540000000 1.0
C      1  0.5351480000000  0.4722430000000  0.6017130000000 1.0
C      1  0.5284560000000  0.4434060000000  0.5286040000000 1.0
C      1  0.4799120000000  0.4391440000000  0.5415190000000 1.0
C      1  0.4591430000000  0.4428710000000  0.4842040000000 1.0
C      1  0.4844210000000  0.4404680000000  0.4533960000000 1.0
C      1  0.5113090000000  0.4306710000000  0.4697140000000 1.0
C      1  0.4968140000000  0.3869380000000  0.4415520000000 1.0
C      1  0.5378090000000  0.3904670000000  0.4689890000000 1.0
C      1  0.5297470000000  0.3877380000000  0.5365210000000 1.0
C      1  0.4760390000000  0.3993360000000  0.5435010000000 1.0
C      1  0.4463760000000  0.3968900000000  0.5042000000000 1.0
C      1  0.5823680000000  0.5531670000000  0.5493880000000 1.0
C      1  0.4834220000000  0.5477840000000  0.5917750000000 1.0
C      1  0.4100540000000  0.5487210000000  0.5019560000000 1.0
C      1  0.4556970000000  0.5496640000000  0.4088610000000 1.0
C      1  0.5768600000000  0.5521920000000  0.4400820000000 1.0
C      1  0.6017210000000  0.4770890000000  0.4844810000000 1.0
C      1  0.5633940000000  0.4734490000000  0.5970650000000 1.0
C      1  0.4543080000000  0.4719190000000  0.5694470000000 1.0
C      1  0.4260540000000  0.4680290000000  0.4736750000000 1.0
C      1  0.4996810000000  0.4750860000000  0.4097880000000 1.0
C      1  0.5214810000000  0.3952010000000  0.5630440000000 1.0
C      1  0.4502640000000  0.4094220000000  0.5490110000000 1.0
C      1  0.4525820000000  0.4136640000000  0.4578910000000 1.0
C      1  0.5176890000000  0.4028700000000  0.4296140000000 1.0
C      1  0.5539410000000  0.4165030000000  0.5064670000000 1.0
C      1  0.4473180000000  0.4769670000000  0.4401430000000 1.0
C      1  0.5320620000000  0.4714320000000  0.4530760000000 1.0
C      1  0.5660120000000  0.4759350000000  0.5238040000000 1.0
C      1  0.5056000000000  0.4728020000000  0.5642220000000 1.0
C      1  0.4456090000000  0.4690010000000  0.5154080000000 1.0
C      1  0.4948760000000  0.4890680000000  0.4391590000000 1.0
C      1  0.5439910000000  0.4903700000000  0.4862250000000 1.0
C      1  0.5295370000000  0.4965950000000  0.5363480000000 1.0
C      1  0.4696850000000  0.4901310000000  0.5485980000000 1.0
C      1  0.4562470000000  0.4821160000000  0.4786560000000 1.0
C      1  0.5012190000000  0.4745480000000  0.5036430000000 1.0
C      1  0.4905210000000  0.4501410000000  0.4859820000000 1.0
END
