TITL C-3289323-3850-670 0.000196482594375575 125000 -550.383282334663 0 0 98 (C1) n - 1
REM
REM in /nfs/bkarasulu/CARBON/AIRSS/Generating-Clusters/AIREBO/with-SteepDescent/Higher-Symm/SD-CG/HFTN-CG
REM
REM
REM
REM
REM
REM ./C.cell (b20cbc046b6831c77cfcea5457e17084)
REM
REM compiler GCC version 9.2.1 20190827 (Red Hat 9.2.1-1)
REM options -cpp -mtune=generic -march=x86-64 -g -O0 -fpre-include=/usr/include/finclude/math-vector-fortran.h
REM seed 877214011 -259640107 1828546800 -551105190 1245759613 -823599586 829231215 -380718548 -1183942413 -2017934193 352806771 378502886 573286092 730516284 1182274270 1665275490 -1644091310 457843580 1071020415 13755583 1084663200 -2080549801 -1010898083 1339823661 852311246 1064546084 1626085959 -2076770461 1013745512 -839006520 -727550459 -1374259697 -1919740844
REM
CELL 1.54180   50.00000   50.00000   50.00000   90.00000   90.00000   90.00000
LATT -1
SFAC C  
C      1  0.5558850000000  0.4272980000000  0.4823010000000 1.0
C      1  0.5386470000000  0.5762330000000  0.4883120000000 1.0
C      1  0.4164390000000  0.4964380000000  0.4798490000000 1.0
C      1  0.5546580000000  0.4277590000000  0.5109360000000 1.0
C      1  0.5364360000000  0.5752800000000  0.5164340000000 1.0
C      1  0.4124640000000  0.4969450000000  0.5086040000000 1.0
C      1  0.5150700000000  0.5173460000000  0.4162450000000 1.0
C      1  0.4801070000000  0.5268950000000  0.3994450000000 1.0
C      1  0.5005270000000  0.4716400000000  0.4206240000000 1.0
C      1  0.5271660000000  0.5430500000000  0.5890170000000 1.0
C      1  0.4680540000000  0.4984700000000  0.5808120000000 1.0
C      1  0.5248730000000  0.4625820000000  0.5846910000000 1.0
C      1  0.5376250000000  0.5007310000000  0.4216700000000 1.0
C      1  0.4806010000000  0.5477480000000  0.4178810000000 1.0
C      1  0.4796080000000  0.4544990000000  0.4292500000000 1.0
C      1  0.5358580000000  0.5162900000000  0.5932810000000 1.0
C      1  0.4823750000000  0.5293070000000  0.5805550000000 1.0
C      1  0.4977250000000  0.4527910000000  0.5877450000000 1.0
C      1  0.5167190000000  0.5055640000000  0.4597960000000 1.0
C      1  0.4780670000000  0.5058980000000  0.4454510000000 1.0
C      1  0.4955370000000  0.4814870000000  0.4590100000000 1.0
C      1  0.5261980000000  0.5066200000000  0.5655690000000 1.0
C      1  0.4778210000000  0.5193860000000  0.5487070000000 1.0
C      1  0.4948140000000  0.4643470000000  0.5583680000000 1.0
C      1  0.4717550000000  0.4749490000000  0.5360930000000 1.0
C      1  0.5395900000000  0.4905640000000  0.5412040000000 1.0
C      1  0.4906210000000  0.5428380000000  0.5321500000000 1.0
C      1  0.4662900000000  0.4770800000000  0.4705630000000 1.0
C      1  0.5369150000000  0.4848360000000  0.4699040000000 1.0
C      1  0.4893240000000  0.5341990000000  0.4605660000000 1.0
C      1  0.5196330000000  0.4925830000000  0.5182840000000 1.0
C      1  0.5009490000000  0.5187120000000  0.5139750000000 1.0
C      1  0.4800240000000  0.4955760000000  0.5146720000000 1.0
C      1  0.5237890000000  0.4731790000000  0.4939570000000 1.0
C      1  0.5097290000000  0.5255330000000  0.4858260000000 1.0
C      1  0.4635330000000  0.5003480000000  0.4894530000000 1.0
C      1  0.4836850000000  0.4368520000000  0.6041500000000 1.0
C      1  0.5463940000000  0.5030930000000  0.6143300000000 1.0
C      1  0.4760900000000  0.5461570000000  0.6045880000000 1.0
C      1  0.4879580000000  0.4317700000000  0.4464850000000 1.0
C      1  0.5602720000000  0.5171950000000  0.4314610000000 1.0
C      1  0.4577780000000  0.5488460000000  0.4351210000000 1.0
C      1  0.5735160000000  0.4719730000000  0.4851440000000 1.0
C      1  0.4907010000000  0.5754380000000  0.4858490000000 1.0
C      1  0.4265550000000  0.4499820000000  0.4836180000000 1.0
C      1  0.5759190000000  0.4707710000000  0.5123080000000 1.0
C      1  0.4890200000000  0.5777500000000  0.5127750000000 1.0
C      1  0.4317220000000  0.4530590000000  0.5124230000000 1.0
C      1  0.4708830000000  0.5568650000000  0.4720370000000 1.0
C      1  0.4592990000000  0.4478370000000  0.4840530000000 1.0
C      1  0.5653450000000  0.4995740000000  0.4743290000000 1.0
C      1  0.4651660000000  0.5633690000000  0.5267930000000 1.0
C      1  0.4647000000000  0.4469660000000  0.5180680000000 1.0
C      1  0.5686120000000  0.4960790000000  0.5284670000000 1.0
C      1  0.4331100000000  0.5162710000000  0.4690090000000 1.0
C      1  0.5289250000000  0.4231210000000  0.4735340000000 1.0
C      1  0.5560020000000  0.5557920000000  0.4790740000000 1.0
C      1  0.4206140000000  0.5203780000000  0.5214240000000 1.0
C      1  0.5283470000000  0.4244390000000  0.5212520000000 1.0
C      1  0.5498760000000  0.5535660000000  0.5279740000000 1.0
C      1  0.5290640000000  0.4726640000000  0.4391240000000 1.0
C      1  0.5095840000000  0.5448870000000  0.4354330000000 1.0
C      1  0.4568930000000  0.4679830000000  0.4411030000000 1.0
C      1  0.5373440000000  0.4627470000000  0.5559470000000 1.0
C      1  0.5075840000000  0.5426750000000  0.5616240000000 1.0
C      1  0.4508100000000  0.4906520000000  0.5549750000000 1.0
C      1  0.5796450000000  0.5075780000000  0.4481070000000 1.0
C      1  0.4514710000000  0.5731340000000  0.4513020000000 1.0
C      1  0.4701150000000  0.4244010000000  0.4660120000000 1.0
C      1  0.5913140000000  0.5048170000000  0.5467560000000 1.0
C      1  0.4502890000000  0.5817550000000  0.5457020000000 1.0
C      1  0.4563600000000  0.4215000000000  0.5371570000000 1.0
C      1  0.4480650000000  0.5193590000000  0.5398180000000 1.0
C      1  0.5141770000000  0.4477390000000  0.5399560000000 1.0
C      1  0.5331380000000  0.5299400000000  0.5431480000000 1.0
C      1  0.4527120000000  0.5242930000000  0.4478880000000 1.0
C      1  0.5080750000000  0.4530120000000  0.4572940000000 1.0
C      1  0.5366920000000  0.5295990000000  0.4491520000000 1.0
C      1  0.4229390000000  0.4776260000000  0.5519700000000 1.0
C      1  0.5644650000000  0.4482080000000  0.5525600000000 1.0
C      1  0.5094550000000  0.5759540000000  0.5560450000000 1.0
C      1  0.4284640000000  0.4690690000000  0.4406830000000 1.0
C      1  0.5577650000000  0.4546620000000  0.4420310000000 1.0
C      1  0.5159670000000  0.5754110000000  0.4448590000000 1.0
C      1  0.4563740000000  0.5322220000000  0.4868960000000 1.0
C      1  0.5112280000000  0.4457220000000  0.4885520000000 1.0
C      1  0.5435640000000  0.5243510000000  0.4826550000000 1.0
C      1  0.4460870000000  0.5411820000000  0.5142920000000 1.0
C      1  0.4969180000000  0.4366670000000  0.5142530000000 1.0
C      1  0.5520120000000  0.5219540000000  0.5156380000000 1.0
C      1  0.5678360000000  0.4496390000000  0.4687940000000 1.0
C      1  0.5150480000000  0.5807410000000  0.4728430000000 1.0
C      1  0.4169040000000  0.4705840000000  0.4669510000000 1.0
C      1  0.5713380000000  0.4460570000000  0.5251070000000 1.0
C      1  0.5117120000000  0.5823050000000  0.5283950000000 1.0
C      1  0.4167410000000  0.4732240000000  0.5245770000000 1.0
C      1  0.4972540000000  0.4965410000000  0.5631680000000 1.0
C      1  0.4890820000000  0.4999690000000  0.4149380000000 1.0
END
