TITL C-3289327-5623-428 -0.000390898011936347 125000 -1066.0088754355 0 0 191 (C1) n - 1
REM
REM in /nfs/bkarasulu/CARBON/AIRSS/Generating-Clusters/AIREBO/with-SteepDescent/Higher-Symm/SD-CG/HFTN-CG
REM
REM
REM
REM
REM
REM ./C.cell (b20cbc046b6831c77cfcea5457e17084)
REM
REM compiler GCC version 9.2.1 20190827 (Red Hat 9.2.1-1)
REM options -cpp -mtune=generic -march=x86-64 -g -O0 -fpre-include=/usr/include/finclude/math-vector-fortran.h
REM seed 560536577 854704428 284564467 -1063653727 1223772654 -335838857 -1043893676 -823945031 -1017352442 540388019 525720618 -737189552 526734938 1764694369 653801936 -585696251 130637173 1103428413 -482550932 -999165809 1311079309 224083927 -1973132443 1614866599 350613668 -1307239012 1566932284 75192581 1339011408 1634066822 -1587036641 1196301218 -352046940
REM
CELL 1.54180   50.00000   50.00000   50.00000   90.00000   90.00000   90.00000
LATT -1
SFAC C  
C      1  0.5610660000000  0.5935820000000  0.5408340000000 1.0
C      1  0.5486130000000  0.4260080000000  0.5633420000000 1.0
C      1  0.5509830000000  0.4770480000000  0.3967920000000 1.0
C      1  0.4386390000000  0.5896410000000  0.5377210000000 1.0
C      1  0.4475680000000  0.4229530000000  0.5649540000000 1.0
C      1  0.4479540000000  0.4859210000000  0.4012290000000 1.0
C      1  0.4535450000000  0.4287980000000  0.4620140000000 1.0
C      1  0.4541140000000  0.5747170000000  0.4570010000000 1.0
C      1  0.4515520000000  0.5001950000000  0.5913450000000 1.0
C      1  0.5516480000000  0.4220420000000  0.4532190000000 1.0
C      1  0.5497370000000  0.5801540000000  0.4601860000000 1.0
C      1  0.5475500000000  0.5012950000000  0.5903080000000 1.0
C      1  0.5346290000000  0.4506700000000  0.4297950000000 1.0
C      1  0.5428770000000  0.5679080000000  0.5012640000000 1.0
C      1  0.5389470000000  0.4719810000000  0.5626410000000 1.0
C      1  0.4661750000000  0.4561770000000  0.4357950000000 1.0
C      1  0.4605490000000  0.5751220000000  0.4962580000000 1.0
C      1  0.4476150000000  0.4730290000000  0.5505200000000 1.0
C      1  0.5246030000000  0.4618020000000  0.3928470000000 1.0
C      1  0.5298460000000  0.6010510000000  0.5292860000000 1.0
C      1  0.5227200000000  0.4294780000000  0.5798280000000 1.0
C      1  0.4712300000000  0.4666260000000  0.3976350000000 1.0
C      1  0.4695470000000  0.5980240000000  0.5276160000000 1.0
C      1  0.4704140000000  0.4359890000000  0.5794970000000 1.0
C      1  0.4191340000000  0.5023900000000  0.4390540000000 1.0
C      1  0.4027850000000  0.5509680000000  0.5299690000000 1.0
C      1  0.4212490000000  0.4440500000000  0.5240130000000 1.0
C      1  0.5823050000000  0.4968480000000  0.4334150000000 1.0
C      1  0.6001820000000  0.5510250000000  0.5319480000000 1.0
C      1  0.5724530000000  0.4533820000000  0.5272710000000 1.0
C      1  0.4718130000000  0.4616120000000  0.5358330000000 1.0
C      1  0.4783960000000  0.4834510000000  0.4433750000000 1.0
C      1  0.4771140000000  0.5577900000000  0.5120230000000 1.0
C      1  0.5241510000000  0.4605340000000  0.5378090000000 1.0
C      1  0.5260760000000  0.4786040000000  0.4389740000000 1.0
C      1  0.5272660000000  0.5533880000000  0.5211170000000 1.0
C      1  0.5398040000000  0.4191650000000  0.4214730000000 1.0
C      1  0.5309090000000  0.5946470000000  0.4854570000000 1.0
C      1  0.5291660000000  0.4726740000000  0.5904580000000 1.0
C      1  0.4554990000000  0.4248850000000  0.4282890000000 1.0
C      1  0.4683230000000  0.6004160000000  0.4752930000000 1.0
C      1  0.4659640000000  0.4729680000000  0.6070250000000 1.0
C      1  0.5381790000000  0.5102130000000  0.4600790000000 1.0
C      1  0.5416870000000  0.5162300000000  0.5187050000000 1.0
C      1  0.5566010000000  0.4778660000000  0.5000010000000 1.0
C      1  0.4533640000000  0.5012780000000  0.4724300000000 1.0
C      1  0.4497840000000  0.5262060000000  0.5136170000000 1.0
C      1  0.4415810000000  0.4803170000000  0.5043070000000 1.0
C      1  0.4706110000000  0.5367060000000  0.5367310000000 1.0
C      1  0.4524410000000  0.4488680000000  0.5113130000000 1.0
C      1  0.4530880000000  0.5047860000000  0.4398760000000 1.0
C      1  0.5381130000000  0.5360000000000  0.5461370000000 1.0
C      1  0.5411870000000  0.4528130000000  0.5132030000000 1.0
C      1  0.5495940000000  0.4998740000000  0.4297670000000 1.0
C      1  0.4385440000000  0.5227740000000  0.5771130000000 1.0
C      1  0.4466830000000  0.4212960000000  0.4926240000000 1.0
C      1  0.4398280000000  0.5538260000000  0.4392120000000 1.0
C      1  0.5555200000000  0.5269140000000  0.5723030000000 1.0
C      1  0.5643970000000  0.4206120000000  0.4805730000000 1.0
C      1  0.5646990000000  0.5559660000000  0.4470640000000 1.0
C      1  0.5798850000000  0.4965180000000  0.5809430000000 1.0
C      1  0.5701760000000  0.4347940000000  0.4284010000000 1.0
C      1  0.5647110000000  0.5910940000000  0.4866050000000 1.0
C      1  0.4364860000000  0.4714080000000  0.5952180000000 1.0
C      1  0.4251620000000  0.4291490000000  0.4459930000000 1.0
C      1  0.4353690000000  0.5923780000000  0.4776570000000 1.0
C      1  0.4843250000000  0.5013380000000  0.5862540000000 1.0
C      1  0.4868440000000  0.4329500000000  0.4607600000000 1.0
C      1  0.4876120000000  0.5698280000000  0.4589730000000 1.0
C      1  0.5152650000000  0.5084250000000  0.5982860000000 1.0
C      1  0.5181510000000  0.4269840000000  0.4563970000000 1.0
C      1  0.5180960000000  0.5691610000000  0.4581510000000 1.0
C      1  0.5174380000000  0.5052480000000  0.5644950000000 1.0
C      1  0.5209480000000  0.4593540000000  0.4666090000000 1.0
C      1  0.5208600000000  0.5423280000000  0.4763490000000 1.0
C      1  0.4857980000000  0.4981030000000  0.5523830000000 1.0
C      1  0.4811970000000  0.4647610000000  0.4716530000000 1.0
C      1  0.4816460000000  0.5409520000000  0.4695170000000 1.0
C      1  0.4061090000000  0.4731000000000  0.5207660000000 1.0
C      1  0.4071800000000  0.4922400000000  0.4658550000000 1.0
C      1  0.4000230000000  0.5291670000000  0.5062820000000 1.0
C      1  0.5938400000000  0.4777650000000  0.5170230000000 1.0
C      1  0.5906380000000  0.4936450000000  0.4631540000000 1.0
C      1  0.5974610000000  0.5332000000000  0.5065220000000 1.0
C      1  0.4827270000000  0.4942730000000  0.4885270000000 1.0
C      1  0.4814030000000  0.5264100000000  0.4996310000000 1.0
C      1  0.4898620000000  0.4857830000000  0.5209340000000 1.0
C      1  0.5133360000000  0.4916030000000  0.4739410000000 1.0
C      1  0.5144010000000  0.5299480000000  0.5034050000000 1.0
C      1  0.5204510000000  0.4940410000000  0.5333490000000 1.0
C      1  0.6010660000000  0.5328520000000  0.5542500000000 1.0
C      1  0.5985080000000  0.4382050000000  0.5146740000000 1.0
C      1  0.5966220000000  0.5227610000000  0.4243770000000 1.0
C      1  0.4106980000000  0.5367270000000  0.5522280000000 1.0
C      1  0.4022490000000  0.4271670000000  0.5013580000000 1.0
C      1  0.3994640000000  0.5245710000000  0.4263540000000 1.0
C      1  0.5155640000000  0.4900890000000  0.4094100000000 1.0
C      1  0.5157880000000  0.5740000000000  0.5422890000000 1.0
C      1  0.5125150000000  0.4329930000000  0.5480890000000 1.0
C      1  0.4853230000000  0.4939040000000  0.4122610000000 1.0
C      1  0.4860600000000  0.5731310000000  0.5410200000000 1.0
C      1  0.4819850000000  0.4341910000000  0.5480950000000 1.0
C      1  0.5749610000000  0.5659290000000  0.5048250000000 1.0
C      1  0.5684470000000  0.4787440000000  0.5577710000000 1.0
C      1  0.5617270000000  0.4622150000000  0.4466780000000 1.0
C      1  0.4297330000000  0.5672350000000  0.4972430000000 1.0
C      1  0.4326790000000  0.4596170000000  0.5706470000000 1.0
C      1  0.4363830000000  0.4590600000000  0.4419410000000 1.0
C      1  0.4473720000000  0.3992560000000  0.5136600000000 1.0
C      1  0.4461590000000  0.5453220000000  0.4094940000000 1.0
C      1  0.4436370000000  0.5560260000000  0.5820730000000 1.0
C      1  0.5544950000000  0.4048360000000  0.5090260000000 1.0
C      1  0.5612250000000  0.5537470000000  0.4131910000000 1.0
C      1  0.5544550000000  0.5571080000000  0.5808010000000 1.0
C      1  0.4123940000000  0.5411510000000  0.4460090000000 1.0
C      1  0.4129910000000  0.5453610000000  0.5806380000000 1.0
C      1  0.4018090000000  0.4240630000000  0.4682600000000 1.0
C      1  0.5935180000000  0.5454510000000  0.4348360000000 1.0
C      1  0.6014000000000  0.5131490000000  0.5778450000000 1.0
C      1  0.5957430000000  0.4303440000000  0.4871070000000 1.0
C      1  0.4339280000000  0.5283850000000  0.4655150000000 1.0
C      1  0.4352040000000  0.5187370000000  0.5434190000000 1.0
C      1  0.4240840000000  0.4449850000000  0.4834480000000 1.0
C      1  0.5587540000000  0.5332890000000  0.4691350000000 1.0
C      1  0.5745960000000  0.5199920000000  0.5490720000000 1.0
C      1  0.5717460000000  0.4519980000000  0.4875460000000 1.0
C      1  0.5393340000000  0.5371580000000  0.3981170000000 1.0
C      1  0.5319930000000  0.5797120000000  0.5931970000000 1.0
C      1  0.5252890000000  0.3886370000000  0.5167910000000 1.0
C      1  0.4731470000000  0.5433190000000  0.3888940000000 1.0
C      1  0.4677830000000  0.5754460000000  0.5921010000000 1.0
C      1  0.4731190000000  0.3836400000000  0.5258020000000 1.0
C      1  0.4874720000000  0.5311650000000  0.5601540000000 1.0
C      1  0.4837810000000  0.4450600000000  0.4986400000000 1.0
C      1  0.4814500000000  0.5231750000000  0.4436200000000 1.0
C      1  0.5171980000000  0.5376640000000  0.5711730000000 1.0
C      1  0.5171390000000  0.4397140000000  0.4941620000000 1.0
C      1  0.5145200000000  0.5305580000000  0.4465500000000 1.0
C      1  0.5641020000000  0.5340670000000  0.4998120000000 1.0
C      1  0.5664380000000  0.4947550000000  0.5278370000000 1.0
C      1  0.5593490000000  0.4851520000000  0.4690620000000 1.0
C      1  0.4285860000000  0.5372390000000  0.4942780000000 1.0
C      1  0.4308840000000  0.4909860000000  0.5336390000000 1.0
C      1  0.4338470000000  0.4734270000000  0.4719200000000 1.0
C      1  0.6203610000000  0.4941030000000  0.4746880000000 1.0
C      1  0.6241750000000  0.5173380000000  0.4971290000000 1.0
C      1  0.6220120000000  0.4864160000000  0.5058310000000 1.0
C      1  0.3790860000000  0.4892900000000  0.4789120000000 1.0
C      1  0.3749010000000  0.5117620000000  0.5008560000000 1.0
C      1  0.3780780000000  0.4813850000000  0.5099310000000 1.0
C      1  0.5368770000000  0.4113410000000  0.5377890000000 1.0
C      1  0.5428830000000  0.5084280000000  0.3995140000000 1.0
C      1  0.5408970000000  0.5812820000000  0.5618170000000 1.0
C      1  0.4612850000000  0.4073030000000  0.5433120000000 1.0
C      1  0.4607160000000  0.5151430000000  0.4021260000000 1.0
C      1  0.4587900000000  0.5765910000000  0.5595220000000 1.0
C      1  0.4842860000000  0.6070540000000  0.5043500000000 1.0
C      1  0.4834400000000  0.4524910000000  0.5978260000000 1.0
C      1  0.4817630000000  0.4389600000000  0.4113260000000 1.0
C      1  0.5133970000000  0.6094760000000  0.5057210000000 1.0
C      1  0.5127330000000  0.4505770000000  0.5963070000000 1.0
C      1  0.5129770000000  0.4360360000000  0.4083250000000 1.0
C      1  0.5161550000000  0.6002650000000  0.4150620000000 1.0
C      1  0.5161950000000  0.5111460000000  0.6309750000000 1.0
C      1  0.5126700000000  0.3736750000000  0.4518080000000 1.0
C      1  0.4886590000000  0.5978470000000  0.4148710000000 1.0
C      1  0.4880650000000  0.5165600000000  0.6348140000000 1.0
C      1  0.4853630000000  0.3767890000000  0.4542760000000 1.0
C      1  0.5255730000000  0.3944250000000  0.4628830000000 1.0
C      1  0.5281070000000  0.5795890000000  0.4275380000000 1.0
C      1  0.5312720000000  0.5346410000000  0.6238650000000 1.0
C      1  0.4799150000000  0.4003990000000  0.4677640000000 1.0
C      1  0.4800230000000  0.5756220000000  0.4275210000000 1.0
C      1  0.4768940000000  0.5234470000000  0.6109970000000 1.0
C      1  0.5273690000000  0.4100040000000  0.4910280000000 1.0
C      1  0.5233610000000  0.5488860000000  0.4241770000000 1.0
C      1  0.5203820000000  0.5494050000000  0.5997920000000 1.0
C      1  0.4876230000000  0.4116510000000  0.4942900000000 1.0
C      1  0.4839060000000  0.5456920000000  0.4206820000000 1.0
C      1  0.4821610000000  0.5447940000000  0.5889650000000 1.0
C      1  0.5823850000000  0.5764070000000  0.5327010000000 1.0
C      1  0.5680260000000  0.4452580000000  0.5577090000000 1.0
C      1  0.5719390000000  0.4701920000000  0.4152420000000 1.0
C      1  0.4196580000000  0.5734890000000  0.5242200000000 1.0
C      1  0.4234970000000  0.4364110000000  0.5547150000000 1.0
C      1  0.4288750000000  0.4795140000000  0.4205630000000 1.0
C      1  0.5063890000000  0.5412820000000  0.3955590000000 1.0
C      1  0.4954170000000  0.3919100000000  0.5125470000000 1.0
C      1  0.4993650000000  0.5743970000000  0.5933760000000 1.0
C      1  0.5873700000000  0.5028430000000  0.4949810000000 1.0
C      1  0.4125070000000  0.4983410000000  0.4988920000000 1.0
END
