TITL C-3289321-8710-49 -0.00250997897844778 125000 -871.998504400308 0 0 160 (C1) n - 1
REM
REM in /nfs/bkarasulu/CARBON/AIRSS/Generating-Clusters/AIREBO/with-SteepDescent/Higher-Symm/SD-CG/HFTN-CG
REM
REM
REM
REM
REM
REM ./C.cell (b20cbc046b6831c77cfcea5457e17084)
REM
REM compiler GCC version 9.2.1 20190827 (Red Hat 9.2.1-1)
REM options -cpp -mtune=generic -march=x86-64 -g -O0 -fpre-include=/usr/include/finclude/math-vector-fortran.h
REM seed 1886769150 -1933491014 -1489481913 1600703927 1275504911 1774698396 35291809 -2106140338 -226126909 -1051012343 -1709773507 1027139975 913307795 -1944408258 -847997393 1162757951 447025230 -1569907145 166684913 -1840880674 1519596057 -1379404024 533453887 -1341526487 -1788001901 251735781 -1940433150 -266895687 -53112844 493317128 -666894679 -1882196511 -1616177327
REM
CELL 1.54180   50.00000   50.00000   50.00000   90.00000   90.00000   90.00000
LATT -1
SFAC C  
C      1  0.5077160000000  0.4395000000000  0.4734850000000 1.0
C      1  0.4695910000000  0.4511900000000  0.5439460000000 1.0
C      1  0.4508150000000  0.4807790000000  0.4612680000000 1.0
C      1  0.4449180000000  0.5121610000000  0.5360340000000 1.0
C      1  0.4660990000000  0.5527380000000  0.4712550000000 1.0
C      1  0.4971340000000  0.5590640000000  0.5367760000000 1.0
C      1  0.5364140000000  0.5435850000000  0.4692460000000 1.0
C      1  0.5448170000000  0.5180640000000  0.5275940000000 1.0
C      1  0.5488260000000  0.4787020000000  0.4720050000000 1.0
C      1  0.5294730000000  0.4501830000000  0.5373220000000 1.0
C      1  0.5206710000000  0.4878680000000  0.5184610000000 1.0
C      1  0.5095990000000  0.4730430000000  0.4687530000000 1.0
C      1  0.4953920000000  0.4699640000000  0.5328310000000 1.0
C      1  0.4781790000000  0.4751740000000  0.4755010000000 1.0
C      1  0.4722650000000  0.4946410000000  0.5258190000000 1.0
C      1  0.4761270000000  0.5083530000000  0.4751030000000 1.0
C      1  0.4862440000000  0.5209130000000  0.5345160000000 1.0
C      1  0.5020730000000  0.5221290000000  0.4832040000000 1.0
C      1  0.5142780000000  0.5212170000000  0.5209140000000 1.0
C      1  0.5249220000000  0.5026130000000  0.4756530000000 1.0
C      1  0.4721040000000  0.4389300000000  0.5751650000000 1.0
C      1  0.4467670000000  0.4713560000000  0.4288510000000 1.0
C      1  0.4547570000000  0.4956860000000  0.5613960000000 1.0
C      1  0.4546790000000  0.5372980000000  0.4482560000000 1.0
C      1  0.4820010000000  0.5548310000000  0.5642600000000 1.0
C      1  0.5232980000000  0.5487550000000  0.4452390000000 1.0
C      1  0.5468420000000  0.5287900000000  0.5549710000000 1.0
C      1  0.5543270000000  0.4959680000000  0.4446470000000 1.0
C      1  0.5447010000000  0.4607630000000  0.5578230000000 1.0
C      1  0.5257500000000  0.4516590000000  0.4307090000000 1.0
C      1  0.4439770000000  0.5074000000000  0.4452670000000 1.0
C      1  0.4502670000000  0.5452360000000  0.5420290000000 1.0
C      1  0.4930170000000  0.5684060000000  0.4633340000000 1.0
C      1  0.5293190000000  0.5622870000000  0.5406700000000 1.0
C      1  0.5693040000000  0.5326350000000  0.4495950000000 1.0
C      1  0.5750090000000  0.4833110000000  0.5408240000000 1.0
C      1  0.5474700000000  0.4502120000000  0.4549580000000 1.0
C      1  0.5057820000000  0.4159130000000  0.5495270000000 1.0
C      1  0.4642630000000  0.4327180000000  0.4461200000000 1.0
C      1  0.4448440000000  0.4701760000000  0.5412120000000 1.0
C      1  0.4989080000000  0.4208200000000  0.4978070000000 1.0
C      1  0.4548750000000  0.4321180000000  0.4992790000000 1.0
C      1  0.4286010000000  0.4764650000000  0.4809330000000 1.0
C      1  0.4236330000000  0.5275080000000  0.4974990000000 1.0
C      1  0.4560540000000  0.5654400000000  0.5009010000000 1.0
C      1  0.4962320000000  0.5855390000000  0.5073560000000 1.0
C      1  0.5460250000000  0.5677990000000  0.4859870000000 1.0
C      1  0.5673180000000  0.5259250000000  0.5072650000000 1.0
C      1  0.5744550000000  0.4822610000000  0.4912650000000 1.0
C      1  0.5427170000000  0.4386640000000  0.5096560000000 1.0
C      1  0.4177320000000  0.4467710000000  0.4768200000000 1.0
C      1  0.4013380000000  0.5098950000000  0.5084420000000 1.0
C      1  0.4220720000000  0.5668620000000  0.5003730000000 1.0
C      1  0.4700800000000  0.6008840000000  0.5126150000000 1.0
C      1  0.5329110000000  0.5946730000000  0.4822560000000 1.0
C      1  0.5744420000000  0.5557050000000  0.5110420000000 1.0
C      1  0.5958080000000  0.5040580000000  0.4905230000000 1.0
C      1  0.5738170000000  0.4442380000000  0.5035570000000 1.0
C      1  0.5257560000000  0.4028180000000  0.5044400000000 1.0
C      1  0.4651830000000  0.4091050000000  0.5156450000000 1.0
C      1  0.5140040000000  0.5404750000000  0.3959420000000 1.0
C      1  0.5425390000000  0.5259620000000  0.6052310000000 1.0
C      1  0.5473870000000  0.4966410000000  0.3959190000000 1.0
C      1  0.5405120000000  0.4694420000000  0.6044410000000 1.0
C      1  0.5175410000000  0.4611350000000  0.3917980000000 1.0
C      1  0.4874150000000  0.4540420000000  0.5952880000000 1.0
C      1  0.4640000000000  0.4827780000000  0.3871090000000 1.0
C      1  0.4555840000000  0.5014200000000  0.6052230000000 1.0
C      1  0.4627350000000  0.5286780000000  0.3963020000000 1.0
C      1  0.4889280000000  0.5419670000000  0.6032120000000 1.0
C      1  0.4847750000000  0.5446140000000  0.4127760000000 1.0
C      1  0.5175120000000  0.5438200000000  0.5906400000000 1.0
C      1  0.5383190000000  0.5248480000000  0.4089780000000 1.0
C      1  0.5527490000000  0.4987540000000  0.5921510000000 1.0
C      1  0.5419410000000  0.4703530000000  0.3993770000000 1.0
C      1  0.5184660000000  0.4534670000000  0.5871200000000 1.0
C      1  0.4877080000000  0.4641160000000  0.3992620000000 1.0
C      1  0.4585560000000  0.4719010000000  0.5930160000000 1.0
C      1  0.4501320000000  0.5045090000000  0.3959080000000 1.0
C      1  0.4631070000000  0.5268230000000  0.5889850000000 1.0
C      1  0.4075960000000  0.4971350000000  0.4724830000000 1.0
C      1  0.4139590000000  0.5439430000000  0.5257110000000 1.0
C      1  0.4622410000000  0.5924390000000  0.4811630000000 1.0
C      1  0.5214700000000  0.5993260000000  0.5076040000000 1.0
C      1  0.5787380000000  0.5677920000000  0.4846410000000 1.0
C      1  0.5946350000000  0.5132700000000  0.5230780000000 1.0
C      1  0.5827880000000  0.4550760000000  0.4726000000000 1.0
C      1  0.5414780000000  0.4128760000000  0.5318210000000 1.0
C      1  0.4750720000000  0.4002170000000  0.4862080000000 1.0
C      1  0.4284310000000  0.4440490000000  0.5042990000000 1.0
C      1  0.4145810000000  0.5346050000000  0.5564710000000 1.0
C      1  0.4537930000000  0.5835610000000  0.4494420000000 1.0
C      1  0.5023920000000  0.5890240000000  0.5749410000000 1.0
C      1  0.5500460000000  0.5697870000000  0.4229390000000 1.0
C      1  0.5861410000000  0.5223490000000  0.5526460000000 1.0
C      1  0.5818960000000  0.4670350000000  0.4436590000000 1.0
C      1  0.5547590000000  0.4221640000000  0.5582440000000 1.0
C      1  0.4973130000000  0.3808000000000  0.4750520000000 1.0
C      1  0.4321500000000  0.4329600000000  0.5751520000000 1.0
C      1  0.4048640000000  0.5019130000000  0.4395400000000 1.0
C      1  0.4735790000000  0.4173700000000  0.5422160000000 1.0
C      1  0.4314310000000  0.4306670000000  0.4552200000000 1.0
C      1  0.4153080000000  0.4950700000000  0.5320980000000 1.0
C      1  0.4162690000000  0.5494670000000  0.4727620000000 1.0
C      1  0.4666410000000  0.5734720000000  0.5324410000000 1.0
C      1  0.5137300000000  0.5941190000000  0.4592280000000 1.0
C      1  0.5623940000000  0.5684250000000  0.5356460000000 1.0
C      1  0.5963400000000  0.5176610000000  0.4637780000000 1.0
C      1  0.5870880000000  0.4538930000000  0.5287220000000 1.0
C      1  0.5320740000000  0.4172630000000  0.4758100000000 1.0
C      1  0.5387510000000  0.5928350000000  0.5290900000000 1.0
C      1  0.5912950000000  0.5513700000000  0.4655830000000 1.0
C      1  0.6060010000000  0.4817940000000  0.5269230000000 1.0
C      1  0.5608890000000  0.4292210000000  0.4754250000000 1.0
C      1  0.5184460000000  0.3886010000000  0.5344970000000 1.0
C      1  0.4543300000000  0.4081890000000  0.4664660000000 1.0
C      1  0.4164920000000  0.4616010000000  0.5259740000000 1.0
C      1  0.4003430000000  0.5259690000000  0.4602140000000 1.0
C      1  0.4314940000000  0.5717000000000  0.5318430000000 1.0
C      1  0.4842460000000  0.6073220000000  0.4621450000000 1.0
C      1  0.4773980000000  0.5123090000000  0.4413520000000 1.0
C      1  0.4897740000000  0.5226620000000  0.5682880000000 1.0
C      1  0.5061360000000  0.5271040000000  0.4325960000000 1.0
C      1  0.5234690000000  0.5180290000000  0.5712530000000 1.0
C      1  0.5266660000000  0.5015820000000  0.4297400000000 1.0
C      1  0.5324580000000  0.4864860000000  0.5694560000000 1.0
C      1  0.5093560000000  0.4766910000000  0.4362400000000 1.0
C      1  0.5033690000000  0.4741990000000  0.5647930000000 1.0
C      1  0.4788540000000  0.4814540000000  0.4269590000000 1.0
C      1  0.4819680000000  0.4907700000000  0.5771380000000 1.0
C      1  0.4294800000000  0.4989020000000  0.4188360000000 1.0
C      1  0.4407230000000  0.5386940000000  0.5724470000000 1.0
C      1  0.4764840000000  0.5675980000000  0.4340070000000 1.0
C      1  0.5208150000000  0.5686310000000  0.5726120000000 1.0
C      1  0.5569680000000  0.5432150000000  0.4243760000000 1.0
C      1  0.5737500000000  0.4995550000000  0.5674940000000 1.0
C      1  0.5587250000000  0.4548120000000  0.4230370000000 1.0
C      1  0.5268700000000  0.4271150000000  0.5705440000000 1.0
C      1  0.4768980000000  0.4420110000000  0.4206040000000 1.0
C      1  0.4379630000000  0.4596250000000  0.5728030000000 1.0
C      1  0.5546210000000  0.5191290000000  0.4771960000000 1.0
C      1  0.5551390000000  0.4889300000000  0.5160230000000 1.0
C      1  0.5286720000000  0.4658200000000  0.4961760000000 1.0
C      1  0.5025290000000  0.4379140000000  0.5239530000000 1.0
C      1  0.4738490000000  0.4423550000000  0.4753510000000 1.0
C      1  0.4459720000000  0.4827870000000  0.5096250000000 1.0
C      1  0.4519310000000  0.5137050000000  0.4967110000000 1.0
C      1  0.4734330000000  0.5372650000000  0.5087080000000 1.0
C      1  0.4988030000000  0.5542970000000  0.4937550000000 1.0
C      1  0.5287900000000  0.5496430000000  0.5091000000000 1.0
C      1  0.5845770000000  0.4967630000000  0.4421380000000 1.0
C      1  0.5712550000000  0.4467690000000  0.5561670000000 1.0
C      1  0.5197780000000  0.3888880000000  0.4669540000000 1.0
C      1  0.4541900000000  0.4135540000000  0.5694380000000 1.0
C      1  0.4322780000000  0.4467490000000  0.4269490000000 1.0
C      1  0.4042660000000  0.5088400000000  0.5583330000000 1.0
C      1  0.4334240000000  0.5614810000000  0.4504260000000 1.0
C      1  0.4748350000000  0.5857370000000  0.5635410000000 1.0
C      1  0.5254070000000  0.5766630000000  0.4369690000000 1.0
C      1  0.5707470000000  0.5474260000000  0.5572650000000 1.0
END
