TITL C-3289329-2751-698 -0.018723665649909 125000 -856.071222869518 0 0 162 (C1) n - 1
REM
REM in /nfs/bkarasulu/CARBON/AIRSS/Generating-Clusters/AIREBO/with-SteepDescent/Higher-Symm/SD-CG/HFTN-CG
REM
REM
REM
REM
REM
REM ./C.cell (b20cbc046b6831c77cfcea5457e17084)
REM
REM compiler GCC version 9.2.1 20190827 (Red Hat 9.2.1-1)
REM options -cpp -mtune=generic -march=x86-64 -g -O0 -fpre-include=/usr/include/finclude/math-vector-fortran.h
REM seed -914257869 -1346578747 597868018 -1224841080 1148330371 1002136972 1029760967 -1079611324 -655327755 -552391838 -556139301 -2015583990 467457278 514652312 -1635744620 -376440049 1026852370 1497702991 402282332 -1787085675 -1630623556 -1583092623 773254538 537906390 -526862518 -873919962 1051906332 965738759 -1880021647 -385197275 -283908476 -406344119 -1872473406
REM
CELL 1.54180   50.00000   50.00000   50.00000   90.00000   90.00000   90.00000
LATT -1
SFAC C  
C      1  0.5239860000000  0.5542900000000  0.5420490000000 1.0
C      1  0.4717670000000  0.5559750000000  0.5417240000000 1.0
C      1  0.4180710000000  0.4354080000000  0.5503090000000 1.0
C      1  0.5759290000000  0.4332670000000  0.5329220000000 1.0
C      1  0.5231340000000  0.4564100000000  0.5137180000000 1.0
C      1  0.4589100000000  0.4543660000000  0.5228610000000 1.0
C      1  0.5796560000000  0.4751640000000  0.4523850000000 1.0
C      1  0.4218370000000  0.4788340000000  0.4543560000000 1.0
C      1  0.5514480000000  0.5593550000000  0.5266560000000 1.0
C      1  0.4437010000000  0.5634840000000  0.5268980000000 1.0
C      1  0.4773770000000  0.5287420000000  0.5133260000000 1.0
C      1  0.5170210000000  0.5288200000000  0.5122580000000 1.0
C      1  0.4304060000000  0.4570110000000  0.5629480000000 1.0
C      1  0.5614850000000  0.4557660000000  0.5447070000000 1.0
C      1  0.5596680000000  0.4591750000000  0.6032500000000 1.0
C      1  0.4729760000000  0.4486850000000  0.6010070000000 1.0
C      1  0.5292020000000  0.5480840000000  0.4774430000000 1.0
C      1  0.4684780000000  0.5449450000000  0.4876800000000 1.0
C      1  0.4509640000000  0.4887480000000  0.5773940000000 1.0
C      1  0.5502210000000  0.4883700000000  0.5642110000000 1.0
C      1  0.5244790000000  0.4869730000000  0.4842710000000 1.0
C      1  0.4660510000000  0.4895840000000  0.4830780000000 1.0
C      1  0.5252090000000  0.4941360000000  0.5467050000000 1.0
C      1  0.4677950000000  0.4964250000000  0.5492240000000 1.0
C      1  0.4232230000000  0.4938750000000  0.5291320000000 1.0
C      1  0.5886090000000  0.4987850000000  0.5256300000000 1.0
C      1  0.4210320000000  0.5446150000000  0.5325100000000 1.0
C      1  0.5685980000000  0.5356520000000  0.5323920000000 1.0
C      1  0.5459470000000  0.4083300000000  0.4705140000000 1.0
C      1  0.4576910000000  0.4104460000000  0.4788040000000 1.0
C      1  0.5383480000000  0.4899560000000  0.4473120000000 1.0
C      1  0.4659280000000  0.4959060000000  0.4402980000000 1.0
C      1  0.4358560000000  0.4495260000000  0.4495450000000 1.0
C      1  0.5667350000000  0.4488340000000  0.4441850000000 1.0
C      1  0.5296770000000  0.5975200000000  0.4779280000000 1.0
C      1  0.4639510000000  0.5980810000000  0.4770270000000 1.0
C      1  0.4709140000000  0.4064750000000  0.5033200000000 1.0
C      1  0.5361560000000  0.4083280000000  0.4973710000000 1.0
C      1  0.4607200000000  0.4150570000000  0.5273340000000 1.0
C      1  0.5407550000000  0.4156260000000  0.5469630000000 1.0
C      1  0.4652730000000  0.5923650000000  0.5105240000000 1.0
C      1  0.5329910000000  0.5902500000000  0.5104060000000 1.0
C      1  0.5519330000000  0.5113960000000  0.5195840000000 1.0
C      1  0.4317600000000  0.5200520000000  0.5151550000000 1.0
C      1  0.5538350000000  0.4240570000000  0.5677810000000 1.0
C      1  0.4633370000000  0.4287620000000  0.5532480000000 1.0
C      1  0.4721480000000  0.4406520000000  0.4048610000000 1.0
C      1  0.5200770000000  0.4311060000000  0.4143790000000 1.0
C      1  0.5300190000000  0.4535320000000  0.4814590000000 1.0
C      1  0.4761720000000  0.4571560000000  0.4811470000000 1.0
C      1  0.3940210000000  0.5543570000000  0.5203690000000 1.0
C      1  0.5972040000000  0.5374280000000  0.5202840000000 1.0
C      1  0.5541870000000  0.4373210000000  0.4682030000000 1.0
C      1  0.4480270000000  0.4387290000000  0.4762160000000 1.0
C      1  0.4634050000000  0.4577040000000  0.5711320000000 1.0
C      1  0.5488370000000  0.4566020000000  0.5762670000000 1.0
C      1  0.4372770000000  0.4764040000000  0.4832560000000 1.0
C      1  0.5564400000000  0.4841040000000  0.4755630000000 1.0
C      1  0.4243050000000  0.5594170000000  0.4807810000000 1.0
C      1  0.5732120000000  0.5556230000000  0.4815170000000 1.0
C      1  0.4277040000000  0.4476760000000  0.4990020000000 1.0
C      1  0.5675090000000  0.4454350000000  0.4958080000000 1.0
C      1  0.5529850000000  0.5028710000000  0.4124250000000 1.0
C      1  0.4460840000000  0.5193080000000  0.4146590000000 1.0
C      1  0.5443800000000  0.5369960000000  0.4502070000000 1.0
C      1  0.4542170000000  0.5463960000000  0.4491470000000 1.0
C      1  0.5215710000000  0.5060230000000  0.6222790000000 1.0
C      1  0.4740660000000  0.5070360000000  0.6230740000000 1.0
C      1  0.4346190000000  0.5048940000000  0.4418860000000 1.0
C      1  0.5680750000000  0.5038810000000  0.4429130000000 1.0
C      1  0.5464020000000  0.4783320000000  0.5253230000000 1.0
C      1  0.4457150000000  0.4758390000000  0.5402490000000 1.0
C      1  0.5540420000000  0.5354050000000  0.4222450000000 1.0
C      1  0.4521800000000  0.5511080000000  0.4203700000000 1.0
C      1  0.5926560000000  0.5384310000000  0.4512590000000 1.0
C      1  0.4046420000000  0.5408380000000  0.4390380000000 1.0
C      1  0.5382180000000  0.6090170000000  0.4551890000000 1.0
C      1  0.4542350000000  0.6090250000000  0.4545370000000 1.0
C      1  0.5913860000000  0.5099250000000  0.4913460000000 1.0
C      1  0.3993470000000  0.5174090000000  0.4767970000000 1.0
C      1  0.5271940000000  0.4585730000000  0.4418820000000 1.0
C      1  0.4724190000000  0.4653000000000  0.4483410000000 1.0
C      1  0.6044080000000  0.5596300000000  0.4685810000000 1.0
C      1  0.3973160000000  0.5567010000000  0.4621230000000 1.0
C      1  0.5490490000000  0.4478570000000  0.4181390000000 1.0
C      1  0.4569770000000  0.4470250000000  0.4273890000000 1.0
C      1  0.5960810000000  0.4808470000000  0.4795710000000 1.0
C      1  0.4002210000000  0.4894850000000  0.4780190000000 1.0
C      1  0.5484530000000  0.5656110000000  0.4950930000000 1.0
C      1  0.4485860000000  0.5667040000000  0.4956700000000 1.0
C      1  0.5534710000000  0.5545950000000  0.5782930000000 1.0
C      1  0.4430680000000  0.5559820000000  0.5771260000000 1.0
C      1  0.4680140000000  0.3986390000000  0.4566240000000 1.0
C      1  0.5310470000000  0.3931790000000  0.4532970000000 1.0
C      1  0.4275310000000  0.5305680000000  0.4630520000000 1.0
C      1  0.5683180000000  0.5238330000000  0.4704650000000 1.0
C      1  0.4804260000000  0.4970060000000  0.4117530000000 1.0
C      1  0.5397500000000  0.4766060000000  0.4084930000000 1.0
C      1  0.5731280000000  0.5036240000000  0.5555110000000 1.0
C      1  0.4308780000000  0.5069030000000  0.5603240000000 1.0
C      1  0.5683840000000  0.5339850000000  0.5644000000000 1.0
C      1  0.4286380000000  0.5353020000000  0.5616740000000 1.0
C      1  0.5177940000000  0.5244150000000  0.5448070000000 1.0
C      1  0.4769310000000  0.5258970000000  0.5450970000000 1.0
C      1  0.6004190000000  0.5543480000000  0.4997690000000 1.0
C      1  0.3947880000000  0.5608430000000  0.4943180000000 1.0
C      1  0.5362280000000  0.5859410000000  0.5441680000000 1.0
C      1  0.4604380000000  0.5879340000000  0.5442620000000 1.0
C      1  0.4724400000000  0.5347450000000  0.4019110000000 1.0
C      1  0.5344440000000  0.5272300000000  0.3974040000000 1.0
C      1  0.5319850000000  0.5736170000000  0.5757060000000 1.0
C      1  0.4649230000000  0.5751900000000  0.5756410000000 1.0
C      1  0.4740500000000  0.5237260000000  0.4544130000000 1.0
C      1  0.5205600000000  0.5158900000000  0.4512190000000 1.0
C      1  0.5388840000000  0.5175190000000  0.4887890000000 1.0
C      1  0.4478160000000  0.5180070000000  0.4872930000000 1.0
C      1  0.5457930000000  0.4312670000000  0.5172730000000 1.0
C      1  0.4337430000000  0.4315130000000  0.5241030000000 1.0
C      1  0.5239800000000  0.6253410000000  0.4376860000000 1.0
C      1  0.4671780000000  0.6249090000000  0.4356400000000 1.0
C      1  0.5732390000000  0.4770360000000  0.5044740000000 1.0
C      1  0.4121620000000  0.4771420000000  0.5057990000000 1.0
C      1  0.4967280000000  0.4921210000000  0.5810360000000 1.0
C      1  0.5031340000000  0.4088070000000  0.4996070000000 1.0
C      1  0.5073780000000  0.4770530000000  0.4061200000000 1.0
C      1  0.5084330000000  0.4045160000000  0.5321790000000 1.0
C      1  0.4967480000000  0.5891090000000  0.4768610000000 1.0
C      1  0.5044890000000  0.3754940000000  0.4929270000000 1.0
C      1  0.4955490000000  0.4846900000000  0.5341460000000 1.0
C      1  0.4891700000000  0.4592410000000  0.5125130000000 1.0
C      1  0.4983690000000  0.5708100000000  0.5803720000000 1.0
C      1  0.4990000000000  0.5870850000000  0.5105290000000 1.0
C      1  0.4969430000000  0.4889100000000  0.4688710000000 1.0
C      1  0.5084370000000  0.5010680000000  0.3820690000000 1.0
C      1  0.4982850000000  0.4477670000000  0.6040680000000 1.0
C      1  0.5022500000000  0.4354670000000  0.4782700000000 1.0
C      1  0.4982040000000  0.5554770000000  0.5119640000000 1.0
C      1  0.5097210000000  0.4150730000000  0.5721500000000 1.0
C      1  0.4996540000000  0.4466820000000  0.4010620000000 1.0
C      1  0.4999670000000  0.6283390000000  0.5476260000000 1.0
C      1  0.4951080000000  0.4668610000000  0.5631080000000 1.0
C      1  0.4976720000000  0.5106350000000  0.6077000000000 1.0
C      1  0.4944980000000  0.6295280000000  0.4408800000000 1.0
C      1  0.4967100000000  0.5553480000000  0.4724280000000 1.0
C      1  0.4983280000000  0.5729040000000  0.5478690000000 1.0
C      1  0.4956320000000  0.5038450000000  0.5058860000000 1.0
C      1  0.5163310000000  0.4464960000000  0.5768100000000 1.0
C      1  0.5028350000000  0.5280670000000  0.4002580000000 1.0
C      1  0.4979660000000  0.5397140000000  0.5941320000000 1.0
C      1  0.5012840000000  0.4773390000000  0.4395790000000 1.0
C      1  0.4986170000000  0.6039970000000  0.5396990000000 1.0
C      1  0.5027770000000  0.3889020000000  0.5684670000000 1.0
C      1  0.4983570000000  0.5674130000000  0.6142180000000 1.0
C      1  0.5127120000000  0.4281240000000  0.4468440000000 1.0
C      1  0.4992310000000  0.5217580000000  0.4771790000000 1.0
C      1  0.5003780000000  0.3608730000000  0.5171980000000 1.0
C      1  0.4974820000000  0.5208960000000  0.5690420000000 1.0
C      1  0.4977360000000  0.3983590000000  0.4484970000000 1.0
C      1  0.5104370000000  0.3729180000000  0.4660590000000 1.0
C      1  0.4964960000000  0.5198890000000  0.4311230000000 1.0
C      1  0.5015290000000  0.3764630000000  0.5411100000000 1.0
C      1  0.4995670000000  0.6221280000000  0.4692060000000 1.0
END
