TITL C-3289332-8317-434 -0.000114108566540586 125000 -199.448354641286 0 0 38 (Cs) n - 1
REM
REM in /nfs/bkarasulu/CARBON/AIRSS/Generating-Clusters/AIREBO/with-SteepDescent/Higher-Symm/SD-CG/HFTN-CG
REM
REM
REM
REM
REM
REM ./C.cell (b20cbc046b6831c77cfcea5457e17084)
REM
REM compiler GCC version 9.2.1 20190827 (Red Hat 9.2.1-1)
REM options -cpp -mtune=generic -march=x86-64 -g -O0 -fpre-include=/usr/include/finclude/math-vector-fortran.h
REM seed 1969964831 1240093257 939330899 173566943 -874712069 2124415670 -778100032 1269419660 1852223346 -2124687535 84245701 262137140 1713855492 2006613409 439426178 332158500 -1958996420 493187902 907519609 1339464003 -1439289665 844036595 898955629 -2071049358 1106175725 -1299288381 2141239482 -1020517610 665571689 -1917918853 2078539614 -2028655998 -934735051
REM
CELL 1.54180   50.00000   50.00000   50.00000   90.00000   90.00000   90.00000
LATT -1
SFAC C  
C      1  0.5369270000000  0.4757200000000  0.5172000000000 1.0
C      1  0.5465010000000  0.5301260000000  0.5172210000000 1.0
C      1  0.4843820000000  0.5519790000000  0.5166790000000 1.0
C      1  0.4435920000000  0.4873270000000  0.5165010000000 1.0
C      1  0.4869220000000  0.4465900000000  0.5172930000000 1.0
C      1  0.5369400000000  0.4757150000000  0.4838590000000 1.0
C      1  0.5464870000000  0.5301560000000  0.4837700000000 1.0
C      1  0.4844440000000  0.5519860000000  0.4843950000000 1.0
C      1  0.4435860000000  0.4873330000000  0.4845200000000 1.0
C      1  0.4869270000000  0.4465990000000  0.4837210000000 1.0
C      1  0.5043400000000  0.4760330000000  0.4450870000000 1.0
C      1  0.5204070000000  0.4998700000000  0.4440240000000 1.0
C      1  0.5042060000000  0.5251350000000  0.4392760000000 1.0
C      1  0.4757110000000  0.5132190000000  0.4460040000000 1.0
C      1  0.4765730000000  0.4839200000000  0.4472960000000 1.0
C      1  0.5043240000000  0.4759960000000  0.5559570000000 1.0
C      1  0.5203870000000  0.4998380000000  0.5570500000000 1.0
C      1  0.5041530000000  0.5250730000000  0.5618090000000 1.0
C      1  0.4756800000000  0.5131740000000  0.5550490000000 1.0
C      1  0.4765520000000  0.4838780000000  0.5537440000000 1.0
C      1  0.5183750000000  0.5399060000000  0.4673150000000 1.0
C      1  0.4700940000000  0.5254370000000  0.4755540000000 1.0
C      1  0.4666140000000  0.4696110000000  0.4721630000000 1.0
C      1  0.5141770000000  0.4555570000000  0.4686360000000 1.0
C      1  0.5334890000000  0.5033320000000  0.4722470000000 1.0
C      1  0.5183010000000  0.5398960000000  0.5337960000000 1.0
C      1  0.4700720000000  0.5253980000000  0.5255000000000 1.0
C      1  0.4666040000000  0.4695910000000  0.5288630000000 1.0
C      1  0.5141660000000  0.4555460000000  0.5324000000000 1.0
C      1  0.5334680000000  0.5033460000000  0.5288220000000 1.0
C      1  0.4525550000000  0.5157830000000  0.5005060000000 1.0
C      1  0.5235490000000  0.4483380000000  0.5005220000000 1.0
C      1  0.5137520000000  0.5458700000000  0.5005150000000 1.0
C      1  0.4570260000000  0.4534440000000  0.5005010000000 1.0
C      1  0.5723020000000  0.5402160000000  0.5004950000000 1.0
C      1  0.5010430000000  0.5126320000000  0.4765890000000 1.0
C      1  0.5010320000000  0.5125980000000  0.5244790000000 1.0
C      1  0.5057700000000  0.4983000000000  0.5005230000000 1.0
END
