TITL C-3289322-3858-589 0.0047577598428929 125000 -750.390978177437 0 0 137 (C1) n - 1
REM
REM in /nfs/bkarasulu/CARBON/AIRSS/Generating-Clusters/AIREBO/with-SteepDescent/Higher-Symm/SD-CG/HFTN-CG
REM
REM
REM
REM
REM
REM ./C.cell (b20cbc046b6831c77cfcea5457e17084)
REM
REM compiler GCC version 9.2.1 20190827 (Red Hat 9.2.1-1)
REM options -cpp -mtune=generic -march=x86-64 -g -O0 -fpre-include=/usr/include/finclude/math-vector-fortran.h
REM seed -510746094 -827202266 2106575651 501932647 803416899 -614097232 -1773978741 2015754652 -118235966 -1711060615 584683770 -1500076607 -1542326235 -470613975 -1810508409 -32258455 440958835 249326771 -1795012163 1306452269 -1140836082 20574315 759492197 -470934277 -1215624605 1202402331 -1729912214 1642091241 -1258855616 2091938048 -2086692148 440950492 693264900
REM
CELL 1.54180   50.00000   50.00000   50.00000   90.00000   90.00000   90.00000
LATT -1
SFAC C  
C      1  0.5105010000000  0.4264920000000  0.5628070000000 1.0
C      1  0.4805930000000  0.4777200000000  0.4758560000000 1.0
C      1  0.4563120000000  0.4739390000000  0.5393770000000 1.0
C      1  0.5094220000000  0.5518930000000  0.5319730000000 1.0
C      1  0.5972400000000  0.4851350000000  0.4690010000000 1.0
C      1  0.5766200000000  0.4953490000000  0.5781450000000 1.0
C      1  0.5228140000000  0.4689100000000  0.4764630000000 1.0
C      1  0.4737320000000  0.4342060000000  0.4245350000000 1.0
C      1  0.4518310000000  0.5640250000000  0.5243130000000 1.0
C      1  0.4705640000000  0.5093840000000  0.5992360000000 1.0
C      1  0.5118010000000  0.4666120000000  0.5605420000000 1.0
C      1  0.4700870000000  0.5219820000000  0.4950980000000 1.0
C      1  0.4864340000000  0.5947280000000  0.5429810000000 1.0
C      1  0.4348470000000  0.5191770000000  0.5643340000000 1.0
C      1  0.4475500000000  0.5858620000000  0.4833600000000 1.0
C      1  0.5381440000000  0.4401210000000  0.5745190000000 1.0
C      1  0.5226930000000  0.5399840000000  0.4188560000000 1.0
C      1  0.4347550000000  0.4691660000000  0.4442990000000 1.0
C      1  0.5432330000000  0.5522470000000  0.4347640000000 1.0
C      1  0.5899610000000  0.5305090000000  0.5192070000000 1.0
C      1  0.4093090000000  0.5263630000000  0.5162650000000 1.0
C      1  0.5226730000000  0.4632070000000  0.5284900000000 1.0
C      1  0.5044600000000  0.4689700000000  0.4036100000000 1.0
C      1  0.4457710000000  0.4528380000000  0.5181510000000 1.0
C      1  0.5383460000000  0.4261430000000  0.4871410000000 1.0
C      1  0.5551030000000  0.5185720000000  0.5350630000000 1.0
C      1  0.3985750000000  0.4776260000000  0.4957480000000 1.0
C      1  0.5644000000000  0.5542340000000  0.4997770000000 1.0
C      1  0.4720200000000  0.4387870000000  0.5742980000000 1.0
C      1  0.4807540000000  0.4205050000000  0.5470120000000 1.0
C      1  0.4789160000000  0.5396900000000  0.5407220000000 1.0
C      1  0.4744020000000  0.5267430000000  0.4170610000000 1.0
C      1  0.5063440000000  0.5861110000000  0.4471950000000 1.0
C      1  0.5827270000000  0.4631160000000  0.4877130000000 1.0
C      1  0.5050230000000  0.4854150000000  0.4547550000000 1.0
C      1  0.5921640000000  0.5080750000000  0.4445350000000 1.0
C      1  0.5277410000000  0.4951990000000  0.5516480000000 1.0
C      1  0.4649740000000  0.4452400000000  0.4548540000000 1.0
C      1  0.5693140000000  0.4922000000000  0.4989240000000 1.0
C      1  0.4280960000000  0.4639040000000  0.5658630000000 1.0
C      1  0.5496360000000  0.5055360000000  0.4536530000000 1.0
C      1  0.5539500000000  0.5221130000000  0.5042230000000 1.0
C      1  0.4764530000000  0.5087850000000  0.4696690000000 1.0
C      1  0.4628210000000  0.4252990000000  0.5217440000000 1.0
C      1  0.5041320000000  0.5181180000000  0.4559100000000 1.0
C      1  0.4226950000000  0.4926600000000  0.4268720000000 1.0
C      1  0.4954930000000  0.5024250000000  0.5538710000000 1.0
C      1  0.4808240000000  0.5574810000000  0.4801920000000 1.0
C      1  0.4371300000000  0.5686300000000  0.4624000000000 1.0
C      1  0.5361850000000  0.4687730000000  0.5841460000000 1.0
C      1  0.4418650000000  0.4470810000000  0.5780170000000 1.0
C      1  0.5297650000000  0.5149230000000  0.4065440000000 1.0
C      1  0.4276740000000  0.4964610000000  0.4723320000000 1.0
C      1  0.4558650000000  0.5600600000000  0.4438140000000 1.0
C      1  0.4090330000000  0.5606420000000  0.5195380000000 1.0
C      1  0.5729660000000  0.5458280000000  0.5424020000000 1.0
C      1  0.5544290000000  0.5052170000000  0.4218110000000 1.0
C      1  0.5514940000000  0.4819740000000  0.4717610000000 1.0
C      1  0.4968170000000  0.5729540000000  0.5557910000000 1.0
C      1  0.5707960000000  0.5325010000000  0.4344400000000 1.0
C      1  0.5213460000000  0.4331770000000  0.4364520000000 1.0
C      1  0.5867590000000  0.5343580000000  0.4857470000000 1.0
C      1  0.5207660000000  0.4140190000000  0.4636420000000 1.0
C      1  0.5485320000000  0.5419130000000  0.5668060000000 1.0
C      1  0.5333920000000  0.5768770000000  0.5120510000000 1.0
C      1  0.4299050000000  0.5839250000000  0.5078220000000 1.0
C      1  0.5381990000000  0.5652950000000  0.5441610000000 1.0
C      1  0.4929540000000  0.4146860000000  0.4430450000000 1.0
C      1  0.4920470000000  0.4693340000000  0.5019720000000 1.0
C      1  0.4157950000000  0.4647170000000  0.5212020000000 1.0
C      1  0.4565740000000  0.5250560000000  0.5815970000000 1.0
C      1  0.4122710000000  0.5161350000000  0.4492620000000 1.0
C      1  0.5081850000000  0.4030330000000  0.5370690000000 1.0
C      1  0.4837730000000  0.5111380000000  0.3905200000000 1.0
C      1  0.4430830000000  0.4215940000000  0.4937730000000 1.0
C      1  0.5212590000000  0.4827890000000  0.5052110000000 1.0
C      1  0.4975400000000  0.4535900000000  0.4496060000000 1.0
C      1  0.5082510000000  0.4419240000000  0.4892510000000 1.0
C      1  0.4958310000000  0.5196050000000  0.5114350000000 1.0
C      1  0.4539740000000  0.5480920000000  0.4943380000000 1.0
C      1  0.4972520000000  0.5380160000000  0.4339730000000 1.0
C      1  0.5553050000000  0.4845860000000  0.5364690000000 1.0
C      1  0.4763360000000  0.5508190000000  0.5715050000000 1.0
C      1  0.5337810000000  0.5743530000000  0.4588060000000 1.0
C      1  0.5843630000000  0.4627880000000  0.5208490000000 1.0
C      1  0.5568250000000  0.4747450000000  0.4193780000000 1.0
C      1  0.5040800000000  0.5140860000000  0.6062800000000 1.0
C      1  0.4521240000000  0.5305020000000  0.5300950000000 1.0
C      1  0.4859310000000  0.5632870000000  0.4488950000000 1.0
C      1  0.4902750000000  0.4168280000000  0.4768720000000 1.0
C      1  0.5136490000000  0.4353920000000  0.5305740000000 1.0
C      1  0.5093000000000  0.4969690000000  0.3957230000000 1.0
C      1  0.4742480000000  0.4944600000000  0.4188500000000 1.0
C      1  0.4237640000000  0.5399940000000  0.5421810000000 1.0
C      1  0.4927460000000  0.4617080000000  0.5884780000000 1.0
C      1  0.4228550000000  0.5455980000000  0.4917160000000 1.0
C      1  0.4663460000000  0.4778980000000  0.4454940000000 1.0
C      1  0.5898340000000  0.5022310000000  0.5241230000000 1.0
C      1  0.4737370000000  0.5883710000000  0.5199300000000 1.0
C      1  0.4704390000000  0.4067280000000  0.4950230000000 1.0
C      1  0.5614390000000  0.4434980000000  0.4752060000000 1.0
C      1  0.5333640000000  0.4140810000000  0.5161400000000 1.0
C      1  0.5087950000000  0.5481110000000  0.4981760000000 1.0
C      1  0.4818970000000  0.4916390000000  0.5256340000000 1.0
C      1  0.5262900000000  0.5296890000000  0.4751840000000 1.0
C      1  0.5490340000000  0.4934410000000  0.5874460000000 1.0
C      1  0.5507940000000  0.4575650000000  0.4480920000000 1.0
C      1  0.5137300000000  0.5794420000000  0.4859120000000 1.0
C      1  0.5265690000000  0.4626610000000  0.4241650000000 1.0
C      1  0.5583700000000  0.5733990000000  0.4784370000000 1.0
C      1  0.4411860000000  0.4411350000000  0.4736470000000 1.0
C      1  0.4985820000000  0.5254310000000  0.5756440000000 1.0
C      1  0.4809750000000  0.4603220000000  0.5506300000000 1.0
C      1  0.5757090000000  0.4636860000000  0.5538810000000 1.0
C      1  0.5588780000000  0.5335180000000  0.4662720000000 1.0
C      1  0.4508980000000  0.5132540000000  0.4554330000000 1.0
C      1  0.4758910000000  0.4566970000000  0.4070990000000 1.0
C      1  0.4522990000000  0.5338960000000  0.4353990000000 1.0
C      1  0.5642750000000  0.5728580000000  0.5257040000000 1.0
C      1  0.4290230000000  0.4912920000000  0.5479910000000 1.0
C      1  0.4070190000000  0.4975390000000  0.5225820000000 1.0
C      1  0.5618520000000  0.4370980000000  0.5595080000000 1.0
C      1  0.5306460000000  0.5198370000000  0.5855330000000 1.0
C      1  0.4478910000000  0.4758200000000  0.4103160000000 1.0
C      1  0.4525750000000  0.5045120000000  0.5142060000000 1.0
C      1  0.5258250000000  0.5272040000000  0.5466200000000 1.0
C      1  0.5918830000000  0.4921780000000  0.5502870000000 1.0
C      1  0.4884350000000  0.4840160000000  0.6036140000000 1.0
C      1  0.4184280000000  0.4637440000000  0.4718180000000 1.0
C      1  0.5586390000000  0.4213020000000  0.5341410000000 1.0
C      1  0.4494540000000  0.5667840000000  0.5581230000000 1.0
C      1  0.4812580000000  0.5890800000000  0.4891620000000 1.0
C      1  0.5523350000000  0.4531160000000  0.5239140000000 1.0
C      1  0.4141390000000  0.5437380000000  0.4608040000000 1.0
C      1  0.6060160000000  0.5160150000000  0.4720890000000 1.0
C      1  0.4373670000000  0.4823690000000  0.5017220000000 1.0
C      1  0.5243480000000  0.5115710000000  0.5016670000000 1.0
END
