TITL C-3289323-3850-648 0.000396751636897743 125000 -821.125987860657 0 0 144 (C1) n - 1
REM
REM in /nfs/bkarasulu/CARBON/AIRSS/Generating-Clusters/AIREBO/with-SteepDescent/Higher-Symm/SD-CG/HFTN-CG
REM
REM
REM
REM
REM
REM ./C.cell (b20cbc046b6831c77cfcea5457e17084)
REM
REM compiler GCC version 9.2.1 20190827 (Red Hat 9.2.1-1)
REM options -cpp -mtune=generic -march=x86-64 -g -O0 -fpre-include=/usr/include/finclude/math-vector-fortran.h
REM seed 1767276644 868889667 -1250815879 332235038 149371380 -123848177 321590917 -1840892651 103271113 -640580667 100656529 -74911624 -638705671 -747568959 -1383460262 -523617858 1318596277 -181046963 -1152235244 1067730600 -1262340031 915460539 -762521121 339463481 -521709085 1102798778 773024124 324763092 -1326334761 1471045532 747678109 67100786 -564114479
REM
CELL 1.54180   50.00000   50.00000   50.00000   90.00000   90.00000   90.00000
LATT -1
SFAC C  
C      1  0.4731700000000  0.5126450000000  0.4771000000000 1.0
C      1  0.4745940000000  0.4856370000000  0.5224150000000 1.0
C      1  0.5258370000000  0.5131100000000  0.4793480000000 1.0
C      1  0.5268230000000  0.4877390000000  0.5257820000000 1.0
C      1  0.5705180000000  0.5015640000000  0.5764570000000 1.0
C      1  0.5699990000000  0.4968220000000  0.4261960000000 1.0
C      1  0.4296880000000  0.4987840000000  0.5783560000000 1.0
C      1  0.4305340000000  0.4987480000000  0.4246840000000 1.0
C      1  0.4054920000000  0.4978190000000  0.4706620000000 1.0
C      1  0.4042470000000  0.4989580000000  0.5308210000000 1.0
C      1  0.5953170000000  0.4959800000000  0.4708580000000 1.0
C      1  0.5957000000000  0.4983550000000  0.5308580000000 1.0
C      1  0.4444900000000  0.4526260000000  0.4269840000000 1.0
C      1  0.4457710000000  0.5500590000000  0.5720610000000 1.0
C      1  0.5586510000000  0.4500240000000  0.4255370000000 1.0
C      1  0.5541320000000  0.5545870000000  0.5684620000000 1.0
C      1  0.4260960000000  0.5318360000000  0.5556000000000 1.0
C      1  0.4242380000000  0.4558740000000  0.4512880000000 1.0
C      1  0.5750430000000  0.5358060000000  0.5502860000000 1.0
C      1  0.5734660000000  0.4541390000000  0.4525880000000 1.0
C      1  0.5574260000000  0.4755130000000  0.4122470000000 1.0
C      1  0.5580590000000  0.5255910000000  0.5849920000000 1.0
C      1  0.4439910000000  0.4770820000000  0.4117470000000 1.0
C      1  0.4420270000000  0.5216890000000  0.5906390000000 1.0
C      1  0.5341310000000  0.6029510000000  0.4807220000000 1.0
C      1  0.5228660000000  0.4040440000000  0.5108280000000 1.0
C      1  0.4724870000000  0.6010400000000  0.4811110000000 1.0
C      1  0.4780020000000  0.3928100000000  0.5220740000000 1.0
C      1  0.5141150000000  0.5881060000000  0.5355410000000 1.0
C      1  0.5205370000000  0.4261240000000  0.4522760000000 1.0
C      1  0.4858620000000  0.5896490000000  0.5371730000000 1.0
C      1  0.4904120000000  0.4158310000000  0.4452790000000 1.0
C      1  0.4450370000000  0.5238310000000  0.4305880000000 1.0
C      1  0.4457300000000  0.4751940000000  0.5707860000000 1.0
C      1  0.5531030000000  0.5201130000000  0.4329090000000 1.0
C      1  0.5544690000000  0.4772390000000  0.5710870000000 1.0
C      1  0.4822680000000  0.4800920000000  0.4462310000000 1.0
C      1  0.4806580000000  0.5225010000000  0.5574480000000 1.0
C      1  0.5146440000000  0.4741720000000  0.4548280000000 1.0
C      1  0.5106110000000  0.5278510000000  0.5513660000000 1.0
C      1  0.5111270000000  0.4080570000000  0.4795170000000 1.0
C      1  0.5280540000000  0.5888690000000  0.5074010000000 1.0
C      1  0.4817040000000  0.4112840000000  0.4962730000000 1.0
C      1  0.4713720000000  0.5885320000000  0.5101760000000 1.0
C      1  0.5339830000000  0.4618610000000  0.5878580000000 1.0
C      1  0.5311960000000  0.5346840000000  0.4176600000000 1.0
C      1  0.4678520000000  0.4620180000000  0.5874280000000 1.0
C      1  0.4659400000000  0.5384970000000  0.4141880000000 1.0
C      1  0.4731010000000  0.4420450000000  0.4386350000000 1.0
C      1  0.4705510000000  0.5664910000000  0.5555700000000 1.0
C      1  0.5330540000000  0.4374220000000  0.4271150000000 1.0
C      1  0.5281430000000  0.5657870000000  0.5523190000000 1.0
C      1  0.5081810000000  0.5529610000000  0.6122900000000 1.0
C      1  0.5167640000000  0.4749650000000  0.3780810000000 1.0
C      1  0.4889240000000  0.5367150000000  0.6162390000000 1.0
C      1  0.4913140000000  0.4644930000000  0.3805660000000 1.0
C      1  0.5599710000000  0.3879010000000  0.4800370000000 1.0
C      1  0.5723610000000  0.6007750000000  0.5300650000000 1.0
C      1  0.4346890000000  0.3963100000000  0.4799120000000 1.0
C      1  0.4206150000000  0.6016380000000  0.5239530000000 1.0
C      1  0.4499520000000  0.5571670000000  0.5227030000000 1.0
C      1  0.4448690000000  0.4468680000000  0.4767730000000 1.0
C      1  0.5585150000000  0.5521370000000  0.5253170000000 1.0
C      1  0.5545020000000  0.4377280000000  0.4756630000000 1.0
C      1  0.4837200000000  0.4536990000000  0.4117800000000 1.0
C      1  0.4845100000000  0.5551080000000  0.5802790000000 1.0
C      1  0.5150730000000  0.4527030000000  0.4112050000000 1.0
C      1  0.5161980000000  0.5561600000000  0.5806890000000 1.0
C      1  0.5144160000000  0.5270490000000  0.4540780000000 1.0
C      1  0.5151840000000  0.4787460000000  0.5536580000000 1.0
C      1  0.4857920000000  0.5241200000000  0.4494600000000 1.0
C      1  0.4875370000000  0.4678290000000  0.5461920000000 1.0
C      1  0.5216120000000  0.4474890000000  0.5418550000000 1.0
C      1  0.5227700000000  0.5595740000000  0.4597150000000 1.0
C      1  0.4794790000000  0.4347920000000  0.5458220000000 1.0
C      1  0.4752730000000  0.5554210000000  0.4576370000000 1.0
C      1  0.5194610000000  0.4970990000000  0.5767360000000 1.0
C      1  0.5183720000000  0.5003290000000  0.4334210000000 1.0
C      1  0.4809480000000  0.4935280000000  0.5672740000000 1.0
C      1  0.4787000000000  0.5028170000000  0.4265040000000 1.0
C      1  0.4519770000000  0.4156640000000  0.4828510000000 1.0
C      1  0.4409960000000  0.5866840000000  0.5204480000000 1.0
C      1  0.5450970000000  0.4092020000000  0.4780770000000 1.0
C      1  0.5550020000000  0.5824430000000  0.5235420000000 1.0
C      1  0.5507310000000  0.4859650000000  0.4940210000000 1.0
C      1  0.5509810000000  0.5158760000000  0.5102880000000 1.0
C      1  0.4491190000000  0.4843630000000  0.4917730000000 1.0
C      1  0.4494860000000  0.5136570000000  0.5092040000000 1.0
C      1  0.4728230000000  0.4043540000000  0.5441600000000 1.0
C      1  0.4673290000000  0.5866880000000  0.4612730000000 1.0
C      1  0.5309300000000  0.4175210000000  0.5301280000000 1.0
C      1  0.5377080000000  0.5876620000000  0.4609610000000 1.0
C      1  0.5140730000000  0.4477330000000  0.4763030000000 1.0
C      1  0.5151030000000  0.5494440000000  0.5254820000000 1.0
C      1  0.4831770000000  0.4547650000000  0.4686280000000 1.0
C      1  0.4829190000000  0.5512740000000  0.5277900000000 1.0
C      1  0.5681440000000  0.4579520000000  0.5252570000000 1.0
C      1  0.5732710000000  0.5394570000000  0.4746490000000 1.0
C      1  0.4291760000000  0.4575540000000  0.5276620000000 1.0
C      1  0.4280780000000  0.5407040000000  0.4748450000000 1.0
C      1  0.5458410000000  0.4688520000000  0.4650440000000 1.0
C      1  0.5433140000000  0.5267580000000  0.5420770000000 1.0
C      1  0.4511300000000  0.4752250000000  0.4590830000000 1.0
C      1  0.4539140000000  0.5280000000000  0.5397230000000 1.0
C      1  0.4726300000000  0.5269630000000  0.5901930000000 1.0
C      1  0.4715190000000  0.4825330000000  0.4001720000000 1.0
C      1  0.5282510000000  0.5261720000000  0.5791010000000 1.0
C      1  0.5288610000000  0.4813860000000  0.4071840000000 1.0
C      1  0.5525120000000  0.4728810000000  0.5424340000000 1.0
C      1  0.5527910000000  0.5240320000000  0.4616630000000 1.0
C      1  0.4490810000000  0.4736270000000  0.5415170000000 1.0
C      1  0.4477570000000  0.5265570000000  0.4592250000000 1.0
C      1  0.4157780000000  0.5173950000000  0.5117580000000 1.0
C      1  0.4157110000000  0.4800040000000  0.4910920000000 1.0
C      1  0.5846460000000  0.5165360000000  0.5118880000000 1.0
C      1  0.5840250000000  0.4804050000000  0.4924540000000 1.0
C      1  0.5854690000000  0.4849740000000  0.4472140000000 1.0
C      1  0.5907990000000  0.5089360000000  0.5563660000000 1.0
C      1  0.4146590000000  0.4877180000000  0.4460490000000 1.0
C      1  0.4095570000000  0.5073830000000  0.5573200000000 1.0
C      1  0.5143550000000  0.4467130000000  0.5086300000000 1.0
C      1  0.5167960000000  0.5600800000000  0.4932090000000 1.0
C      1  0.4812800000000  0.4404980000000  0.5137910000000 1.0
C      1  0.4828770000000  0.5634240000000  0.4898040000000 1.0
C      1  0.4552210000000  0.5440440000000  0.4940870000000 1.0
C      1  0.4538940000000  0.4541020000000  0.5069520000000 1.0
C      1  0.5476940000000  0.5459260000000  0.4947150000000 1.0
C      1  0.5471040000000  0.4530770000000  0.5020550000000 1.0
C      1  0.5931900000000  0.5220560000000  0.4850090000000 1.0
C      1  0.5930330000000  0.4715880000000  0.5189670000000 1.0
C      1  0.4079290000000  0.5235150000000  0.4847220000000 1.0
C      1  0.4077120000000  0.4732780000000  0.5177260000000 1.0
C      1  0.5159960000000  0.4816790000000  0.6040680000000 1.0
C      1  0.5113230000000  0.5164870000000  0.4043410000000 1.0
C      1  0.4867600000000  0.4849990000000  0.5962770000000 1.0
C      1  0.4830340000000  0.5201070000000  0.3975440000000 1.0
C      1  0.4849180000000  0.5571160000000  0.4271570000000 1.0
C      1  0.4861200000000  0.4420630000000  0.5765130000000 1.0
C      1  0.5143320000000  0.5569290000000  0.4280080000000 1.0
C      1  0.5157170000000  0.4441930000000  0.5734560000000 1.0
C      1  0.4829700000000  0.4814770000000  0.4897050000000 1.0
C      1  0.4834290000000  0.5158030000000  0.5093870000000 1.0
C      1  0.5168000000000  0.4835370000000  0.4935390000000 1.0
C      1  0.5171260000000  0.5178050000000  0.5131840000000 1.0
END
