TITL C-3289324-3781-604 -0.00164849665193673 125000 -438.947126538224 0 0 76 (C1) n - 1
REM
REM in /nfs/bkarasulu/CARBON/AIRSS/Generating-Clusters/AIREBO/with-SteepDescent/Higher-Symm/SD-CG/HFTN-CG
REM
REM
REM
REM
REM
REM ./C.cell (b20cbc046b6831c77cfcea5457e17084)
REM
REM compiler GCC version 9.2.1 20190827 (Red Hat 9.2.1-1)
REM options -cpp -mtune=generic -march=x86-64 -g -O0 -fpre-include=/usr/include/finclude/math-vector-fortran.h
REM seed 2128929919 -1569378663 -2044460999 1164043468 832666162 254773861 -113551540 -1966286791 -1937275118 37482998 1012009740 618933175 -1239682367 300080422 316623290 -216739421 -1821778713 -695897522 585476083 -1538662188 -1619218849 607604336 983956298 -889980272 1629704442 -556074783 -917895133 1546930197 652775674 1352313341 -1640932926 1729690411 1101099054
REM
CELL 1.54180   50.00000   50.00000   50.00000   90.00000   90.00000   90.00000
LATT -1
SFAC C  
C      1  0.5530550000000  0.4232860000000  0.4836660000000 1.0
C      1  0.5252470000000  0.5060730000000  0.6009700000000 1.0
C      1  0.5367370000000  0.5849610000000  0.5333470000000 1.0
C      1  0.5396370000000  0.5599940000000  0.4680310000000 1.0
C      1  0.5290330000000  0.4731150000000  0.4244610000000 1.0
C      1  0.4657630000000  0.4343850000000  0.4939630000000 1.0
C      1  0.4507580000000  0.5107110000000  0.6053140000000 1.0
C      1  0.4697070000000  0.5812490000000  0.5365130000000 1.0
C      1  0.4658180000000  0.5514400000000  0.4691000000000 1.0
C      1  0.4564030000000  0.4854470000000  0.4429140000000 1.0
C      1  0.4900740000000  0.5650640000000  0.4640310000000 1.0
C      1  0.4793830000000  0.4888350000000  0.4272710000000 1.0
C      1  0.4970860000000  0.4363480000000  0.4982700000000 1.0
C      1  0.4754200000000  0.5091460000000  0.6160410000000 1.0
C      1  0.4898930000000  0.5955770000000  0.5472750000000 1.0
C      1  0.5161370000000  0.5760830000000  0.4639190000000 1.0
C      1  0.5036010000000  0.4810190000000  0.4182640000000 1.0
C      1  0.5233820000000  0.4352070000000  0.4791490000000 1.0
C      1  0.5019410000000  0.5120540000000  0.6127170000000 1.0
C      1  0.5167550000000  0.5926140000000  0.5498380000000 1.0
C      1  0.5752490000000  0.4881570000000  0.5422810000000 1.0
C      1  0.5457220000000  0.5214680000000  0.4954270000000 1.0
C      1  0.5673080000000  0.5080360000000  0.4783510000000 1.0
C      1  0.5666810000000  0.4744290000000  0.4837360000000 1.0
C      1  0.5691630000000  0.4677720000000  0.5169930000000 1.0
C      1  0.4176690000000  0.4821560000000  0.5420900000000 1.0
C      1  0.4502780000000  0.5215980000000  0.5026590000000 1.0
C      1  0.4330270000000  0.5021770000000  0.4849930000000 1.0
C      1  0.4311730000000  0.4697540000000  0.4950630000000 1.0
C      1  0.4295320000000  0.4625670000000  0.5251080000000 1.0
C      1  0.4009120000000  0.4787440000000  0.4880190000000 1.0
C      1  0.3825390000000  0.4720010000000  0.5105570000000 1.0
C      1  0.3920890000000  0.4908230000000  0.5322050000000 1.0
C      1  0.3922450000000  0.5159000000000  0.5161720000000 1.0
C      1  0.4016270000000  0.5096670000000  0.4892950000000 1.0
C      1  0.5989810000000  0.4840760000000  0.4773980000000 1.0
C      1  0.6004970000000  0.4691460000000  0.5041800000000 1.0
C      1  0.6004300000000  0.4906610000000  0.5265210000000 1.0
C      1  0.6068700000000  0.5156100000000  0.5134000000000 1.0
C      1  0.5990290000000  0.5139660000000  0.4859530000000 1.0
C      1  0.5171000000000  0.5430050000000  0.4357530000000 1.0
C      1  0.5163960000000  0.4314450000000  0.4400420000000 1.0
C      1  0.5320960000000  0.4442680000000  0.5392810000000 1.0
C      1  0.4838760000000  0.5056100000000  0.5340570000000 1.0
C      1  0.5191710000000  0.6035300000000  0.4609220000000 1.0
C      1  0.4861740000000  0.5362360000000  0.4339170000000 1.0
C      1  0.4943960000000  0.4089070000000  0.4385770000000 1.0
C      1  0.5032410000000  0.4474530000000  0.5243280000000 1.0
C      1  0.4599280000000  0.5030370000000  0.5456220000000 1.0
C      1  0.5221970000000  0.6290020000000  0.4555480000000 1.0
C      1  0.5599930000000  0.4972800000000  0.5624290000000 1.0
C      1  0.5450310000000  0.5498470000000  0.4943990000000 1.0
C      1  0.5632350000000  0.5208740000000  0.4497430000000 1.0
C      1  0.5495950000000  0.4541360000000  0.4695610000000 1.0
C      1  0.5558820000000  0.4427410000000  0.5258840000000 1.0
C      1  0.4359750000000  0.4962980000000  0.5584420000000 1.0
C      1  0.4578570000000  0.5481850000000  0.4964050000000 1.0
C      1  0.4444600000000  0.5067580000000  0.4565700000000 1.0
C      1  0.4503280000000  0.4524360000000  0.4795720000000 1.0
C      1  0.4360470000000  0.4360360000000  0.5313680000000 1.0
C      1  0.4506700000000  0.5341630000000  0.4520210000000 1.0
C      1  0.4511300000000  0.4595910000000  0.4526570000000 1.0
C      1  0.4519040000000  0.4209380000000  0.5145400000000 1.0
C      1  0.4343250000000  0.5019780000000  0.5856750000000 1.0
C      1  0.4592650000000  0.5679430000000  0.5157020000000 1.0
C      1  0.5554320000000  0.5473530000000  0.4480780000000 1.0
C      1  0.5348680000000  0.4514610000000  0.4412060000000 1.0
C      1  0.5615670000000  0.4209760000000  0.5091170000000 1.0
C      1  0.5457020000000  0.5043010000000  0.5838590000000 1.0
C      1  0.5465870000000  0.5667580000000  0.5162550000000 1.0
C      1  0.4931320000000  0.4300360000000  0.4651860000000 1.0
C      1  0.5062570000000  0.5130880000000  0.4442120000000 1.0
C      1  0.5046450000000  0.4467730000000  0.5563000000000 1.0
C      1  0.5029360000000  0.5049720000000  0.5153410000000 1.0
C      1  0.5208750000000  0.5083050000000  0.4945930000000 1.0
C      1  0.5126580000000  0.5019170000000  0.4685990000000 1.0
END
