TITL C-3289329-2751-660 -0.00238533635935836 125000 -357.078147027382 0 0 75 (C1) n - 1
REM
REM in /nfs/bkarasulu/CARBON/AIRSS/Generating-Clusters/AIREBO/with-SteepDescent/Higher-Symm/SD-CG/HFTN-CG
REM
REM
REM
REM
REM
REM ./C.cell (b20cbc046b6831c77cfcea5457e17084)
REM
REM compiler GCC version 9.2.1 20190827 (Red Hat 9.2.1-1)
REM options -cpp -mtune=generic -march=x86-64 -g -O0 -fpre-include=/usr/include/finclude/math-vector-fortran.h
REM seed 736249380 1839128196 -214766506 195647847 -1184246412 -732666212 989208267 444682397 -1952566092 2026454882 720148887 1794292425 -39929570 690907380 -1651918049 1327859552 -497222195 1419394055 -83756509 823949631 -1138641085 -745581988 1894835118 1448373484 511110057 -559223039 -868120287 -1230944083 -173163456 1483290406 -1066725565 969238200 -1985706649
REM
CELL 1.54180   50.00000   50.00000   50.00000   90.00000   90.00000   90.00000
LATT -1
SFAC C  
C      1  0.5599580000000  0.4480090000000  0.4860270000000 1.0
C      1  0.5601080000000  0.5412640000000  0.4651640000000 1.0
C      1  0.5685280000000  0.5052970000000  0.5616950000000 1.0
C      1  0.4355130000000  0.4454400000000  0.4842160000000 1.0
C      1  0.4320390000000  0.5410940000000  0.4601920000000 1.0
C      1  0.4349770000000  0.5137090000000  0.5550460000000 1.0
C      1  0.5601640000000  0.4460250000000  0.5154750000000 1.0
C      1  0.5721200000000  0.5266490000000  0.5479380000000 1.0
C      1  0.5648270000000  0.5169870000000  0.4429890000000 1.0
C      1  0.4337830000000  0.4455270000000  0.5161080000000 1.0
C      1  0.4341560000000  0.5418740000000  0.5392990000000 1.0
C      1  0.4337340000000  0.5118530000000  0.4429260000000 1.0
C      1  0.5505520000000  0.5332250000000  0.5224880000000 1.0
C      1  0.5424340000000  0.4726400000000  0.5203950000000 1.0
C      1  0.5563210000000  0.5020860000000  0.4714860000000 1.0
C      1  0.4521080000000  0.5279430000000  0.5140050000000 1.0
C      1  0.4517870000000  0.4744500000000  0.5176770000000 1.0
C      1  0.4500670000000  0.4965890000000  0.4685450000000 1.0
C      1  0.5453590000000  0.5248810000000  0.4899380000000 1.0
C      1  0.5436710000000  0.4760470000000  0.4800530000000 1.0
C      1  0.5439470000000  0.5015940000000  0.5304850000000 1.0
C      1  0.4527400000000  0.5270870000000  0.4833370000000 1.0
C      1  0.4573530000000  0.4715020000000  0.4842640000000 1.0
C      1  0.4569090000000  0.5007720000000  0.5323850000000 1.0
C      1  0.4896440000000  0.4286810000000  0.4857500000000 1.0
C      1  0.4837150000000  0.5483780000000  0.4441930000000 1.0
C      1  0.4867840000000  0.5242040000000  0.5734390000000 1.0
C      1  0.5226610000000  0.4216350000000  0.4817070000000 1.0
C      1  0.5149650000000  0.5515790000000  0.4362820000000 1.0
C      1  0.5190590000000  0.5205640000000  0.5614520000000 1.0
C      1  0.4846520000000  0.4215260000000  0.5186270000000 1.0
C      1  0.4928270000000  0.5487330000000  0.5506810000000 1.0
C      1  0.4722650000000  0.5226180000000  0.4252930000000 1.0
C      1  0.5180170000000  0.4299420000000  0.5132890000000 1.0
C      1  0.5264720000000  0.5513480000000  0.5499480000000 1.0
C      1  0.5165880000000  0.5232520000000  0.4316960000000 1.0
C      1  0.4507810000000  0.5610260000000  0.4824050000000 1.0
C      1  0.4529450000000  0.4840850000000  0.5617430000000 1.0
C      1  0.4538680000000  0.4539490000000  0.4553500000000 1.0
C      1  0.5423460000000  0.5635680000000  0.4804830000000 1.0
C      1  0.5430940000000  0.4828890000000  0.5588790000000 1.0
C      1  0.5459600000000  0.4547240000000  0.4553610000000 1.0
C      1  0.4525080000000  0.5618290000000  0.5169040000000 1.0
C      1  0.4541650000000  0.4834900000000  0.4374200000000 1.0
C      1  0.4522830000000  0.4540150000000  0.5448640000000 1.0
C      1  0.5439880000000  0.5645180000000  0.5109040000000 1.0
C      1  0.5477030000000  0.4872810000000  0.4420980000000 1.0
C      1  0.5427890000000  0.4511800000000  0.5451810000000 1.0
C      1  0.5157420000000  0.5272570000000  0.4830740000000 1.0
C      1  0.5127430000000  0.4973860000000  0.5373830000000 1.0
C      1  0.5143140000000  0.4788590000000  0.4884870000000 1.0
C      1  0.4837930000000  0.5348020000000  0.4755190000000 1.0
C      1  0.4857700000000  0.5104590000000  0.5422540000000 1.0
C      1  0.4883890000000  0.4617700000000  0.4841590000000 1.0
C      1  0.5165610000000  0.5341940000000  0.5222660000000 1.0
C      1  0.5072860000000  0.5070110000000  0.4597340000000 1.0
C      1  0.5103920000000  0.4628720000000  0.5175230000000 1.0
C      1  0.4835230000000  0.5345080000000  0.5212310000000 1.0
C      1  0.4766010000000  0.5109360000000  0.4555960000000 1.0
C      1  0.4781690000000  0.4545020000000  0.5138660000000 1.0
C      1  0.4776700000000  0.5728220000000  0.4670450000000 1.0
C      1  0.4802400000000  0.4909990000000  0.5767010000000 1.0
C      1  0.4805070000000  0.4361710000000  0.4539620000000 1.0
C      1  0.5112360000000  0.5658730000000  0.4669180000000 1.0
C      1  0.5142850000000  0.4895630000000  0.5761790000000 1.0
C      1  0.5135260000000  0.4439520000000  0.4577040000000 1.0
C      1  0.4803800000000  0.5729770000000  0.5303480000000 1.0
C      1  0.4839990000000  0.4908430000000  0.4221970000000 1.0
C      1  0.4785020000000  0.4358120000000  0.5488700000000 1.0
C      1  0.5141240000000  0.5736530000000  0.5260990000000 1.0
C      1  0.5179580000000  0.4897730000000  0.4257030000000 1.0
C      1  0.5124720000000  0.4353140000000  0.5463490000000 1.0
C      1  0.5073380000000  0.5564800000000  0.4982930000000 1.0
C      1  0.5070050000000  0.4679270000000  0.5509780000000 1.0
C      1  0.5121710000000  0.4757270000000  0.4554840000000 1.0
END
