TITL C-3289328-6581-245 0.00348336413546382 125000 -770.263816249856 0 0 137 (C1) n - 1
REM
REM in /nfs/bkarasulu/CARBON/AIRSS/Generating-Clusters/AIREBO/with-SteepDescent/Higher-Symm/SD-CG/HFTN-CG
REM
REM
REM
REM
REM
REM ./C.cell (b20cbc046b6831c77cfcea5457e17084)
REM
REM compiler GCC version 9.2.1 20190827 (Red Hat 9.2.1-1)
REM options -cpp -mtune=generic -march=x86-64 -g -O0 -fpre-include=/usr/include/finclude/math-vector-fortran.h
REM seed 185257735 -1853524581 -768202680 1380020413 1730064595 -1080014987 -184719006 1017450856 -1114912515 792740343 1415591293 630971043 -993239287 -1541964824 361405873 -1949198816 1390821885 2106320478 -1319390282 -864219660 -2107716971 1332669901 -1446277905 701962184 2134489974 -218062752 -2128891941 1415422075 561086528 -1517473629 1525745448 -990195399 2016247067
REM
CELL 1.54180   50.00000   50.00000   50.00000   90.00000   90.00000   90.00000
LATT -1
SFAC C  
C      1  0.5494020000000  0.5437840000000  0.5585020000000 1.0
C      1  0.4527570000000  0.5407220000000  0.5649010000000 1.0
C      1  0.4212320000000  0.5425100000000  0.4731420000000 1.0
C      1  0.4962110000000  0.5467370000000  0.4230750000000 1.0
C      1  0.5789820000000  0.5571180000000  0.4667480000000 1.0
C      1  0.5487540000000  0.4538020000000  0.5678840000000 1.0
C      1  0.4558050000000  0.4600040000000  0.5656120000000 1.0
C      1  0.4210600000000  0.4498390000000  0.4755560000000 1.0
C      1  0.4902870000000  0.4594260000000  0.4182640000000 1.0
C      1  0.5724020000000  0.4443960000000  0.4716740000000 1.0
C      1  0.4736100000000  0.4189830000000  0.4583930000000 1.0
C      1  0.5219920000000  0.4117310000000  0.4695180000000 1.0
C      1  0.5400930000000  0.4154240000000  0.5220780000000 1.0
C      1  0.4966400000000  0.4144490000000  0.5556280000000 1.0
C      1  0.4581240000000  0.4151070000000  0.5117630000000 1.0
C      1  0.4809870000000  0.5693140000000  0.4522470000000 1.0
C      1  0.5306510000000  0.5827000000000  0.4618470000000 1.0
C      1  0.5424680000000  0.5794730000000  0.5165530000000 1.0
C      1  0.4961040000000  0.5789410000000  0.5459950000000 1.0
C      1  0.4542080000000  0.5797180000000  0.4990460000000 1.0
C      1  0.5644910000000  0.5502540000000  0.4436050000000 1.0
C      1  0.5730700000000  0.5438350000000  0.5435790000000 1.0
C      1  0.4785650000000  0.5426900000000  0.5842820000000 1.0
C      1  0.4155750000000  0.5480610000000  0.5055230000000 1.0
C      1  0.4677900000000  0.5453770000000  0.4180950000000 1.0
C      1  0.5655930000000  0.4522650000000  0.4454820000000 1.0
C      1  0.5739220000000  0.4542670000000  0.5450290000000 1.0
C      1  0.4808420000000  0.4549400000000  0.5867110000000 1.0
C      1  0.4159370000000  0.4487400000000  0.5032360000000 1.0
C      1  0.4601260000000  0.4576690000000  0.4228080000000 1.0
C      1  0.4608610000000  0.5321430000000  0.5192290000000 1.0
C      1  0.4580570000000  0.5388560000000  0.4637620000000 1.0
C      1  0.5318470000000  0.5264770000000  0.4635790000000 1.0
C      1  0.5483210000000  0.5395970000000  0.5008960000000 1.0
C      1  0.5093750000000  0.5359500000000  0.5452960000000 1.0
C      1  0.4628730000000  0.4680110000000  0.5169150000000 1.0
C      1  0.4585110000000  0.4676960000000  0.4608940000000 1.0
C      1  0.5365050000000  0.4761770000000  0.4583950000000 1.0
C      1  0.5449120000000  0.4549070000000  0.5030090000000 1.0
C      1  0.5114300000000  0.4657270000000  0.5490620000000 1.0
C      1  0.5433940000000  0.4053200000000  0.4900410000000 1.0
C      1  0.5265190000000  0.4065260000000  0.5501520000000 1.0
C      1  0.4722360000000  0.4124500000000  0.5427210000000 1.0
C      1  0.4508820000000  0.4083550000000  0.4813590000000 1.0
C      1  0.5022650000000  0.4172260000000  0.4491840000000 1.0
C      1  0.5484490000000  0.5925760000000  0.4862550000000 1.0
C      1  0.5282820000000  0.5877670000000  0.5438880000000 1.0
C      1  0.4653750000000  0.5846880000000  0.5339060000000 1.0
C      1  0.4366970000000  0.5896610000000  0.4771090000000 1.0
C      1  0.5032170000000  0.5914690000000  0.4466820000000 1.0
C      1  0.4688250000000  0.4437520000000  0.4782770000000 1.0
C      1  0.5124030000000  0.4606010000000  0.4689520000000 1.0
C      1  0.5221920000000  0.4387440000000  0.4858320000000 1.0
C      1  0.5227640000000  0.4423720000000  0.5335070000000 1.0
C      1  0.4775260000000  0.4413360000000  0.5070310000000 1.0
C      1  0.4740420000000  0.5619370000000  0.4828370000000 1.0
C      1  0.5061110000000  0.5487040000000  0.4622960000000 1.0
C      1  0.5277140000000  0.5586850000000  0.4857380000000 1.0
C      1  0.5200030000000  0.5551450000000  0.5243160000000 1.0
C      1  0.4803600000000  0.5560010000000  0.5255150000000 1.0
C      1  0.5690800000000  0.5587310000000  0.5183090000000 1.0
C      1  0.5004600000000  0.5548950000000  0.5696340000000 1.0
C      1  0.4408610000000  0.5582200000000  0.5172540000000 1.0
C      1  0.4525360000000  0.5662630000000  0.4364960000000 1.0
C      1  0.5441530000000  0.5671630000000  0.4362590000000 1.0
C      1  0.5652900000000  0.4382550000000  0.5221870000000 1.0
C      1  0.5006820000000  0.4430250000000  0.5694140000000 1.0
C      1  0.4396960000000  0.4425610000000  0.5192330000000 1.0
C      1  0.4521480000000  0.4349860000000  0.4373430000000 1.0
C      1  0.5351350000000  0.4487010000000  0.4384050000000 1.0
C      1  0.5174990000000  0.5218400000000  0.5841870000000 1.0
C      1  0.4211880000000  0.5172610000000  0.5461120000000 1.0
C      1  0.4388830000000  0.5271630000000  0.4382150000000 1.0
C      1  0.5313130000000  0.5228000000000  0.4213590000000 1.0
C      1  0.5993510000000  0.5229680000000  0.5105950000000 1.0
C      1  0.5225500000000  0.4849310000000  0.5980100000000 1.0
C      1  0.4159450000000  0.4784670000000  0.5387660000000 1.0
C      1  0.4216620000000  0.4858170000000  0.4356340000000 1.0
C      1  0.5290350000000  0.4831170000000  0.4196050000000 1.0
C      1  0.5921770000000  0.4781190000000  0.5129210000000 1.0
C      1  0.5562820000000  0.5172590000000  0.4433340000000 1.0
C      1  0.5880050000000  0.5206610000000  0.5372920000000 1.0
C      1  0.4866660000000  0.5115590000000  0.5920040000000 1.0
C      1  0.4108430000000  0.5200400000000  0.5210390000000 1.0
C      1  0.4578250000000  0.5128060000000  0.4183800000000 1.0
C      1  0.5572850000000  0.4841730000000  0.4353370000000 1.0
C      1  0.5800790000000  0.4890070000000  0.5399500000000 1.0
C      1  0.4922200000000  0.4810370000000  0.6031830000000 1.0
C      1  0.4058550000000  0.4733040000000  0.5127640000000 1.0
C      1  0.4452470000000  0.4810940000000  0.4173610000000 1.0
C      1  0.5720770000000  0.4777190000000  0.5697150000000 1.0
C      1  0.4600420000000  0.4818490000000  0.5905770000000 1.0
C      1  0.4067450000000  0.4919630000000  0.4915640000000 1.0
C      1  0.4951370000000  0.4841190000000  0.3984780000000 1.0
C      1  0.5889690000000  0.4886280000000  0.4678330000000 1.0
C      1  0.5623390000000  0.5062790000000  0.5712600000000 1.0
C      1  0.4547480000000  0.5113480000000  0.5819260000000 1.0
C      1  0.3988570000000  0.5225430000000  0.4896600000000 1.0
C      1  0.4871740000000  0.5082700000000  0.4092510000000 1.0
C      1  0.5814460000000  0.5146390000000  0.4636750000000 1.0
C      1  0.5309100000000  0.5644650000000  0.5632320000000 1.0
C      1  0.4437450000000  0.5643220000000  0.5495040000000 1.0
C      1  0.4316530000000  0.5700120000000  0.4579650000000 1.0
C      1  0.5143070000000  0.5681210000000  0.4284060000000 1.0
C      1  0.5718940000000  0.5742530000000  0.4900520000000 1.0
C      1  0.5302820000000  0.4298700000000  0.5706370000000 1.0
C      1  0.4510840000000  0.4340350000000  0.5477760000000 1.0
C      1  0.4352510000000  0.4288300000000  0.4628020000000 1.0
C      1  0.5103770000000  0.4382680000000  0.4320600000000 1.0
C      1  0.5671220000000  0.4238950000000  0.4913170000000 1.0
C      1  0.5017490000000  0.4830350000000  0.4398970000000 1.0
C      1  0.5718050000000  0.4712480000000  0.4901170000000 1.0
C      1  0.5304670000000  0.4824550000000  0.5676290000000 1.0
C      1  0.4472550000000  0.4795070000000  0.5415850000000 1.0
C      1  0.4291260000000  0.4819950000000  0.4679790000000 1.0
C      1  0.5024320000000  0.5170020000000  0.4383550000000 1.0
C      1  0.5798200000000  0.5333640000000  0.4893540000000 1.0
C      1  0.5333850000000  0.5139730000000  0.5551520000000 1.0
C      1  0.4548470000000  0.5123660000000  0.5462290000000 1.0
C      1  0.4390930000000  0.5136480000000  0.4756180000000 1.0
C      1  0.4677580000000  0.5161300000000  0.4929840000000 1.0
C      1  0.4937720000000  0.5192230000000  0.4712630000000 1.0
C      1  0.5211800000000  0.5123740000000  0.4904170000000 1.0
C      1  0.5352600000000  0.5155870000000  0.5212120000000 1.0
C      1  0.4885870000000  0.5113820000000  0.5420370000000 1.0
C      1  0.4808040000000  0.4880920000000  0.4991530000000 1.0
C      1  0.4865960000000  0.4784130000000  0.4700560000000 1.0
C      1  0.5437340000000  0.4900090000000  0.4845940000000 1.0
C      1  0.5299850000000  0.4824530000000  0.5147620000000 1.0
C      1  0.4992330000000  0.4868150000000  0.5263290000000 1.0
C      1  0.6107430000000  0.4973530000000  0.5046370000000 1.0
C      1  0.5331350000000  0.5108780000000  0.6080490000000 1.0
C      1  0.4142710000000  0.5135880000000  0.4328030000000 1.0
C      1  0.4054970000000  0.4961840000000  0.5615120000000 1.0
C      1  0.5299560000000  0.5038290000000  0.3984960000000 1.0
C      1  0.5056220000000  0.4370070000000  0.5101940000000 1.0
C      1  0.4986840000000  0.5595140000000  0.4999870000000 1.0
END
