TITL C-3289332-8317-621 -0.00296087320832779 125000 -632.968033966378 0 0 120 (C1) n - 1
REM
REM in /nfs/bkarasulu/CARBON/AIRSS/Generating-Clusters/AIREBO/with-SteepDescent/Higher-Symm/SD-CG/HFTN-CG
REM
REM
REM
REM
REM
REM ./C.cell (b20cbc046b6831c77cfcea5457e17084)
REM
REM compiler GCC version 9.2.1 20190827 (Red Hat 9.2.1-1)
REM options -cpp -mtune=generic -march=x86-64 -g -O0 -fpre-include=/usr/include/finclude/math-vector-fortran.h
REM seed -1092839498 -1095432991 -1373550950 433907906 1693543586 1690921741 -1983994160 -785213549 -36385872 -1994715547 -1676849351 -1598653419 1515165711 -994015501 -883934546 548284402 2016610683 1847077138 -406580118 2083776850 731555144 -2059107808 2129549580 38769802 -33299015 1603346225 1773966690 431192202 1281821127 -2129899122 191496532 -2032914987 -180497769
REM
CELL 1.54180   50.00000   50.00000   50.00000   90.00000   90.00000   90.00000
LATT -1
SFAC C  
C      1  0.4779070000000  0.5535390000000  0.5696720000000 1.0
C      1  0.4810700000000  0.5888450000000  0.5078680000000 1.0
C      1  0.4862210000000  0.5642380000000  0.4367850000000 1.0
C      1  0.4787930000000  0.4999670000000  0.4053840000000 1.0
C      1  0.4799350000000  0.4209780000000  0.4520950000000 1.0
C      1  0.4827360000000  0.4183350000000  0.5346430000000 1.0
C      1  0.4790870000000  0.4786910000000  0.5886570000000 1.0
C      1  0.5289780000000  0.4281720000000  0.5225050000000 1.0
C      1  0.5185790000000  0.4861840000000  0.5747940000000 1.0
C      1  0.5259110000000  0.5382170000000  0.5567510000000 1.0
C      1  0.5241960000000  0.5639520000000  0.5076450000000 1.0
C      1  0.5306570000000  0.5474040000000  0.4511230000000 1.0
C      1  0.5192920000000  0.4808420000000  0.4268060000000 1.0
C      1  0.5188480000000  0.4364040000000  0.4651920000000 1.0
C      1  0.4715910000000  0.4391100000000  0.5594810000000 1.0
C      1  0.4595850000000  0.5071590000000  0.5925910000000 1.0
C      1  0.4603850000000  0.5788410000000  0.5499580000000 1.0
C      1  0.4621010000000  0.5920170000000  0.4781050000000 1.0
C      1  0.4747950000000  0.5337670000000  0.4263900000000 1.0
C      1  0.4639290000000  0.4604970000000  0.4333120000000 1.0
C      1  0.4537460000000  0.4035600000000  0.4972690000000 1.0
C      1  0.5827820000000  0.5883740000000  0.5089770000000 1.0
C      1  0.5896810000000  0.5637960000000  0.4412620000000 1.0
C      1  0.5881380000000  0.5025510000000  0.4380780000000 1.0
C      1  0.5870930000000  0.4554980000000  0.4554660000000 1.0
C      1  0.5816840000000  0.4510750000000  0.5018610000000 1.0
C      1  0.5857480000000  0.4925020000000  0.5700120000000 1.0
C      1  0.5840720000000  0.5479010000000  0.5767030000000 1.0
C      1  0.4632840000000  0.5208280000000  0.5166490000000 1.0
C      1  0.4732860000000  0.5328730000000  0.4891390000000 1.0
C      1  0.4661440000000  0.5173160000000  0.4631260000000 1.0
C      1  0.4661990000000  0.4834350000000  0.4658180000000 1.0
C      1  0.4729520000000  0.4600840000000  0.4835240000000 1.0
C      1  0.4708550000000  0.4668890000000  0.5148120000000 1.0
C      1  0.4722510000000  0.4936040000000  0.5308200000000 1.0
C      1  0.5188020000000  0.5169670000000  0.5810580000000 1.0
C      1  0.5228580000000  0.5663310000000  0.5402530000000 1.0
C      1  0.5217180000000  0.5692440000000  0.4743420000000 1.0
C      1  0.5322110000000  0.5086020000000  0.4137610000000 1.0
C      1  0.5179920000000  0.4509130000000  0.4364260000000 1.0
C      1  0.5186080000000  0.4188540000000  0.4933690000000 1.0
C      1  0.5309170000000  0.4546010000000  0.5722900000000 1.0
C      1  0.4164010000000  0.5193790000000  0.4763000000000 1.0
C      1  0.4202640000000  0.4927600000000  0.4680980000000 1.0
C      1  0.4198740000000  0.4706170000000  0.4857980000000 1.0
C      1  0.4192540000000  0.4694520000000  0.5140660000000 1.0
C      1  0.4198820000000  0.4894970000000  0.5333990000000 1.0
C      1  0.4185060000000  0.5164520000000  0.5277410000000 1.0
C      1  0.4081730000000  0.5234000000000  0.5027050000000 1.0
C      1  0.4670620000000  0.4953820000000  0.5615790000000 1.0
C      1  0.4699570000000  0.5419810000000  0.5399130000000 1.0
C      1  0.4692940000000  0.5615450000000  0.4913620000000 1.0
C      1  0.4623900000000  0.5495110000000  0.4538620000000 1.0
C      1  0.4719660000000  0.4919410000000  0.4334020000000 1.0
C      1  0.4634180000000  0.4298950000000  0.4780510000000 1.0
C      1  0.4617430000000  0.4428630000000  0.5276630000000 1.0
C      1  0.5201240000000  0.4887260000000  0.4562050000000 1.0
C      1  0.5268340000000  0.4672630000000  0.4770370000000 1.0
C      1  0.5304480000000  0.4602460000000  0.5256880000000 1.0
C      1  0.5289900000000  0.4886440000000  0.5440260000000 1.0
C      1  0.5366320000000  0.5191670000000  0.5340250000000 1.0
C      1  0.5346390000000  0.5338540000000  0.5042110000000 1.0
C      1  0.5313910000000  0.5175530000000  0.4629230000000 1.0
C      1  0.4386370000000  0.5660070000000  0.5347740000000 1.0
C      1  0.4350950000000  0.5710660000000  0.4738740000000 1.0
C      1  0.4424470000000  0.5238550000000  0.4319600000000 1.0
C      1  0.4346650000000  0.4575910000000  0.4435900000000 1.0
C      1  0.4296280000000  0.4247060000000  0.4994390000000 1.0
C      1  0.4389040000000  0.4500210000000  0.5583190000000 1.0
C      1  0.4332620000000  0.5134820000000  0.5716000000000 1.0
C      1  0.5075000000000  0.5552530000000  0.5754400000000 1.0
C      1  0.5107020000000  0.5918450000000  0.5052730000000 1.0
C      1  0.5152320000000  0.5610500000000  0.4300350000000 1.0
C      1  0.5029000000000  0.4840600000000  0.3989370000000 1.0
C      1  0.5040650000000  0.4064950000000  0.4586280000000 1.0
C      1  0.5112930000000  0.4136980000000  0.5402520000000 1.0
C      1  0.5086140000000  0.4683990000000  0.6020100000000 1.0
C      1  0.4327610000000  0.4437500000000  0.4722450000000 1.0
C      1  0.4303920000000  0.4424530000000  0.5261990000000 1.0
C      1  0.4360120000000  0.4816080000000  0.5600430000000 1.0
C      1  0.4372210000000  0.5346790000000  0.5456310000000 1.0
C      1  0.4400040000000  0.5689380000000  0.5069920000000 1.0
C      1  0.4311510000000  0.5405320000000  0.4593890000000 1.0
C      1  0.4384570000000  0.4911200000000  0.4393830000000 1.0
C      1  0.5020000000000  0.4574070000000  0.4922670000000 1.0
C      1  0.5027640000000  0.4700790000000  0.5204500000000 1.0
C      1  0.5015050000000  0.5029000000000  0.5429630000000 1.0
C      1  0.4971970000000  0.5222320000000  0.5188060000000 1.0
C      1  0.5066360000000  0.5327630000000  0.4900670000000 1.0
C      1  0.4985800000000  0.5220240000000  0.4601440000000 1.0
C      1  0.4951950000000  0.4931250000000  0.4756510000000 1.0
C      1  0.5556990000000  0.5248200000000  0.4328280000000 1.0
C      1  0.5504890000000  0.4601560000000  0.4404760000000 1.0
C      1  0.5505810000000  0.4297000000000  0.4891210000000 1.0
C      1  0.5575620000000  0.4489380000000  0.5519040000000 1.0
C      1  0.5502880000000  0.5098410000000  0.5703120000000 1.0
C      1  0.5543920000000  0.5547970000000  0.5343230000000 1.0
C      1  0.5536600000000  0.5587150000000  0.4794020000000 1.0
C      1  0.5618530000000  0.4730310000000  0.5282780000000 1.0
C      1  0.5704970000000  0.4997070000000  0.5418630000000 1.0
C      1  0.5682520000000  0.5257420000000  0.5233540000000 1.0
C      1  0.5649870000000  0.5284380000000  0.4899420000000 1.0
C      1  0.5645790000000  0.5104010000000  0.4623300000000 1.0
C      1  0.5638240000000  0.4777900000000  0.4663160000000 1.0
C      1  0.5547960000000  0.4689750000000  0.4952510000000 1.0
C      1  0.5630060000000  0.4376290000000  0.4640450000000 1.0
C      1  0.5608670000000  0.4337980000000  0.5213330000000 1.0
C      1  0.5570680000000  0.4765200000000  0.5712080000000 1.0
C      1  0.5655100000000  0.5373660000000  0.5613260000000 1.0
C      1  0.5662030000000  0.5680880000000  0.5076670000000 1.0
C      1  0.5693340000000  0.5499030000000  0.4505440000000 1.0
C      1  0.5576750000000  0.4911940000000  0.4281240000000 1.0
C      1  0.4850560000000  0.4423760000000  0.4344930000000 1.0
C      1  0.4854120000000  0.4173230000000  0.5007540000000 1.0
C      1  0.4962090000000  0.4533550000000  0.5737830000000 1.0
C      1  0.4854830000000  0.5208780000000  0.5753440000000 1.0
C      1  0.4894020000000  0.5695340000000  0.5348660000000 1.0
C      1  0.4904420000000  0.5746410000000  0.4681660000000 1.0
C      1  0.5015490000000  0.5226510000000  0.4085220000000 1.0
C      1  0.5012540000000  0.4955550000000  0.5034730000000 1.0
END
