TITL C-3289332-8317-247 0.000139466072326795 125000 -275.650276377691 0 0 52 (C1) n - 1
REM
REM in /nfs/bkarasulu/CARBON/AIRSS/Generating-Clusters/AIREBO/with-SteepDescent/Higher-Symm/SD-CG/HFTN-CG
REM
REM
REM
REM
REM
REM ./C.cell (b20cbc046b6831c77cfcea5457e17084)
REM
REM compiler GCC version 9.2.1 20190827 (Red Hat 9.2.1-1)
REM options -cpp -mtune=generic -march=x86-64 -g -O0 -fpre-include=/usr/include/finclude/math-vector-fortran.h
REM seed 276096703 -18237023 -929492879 -311988161 1343746310 -1659847113 48312523 1235109876 1404619521 562956131 -693602830 1436694515 -1481799475 1595293220 -604000880 1587191474 -180837258 -930247611 -652812002 -825296799 1814640281 2077306105 -1616887009 -1363145810 258495306 190307759 972881668 762911919 404127495 181519120 -1579937747 -1714779748 1740989026
REM
CELL 1.54180   50.00000   50.00000   50.00000   90.00000   90.00000   90.00000
LATT -1
SFAC C  
C      1  0.4977020000000  0.5166360000000  0.5032230000000 1.0
C      1  0.4980720000000  0.4832190000000  0.5102510000000 1.0
C      1  0.4538180000000  0.5201890000000  0.4305370000000 1.0
C      1  0.4550080000000  0.4948640000000  0.4304440000000 1.0
C      1  0.5352160000000  0.5029700000000  0.5026190000000 1.0
C      1  0.5440170000000  0.4753200000000  0.5153040000000 1.0
C      1  0.5410720000000  0.5090030000000  0.5356990000000 1.0
C      1  0.5321350000000  0.4779470000000  0.5445060000000 1.0
C      1  0.5410700000000  0.4521180000000  0.5611120000000 1.0
C      1  0.5534050000000  0.5406830000000  0.5351560000000 1.0
C      1  0.4622220000000  0.5351430000000  0.4580040000000 1.0
C      1  0.4692520000000  0.4812840000000  0.4557510000000 1.0
C      1  0.4342260000000  0.4831180000000  0.4956990000000 1.0
C      1  0.4296910000000  0.5149910000000  0.4961400000000 1.0
C      1  0.4340180000000  0.5196780000000  0.4651910000000 1.0
C      1  0.4391970000000  0.4899450000000  0.4667930000000 1.0
C      1  0.4992110000000  0.4737270000000  0.5428870000000 1.0
C      1  0.4926310000000  0.5249800000000  0.5358210000000 1.0
C      1  0.4680790000000  0.5209360000000  0.4870900000000 1.0
C      1  0.4730130000000  0.4891460000000  0.4880420000000 1.0
C      1  0.5275410000000  0.5557740000000  0.5252220000000 1.0
C      1  0.5205160000000  0.4404020000000  0.5374670000000 1.0
C      1  0.5403680000000  0.5282860000000  0.5638560000000 1.0
C      1  0.5228650000000  0.4467130000000  0.5867110000000 1.0
C      1  0.5584960000000  0.4805800000000  0.4747400000000 1.0
C      1  0.5535570000000  0.5105120000000  0.4775270000000 1.0
C      1  0.5019090000000  0.4465470000000  0.5631550000000 1.0
C      1  0.5158530000000  0.5389260000000  0.5475190000000 1.0
C      1  0.4494310000000  0.5357070000000  0.5092910000000 1.0
C      1  0.4578580000000  0.4670310000000  0.5067560000000 1.0
C      1  0.5140680000000  0.5044550000000  0.4760170000000 1.0
C      1  0.4998650000000  0.4824780000000  0.4540390000000 1.0
C      1  0.4708060000000  0.4858500000000  0.5571440000000 1.0
C      1  0.4676390000000  0.5131380000000  0.5532850000000 1.0
C      1  0.5108620000000  0.5479390000000  0.5012070000000 1.0
C      1  0.5119240000000  0.4521490000000  0.5095890000000 1.0
C      1  0.4817150000000  0.5574750000000  0.4575270000000 1.0
C      1  0.5120790000000  0.4561620000000  0.4589230000000 1.0
C      1  0.5096210000000  0.5000440000000  0.4266080000000 1.0
C      1  0.5108670000000  0.5202070000000  0.4478170000000 1.0
C      1  0.5726960000000  0.4658670000000  0.4998050000000 1.0
C      1  0.5506710000000  0.5381170000000  0.4722460000000 1.0
C      1  0.4778350000000  0.5542440000000  0.5068340000000 1.0
C      1  0.4796030000000  0.4416760000000  0.5078410000000 1.0
C      1  0.4650130000000  0.5425310000000  0.5364420000000 1.0
C      1  0.4696790000000  0.4584620000000  0.5357070000000 1.0
C      1  0.5424390000000  0.4500180000000  0.4947180000000 1.0
C      1  0.5256770000000  0.5519680000000  0.4749100000000 1.0
C      1  0.5079880000000  0.5479030000000  0.4530710000000 1.0
C      1  0.5396130000000  0.4584990000000  0.4635120000000 1.0
C      1  0.4993060000000  0.4418970000000  0.4797110000000 1.0
C      1  0.4785850000000  0.5725440000000  0.4805370000000 1.0
END
