TITL C-3289323-3850-700 -0.000187236354621829 125000 -199.308471131189 0 0 38 (C1) n - 1
REM
REM in /nfs/bkarasulu/CARBON/AIRSS/Generating-Clusters/AIREBO/with-SteepDescent/Higher-Symm/SD-CG/HFTN-CG
REM
REM
REM
REM
REM
REM ./C.cell (b20cbc046b6831c77cfcea5457e17084)
REM
REM compiler GCC version 9.2.1 20190827 (Red Hat 9.2.1-1)
REM options -cpp -mtune=generic -march=x86-64 -g -O0 -fpre-include=/usr/include/finclude/math-vector-fortran.h
REM seed -873745643 334527444 -1231492595 -1523033880 42757095 -1342763749 1539501339 -1921378404 -1066374834 -776785338 1840850343 -1152639995 -1168966414 -1169438349 -1113570332 483078569 -738993012 1642598259 1713596828 -334921120 1173142456 -969417742 -1176529308 322397911 1248289281 -718485784 -1170316867 -1079591670 2058765645 730058475 1856277457 1316136241 806828292
REM
CELL 1.54180   50.00000   50.00000   50.00000   90.00000   90.00000   90.00000
LATT -1
SFAC C  
C      1  0.4655470000000  0.4676800000000  0.5513360000000 1.0
C      1  0.4732500000000  0.5128620000000  0.4852280000000 1.0
C      1  0.4394320000000  0.4743300000000  0.5082690000000 1.0
C      1  0.5057870000000  0.5144360000000  0.4796270000000 1.0
C      1  0.4833060000000  0.5442910000000  0.4934860000000 1.0
C      1  0.5408760000000  0.5206080000000  0.5418310000000 1.0
C      1  0.5198600000000  0.4918540000000  0.4455020000000 1.0
C      1  0.6027090000000  0.5111970000000  0.4656160000000 1.0
C      1  0.4457160000000  0.5018260000000  0.5541380000000 1.0
C      1  0.4483210000000  0.5114850000000  0.5238240000000 1.0
C      1  0.5294960000000  0.5069410000000  0.4953940000000 1.0
C      1  0.4868770000000  0.4558550000000  0.5282800000000 1.0
C      1  0.4831190000000  0.4643100000000  0.4666110000000 1.0
C      1  0.5391170000000  0.5405290000000  0.4662510000000 1.0
C      1  0.4898410000000  0.5118020000000  0.5379750000000 1.0
C      1  0.5437620000000  0.5068760000000  0.4645300000000 1.0
C      1  0.5376100000000  0.4559950000000  0.4676740000000 1.0
C      1  0.5388270000000  0.5266970000000  0.5145780000000 1.0
C      1  0.4547490000000  0.5371620000000  0.5105190000000 1.0
C      1  0.5134940000000  0.4660650000000  0.4563510000000 1.0
C      1  0.4684430000000  0.4806250000000  0.4922770000000 1.0
C      1  0.5775090000000  0.5053750000000  0.4684990000000 1.0
C      1  0.4968100000000  0.5074800000000  0.4414240000000 1.0
C      1  0.5095290000000  0.5539620000000  0.4781710000000 1.0
C      1  0.5374060000000  0.5498210000000  0.4971930000000 1.0
C      1  0.4779420000000  0.4340370000000  0.4703030000000 1.0
C      1  0.4729640000000  0.4880860000000  0.5251450000000 1.0
C      1  0.4801810000000  0.5659450000000  0.5198060000000 1.0
C      1  0.4367180000000  0.4751790000000  0.5356510000000 1.0
C      1  0.4793010000000  0.5366300000000  0.5323550000000 1.0
C      1  0.4728910000000  0.4947020000000  0.5698030000000 1.0
C      1  0.5275110000000  0.5147890000000  0.5654420000000 1.0
C      1  0.5005530000000  0.5065390000000  0.5648700000000 1.0
C      1  0.5570940000000  0.4756490000000  0.4665270000000 1.0
C      1  0.5025960000000  0.5346890000000  0.4522050000000 1.0
C      1  0.4890520000000  0.4219200000000  0.4922800000000 1.0
C      1  0.4964410000000  0.4360330000000  0.5145420000000 1.0
C      1  0.4753630000000  0.4957390000000  0.4564850000000 1.0
END
