TITL C-3289330-4660-67 0.000854607608907661 125000 -418.605933406592 0 0 74 (C2) n - 1
REM
REM in /nfs/bkarasulu/CARBON/AIRSS/Generating-Clusters/AIREBO/with-SteepDescent/Higher-Symm/SD-CG/HFTN-CG
REM
REM
REM
REM
REM
REM ./C.cell (b20cbc046b6831c77cfcea5457e17084)
REM
REM compiler GCC version 9.2.1 20190827 (Red Hat 9.2.1-1)
REM options -cpp -mtune=generic -march=x86-64 -g -O0 -fpre-include=/usr/include/finclude/math-vector-fortran.h
REM seed 350684059 1005832313 -1212027005 1292606133 1736312210 1244114286 1743809945 -1521344626 1978127755 462053894 -1046667363 -1265769234 1442959271 -1380288199 -778740954 1133746991 186474996 -2111834466 736897845 -872480943 1283084152 1244630010 179375357 -1921107693 -602342899 -1993981424 -1752468498 1742432757 -163538475 1711341752 -11919861 1468062927 -909725143
REM
CELL 1.54180   50.00000   50.00000   50.00000   90.00000   90.00000   90.00000
LATT -1
SFAC C  
C      1  0.5374540000000  0.4933440000000  0.4341640000000 1.0
C      1  0.5374520000000  0.5066520000000  0.5658370000000 1.0
C      1  0.4570890000000  0.5058580000000  0.4405510000000 1.0
C      1  0.4570870000000  0.4941460000000  0.5594480000000 1.0
C      1  0.5012740000000  0.5791980000000  0.4708800000000 1.0
C      1  0.5012650000000  0.4208020000000  0.5291200000000 1.0
C      1  0.5034900000000  0.4315880000000  0.4712610000000 1.0
C      1  0.5034960000000  0.5684120000000  0.5287390000000 1.0
C      1  0.4344790000000  0.5456930000000  0.4179390000000 1.0
C      1  0.4344720000000  0.4543140000000  0.5820590000000 1.0
C      1  0.5647090000000  0.4494150000000  0.4447170000000 1.0
C      1  0.5647130000000  0.5505780000000  0.5552850000000 1.0
C      1  0.5528110000000  0.5558540000000  0.5318490000000 1.0
C      1  0.5528060000000  0.4441410000000  0.4681530000000 1.0
C      1  0.4618570000000  0.4492020000000  0.5403270000000 1.0
C      1  0.4618630000000  0.5508010000000  0.4596710000000 1.0
C      1  0.5415340000000  0.4983360000000  0.4855800000000 1.0
C      1  0.5415340000000  0.5016600000000  0.5144220000000 1.0
C      1  0.4506520000000  0.4968420000000  0.4847180000000 1.0
C      1  0.4506520000000  0.5031630000000  0.5152810000000 1.0
C      1  0.4779840000000  0.4237520000000  0.4807300000000 1.0
C      1  0.4779910000000  0.5762500000000  0.5192690000000 1.0
C      1  0.5274760000000  0.5766290000000  0.4803440000000 1.0
C      1  0.5274670000000  0.4233680000000  0.5196570000000 1.0
C      1  0.5180330000000  0.4818050000000  0.4577650000000 1.0
C      1  0.5180340000000  0.5181930000000  0.5422350000000 1.0
C      1  0.4791740000000  0.5152410000000  0.4641290000000 1.0
C      1  0.4791720000000  0.4847610000000  0.5358710000000 1.0
C      1  0.4911320000000  0.5574070000000  0.4537010000000 1.0
C      1  0.4911250000000  0.4425940000000  0.5462980000000 1.0
C      1  0.5044520000000  0.4520460000000  0.4519270000000 1.0
C      1  0.5044550000000  0.5479530000000  0.5480730000000 1.0
C      1  0.4521020000000  0.4532420000000  0.4495240000000 1.0
C      1  0.4521050000000  0.5467620000000  0.5504740000000 1.0
C      1  0.5417470000000  0.5435130000000  0.4461320000000 1.0
C      1  0.5417410000000  0.4564830000000  0.5538690000000 1.0
C      1  0.5303390000000  0.4296240000000  0.4886410000000 1.0
C      1  0.5303460000000  0.5703730000000  0.5113600000000 1.0
C      1  0.4749180000000  0.5704990000000  0.4878220000000 1.0
C      1  0.4749100000000  0.4295030000000  0.5121770000000 1.0
C      1  0.4405840000000  0.4800900000000  0.4482300000000 1.0
C      1  0.4405840000000  0.5199160000000  0.5517680000000 1.0
C      1  0.5547680000000  0.5214320000000  0.4359240000000 1.0
C      1  0.5547630000000  0.4785620000000  0.5640780000000 1.0
C      1  0.5464140000000  0.4334550000000  0.5382480000000 1.0
C      1  0.5464220000000  0.5665400000000  0.4617540000000 1.0
C      1  0.4560300000000  0.5711990000000  0.5369150000000 1.0
C      1  0.4560250000000  0.4288060000000  0.4630840000000 1.0
C      1  0.4586130000000  0.5300250000000  0.4855680000000 1.0
C      1  0.4586100000000  0.4699790000000  0.5144300000000 1.0
C      1  0.5362670000000  0.4679760000000  0.4797130000000 1.0
C      1  0.5362700000000  0.5320200000000  0.5202890000000 1.0
C      1  0.4485280000000  0.5358920000000  0.4375760000000 1.0
C      1  0.4485230000000  0.4641130000000  0.5624220000000 1.0
C      1  0.5556190000000  0.4686340000000  0.4269740000000 1.0
C      1  0.5556190000000  0.5313600000000  0.5730280000000 1.0
C      1  0.5229050000000  0.4766510000000  0.5249860000000 1.0
C      1  0.5229080000000  0.5233460000000  0.4750150000000 1.0
C      1  0.4741910000000  0.5215800000000  0.5214260000000 1.0
C      1  0.4741900000000  0.4784230000000  0.4785740000000 1.0
C      1  0.5162010000000  0.4574880000000  0.5021290000000 1.0
C      1  0.5162050000000  0.5425100000000  0.4978710000000 1.0
C      1  0.4862430000000  0.5421540000000  0.5004260000000 1.0
C      1  0.4862390000000  0.4578470000000  0.4995740000000 1.0
C      1  0.4852810000000  0.4951410000000  0.4302060000000 1.0
C      1  0.4852790000000  0.5048600000000  0.5697940000000 1.0
C      1  0.5094660000000  0.5095980000000  0.4303290000000 1.0
C      1  0.5094620000000  0.4904010000000  0.5696710000000 1.0
C      1  0.4793440000000  0.5297540000000  0.5517400000000 1.0
C      1  0.4793430000000  0.4702480000000  0.4482590000000 1.0
C      1  0.5114270000000  0.4646130000000  0.5522900000000 1.0
C      1  0.5114320000000  0.5353860000000  0.4477110000000 1.0
C      1  0.5016930000000  0.5020430000000  0.5171510000000 1.0
C      1  0.5016930000000  0.4979570000000  0.4828490000000 1.0
END
