TITL C-3289325-7307-462 0.000539052800171891 125000 -625.521211636776 0 0 121 (C1) n - 1
REM
REM in /nfs/bkarasulu/CARBON/AIRSS/Generating-Clusters/AIREBO/with-SteepDescent/Higher-Symm/SD-CG/HFTN-CG
REM
REM
REM
REM
REM
REM ./C.cell (b20cbc046b6831c77cfcea5457e17084)
REM
REM compiler GCC version 9.2.1 20190827 (Red Hat 9.2.1-1)
REM options -cpp -mtune=generic -march=x86-64 -g -O0 -fpre-include=/usr/include/finclude/math-vector-fortran.h
REM seed -269519944 1831797671 -274114458 -1440402221 1659462427 -726463468 1056184347 -542595253 765236783 -2118276916 -596143412 -1157567364 1105746666 -411212017 -387827105 1355721284 -1468289281 1535629989 -285585736 -690787283 202470185 -116899244 -465192882 -38540834 277584128 1565194154 -701108316 71486721 1895900422 263038040 1524818583 -128818055 -2036046951
REM
CELL 1.54180   50.00000   50.00000   50.00000   90.00000   90.00000   90.00000
LATT -1
SFAC C  
C      1  0.4972780000000  0.4805820000000  0.5601560000000 1.0
C      1  0.5670070000000  0.4666130000000  0.5060020000000 1.0
C      1  0.4990310000000  0.4748290000000  0.4326520000000 1.0
C      1  0.4291260000000  0.4689480000000  0.4966080000000 1.0
C      1  0.4150170000000  0.5236810000000  0.5026460000000 1.0
C      1  0.5037380000000  0.5201850000000  0.5841850000000 1.0
C      1  0.5814980000000  0.5193400000000  0.4965260000000 1.0
C      1  0.4990180000000  0.5247920000000  0.4154330000000 1.0
C      1  0.4675900000000  0.5417200000000  0.5140080000000 1.0
C      1  0.5156910000000  0.5410810000000  0.5312300000000 1.0
C      1  0.5311820000000  0.5397560000000  0.4864210000000 1.0
C      1  0.4870680000000  0.5416480000000  0.4686950000000 1.0
C      1  0.5289610000000  0.5046980000000  0.4326890000000 1.0
C      1  0.4293990000000  0.5095340000000  0.4681710000000 1.0
C      1  0.4668090000000  0.5099900000000  0.5620860000000 1.0
C      1  0.5664010000000  0.5083580000000  0.5331370000000 1.0
C      1  0.5987210000000  0.4788790000000  0.4774840000000 1.0
C      1  0.4784660000000  0.4824430000000  0.4066640000000 1.0
C      1  0.4020250000000  0.4738760000000  0.5165450000000 1.0
C      1  0.5198710000000  0.4784310000000  0.6009060000000 1.0
C      1  0.5314980000000  0.5334880000000  0.5835950000000 1.0
C      1  0.5794460000000  0.5308360000000  0.4678170000000 1.0
C      1  0.4705980000000  0.5332430000000  0.4191290000000 1.0
C      1  0.4168790000000  0.5352240000000  0.5317850000000 1.0
C      1  0.4671930000000  0.5215710000000  0.4497060000000 1.0
C      1  0.4463360000000  0.5199250000000  0.5292240000000 1.0
C      1  0.5338890000000  0.5217800000000  0.5525740000000 1.0
C      1  0.5501730000000  0.5154520000000  0.4720200000000 1.0
C      1  0.5398960000000  0.5095970000000  0.5152500000000 1.0
C      1  0.5129820000000  0.5080540000000  0.4598500000000 1.0
C      1  0.4539150000000  0.5132910000000  0.4872650000000 1.0
C      1  0.4850000000000  0.5135920000000  0.5364490000000 1.0
C      1  0.5910290000000  0.4774100000000  0.5275220000000 1.0
C      1  0.5229150000000  0.4738760000000  0.4082560000000 1.0
C      1  0.4059520000000  0.4747910000000  0.4721590000000 1.0
C      1  0.4739370000000  0.4778940000000  0.5847390000000 1.0
C      1  0.4758310000000  0.4917760000000  0.5165590000000 1.0
C      1  0.5228130000000  0.4806950000000  0.5206910000000 1.0
C      1  0.5259490000000  0.4841130000000  0.4775400000000 1.0
C      1  0.4736580000000  0.4859070000000  0.4831860000000 1.0
C      1  0.5225450000000  0.4356440000000  0.4554970000000 1.0
C      1  0.4557920000000  0.4410840000000  0.4678060000000 1.0
C      1  0.4814120000000  0.4337250000000  0.5427060000000 1.0
C      1  0.5605220000000  0.4383170000000  0.5443220000000 1.0
C      1  0.5851350000000  0.4465220000000  0.5361250000000 1.0
C      1  0.5217420000000  0.4433870000000  0.4232720000000 1.0
C      1  0.4230420000000  0.4462630000000  0.4646320000000 1.0
C      1  0.4818040000000  0.4467130000000  0.5737000000000 1.0
C      1  0.4328010000000  0.4952610000000  0.5483760000000 1.0
C      1  0.5561170000000  0.5038300000000  0.5710420000000 1.0
C      1  0.5646560000000  0.4966730000000  0.4475210000000 1.0
C      1  0.4426350000000  0.5072210000000  0.4309950000000 1.0
C      1  0.4245060000000  0.4703920000000  0.5363120000000 1.0
C      1  0.5436260000000  0.4812530000000  0.5836820000000 1.0
C      1  0.5776870000000  0.4729340000000  0.4613380000000 1.0
C      1  0.4526950000000  0.4820680000000  0.4181120000000 1.0
C      1  0.5524570000000  0.4514940000000  0.4587910000000 1.0
C      1  0.4512200000000  0.4608280000000  0.4405040000000 1.0
C      1  0.4525870000000  0.4514650000000  0.5393610000000 1.0
C      1  0.5452490000000  0.4594710000000  0.5609620000000 1.0
C      1  0.4914070000000  0.5753730000000  0.4690940000000 1.0
C      1  0.4682120000000  0.5755720000000  0.5108290000000 1.0
C      1  0.5106210000000  0.5747940000000  0.5327320000000 1.0
C      1  0.5335280000000  0.5733150000000  0.4914230000000 1.0
C      1  0.5943260000000  0.4951730000000  0.5007660000000 1.0
C      1  0.5028540000000  0.5007520000000  0.4026450000000 1.0
C      1  0.4028650000000  0.4989190000000  0.4959380000000 1.0
C      1  0.4978500000000  0.4963760000000  0.5967620000000 1.0
C      1  0.5103710000000  0.5651290000000  0.5714200000000 1.0
C      1  0.5719970000000  0.5627150000000  0.4908000000000 1.0
C      1  0.4930230000000  0.5640300000000  0.4309330000000 1.0
C      1  0.4290890000000  0.5677640000000  0.5121930000000 1.0
C      1  0.4476830000000  0.4192840000000  0.5002370000000 1.0
C      1  0.5123290000000  0.4225060000000  0.5653950000000 1.0
C      1  0.5546140000000  0.4204520000000  0.5013340000000 1.0
C      1  0.4900600000000  0.4226740000000  0.4361980000000 1.0
C      1  0.5584500000000  0.5188260000000  0.4220670000000 1.0
C      1  0.4122170000000  0.5245750000000  0.4428720000000 1.0
C      1  0.4463750000000  0.5234280000000  0.5854710000000 1.0
C      1  0.5888020000000  0.5269390000000  0.5507280000000 1.0
C      1  0.4756700000000  0.4170380000000  0.4813540000000 1.0
C      1  0.5146060000000  0.4295100000000  0.5333820000000 1.0
C      1  0.5441840000000  0.4236010000000  0.5272660000000 1.0
C      1  0.4987420000000  0.4122950000000  0.4621540000000 1.0
C      1  0.5361730000000  0.5554650000000  0.4560170000000 1.0
C      1  0.4553600000000  0.5587350000000  0.4663260000000 1.0
C      1  0.4669990000000  0.5555130000000  0.5452990000000 1.0
C      1  0.5457450000000  0.5562350000000  0.5361410000000 1.0
C      1  0.5132540000000  0.4548950000000  0.4786510000000 1.0
C      1  0.4822380000000  0.4560860000000  0.4836080000000 1.0
C      1  0.4833360000000  0.4346950000000  0.5094050000000 1.0
C      1  0.5109910000000  0.4544200000000  0.5113540000000 1.0
C      1  0.4940450000000  0.5388120000000  0.5573860000000 1.0
C      1  0.5564910000000  0.5386390000000  0.5091350000000 1.0
C      1  0.5106560000000  0.5382620000000  0.4444100000000 1.0
C      1  0.4412310000000  0.5428550000000  0.4925140000000 1.0
C      1  0.4442560000000  0.4931170000000  0.5101270000000 1.0
C      1  0.5131390000000  0.5007370000000  0.5434430000000 1.0
C      1  0.5504270000000  0.4901850000000  0.4934510000000 1.0
C      1  0.4853400000000  0.4964340000000  0.4554530000000 1.0
C      1  0.4356570000000  0.5595100000000  0.5401030000000 1.0
C      1  0.5393520000000  0.5592990000000  0.5667820000000 1.0
C      1  0.5669150000000  0.5579810000000  0.4621440000000 1.0
C      1  0.4638500000000  0.5591340000000  0.4363810000000 1.0
C      1  0.4157070000000  0.4908640000000  0.4438200000000 1.0
C      1  0.4454840000000  0.4901640000000  0.5789570000000 1.0
C      1  0.5851060000000  0.4937200000000  0.5563790000000 1.0
C      1  0.5528360000000  0.4858210000000  0.4175300000000 1.0
C      1  0.4804780000000  0.4476770000000  0.4355490000000 1.0
C      1  0.4396770000000  0.4430850000000  0.5114260000000 1.0
C      1  0.5147660000000  0.4549340000000  0.5753360000000 1.0
C      1  0.5616680000000  0.4431540000000  0.4881130000000 1.0
C      1  0.4844000000000  0.5815550000000  0.5351370000000 1.0
C      1  0.5354170000000  0.5809260000000  0.5173590000000 1.0
C      1  0.5181240000000  0.5815260000000  0.4671730000000 1.0
C      1  0.4672280000000  0.5831970000000  0.4844770000000 1.0
C      1  0.4450520000000  0.4792980000000  0.4683810000000 1.0
C      1  0.4687780000000  0.4783220000000  0.5452660000000 1.0
C      1  0.5518020000000  0.4767860000000  0.5343760000000 1.0
C      1  0.5295760000000  0.4740520000000  0.4475830000000 1.0
C      1  0.4994860000000  0.5381660000000  0.5008310000000 1.0
END
