TITL C-3289323-3850-345 -0.000558355159939105 125000 -867.245424594231 0 0 158 (C1) n - 1
REM
REM in /nfs/bkarasulu/CARBON/AIRSS/Generating-Clusters/AIREBO/with-SteepDescent/Higher-Symm/SD-CG/HFTN-CG
REM
REM
REM
REM
REM
REM ./C.cell (b20cbc046b6831c77cfcea5457e17084)
REM
REM compiler GCC version 9.2.1 20190827 (Red Hat 9.2.1-1)
REM options -cpp -mtune=generic -march=x86-64 -g -O0 -fpre-include=/usr/include/finclude/math-vector-fortran.h
REM seed 1937516513 -621626096 171563629 -1085782302 -1405402048 -1768999612 -1914436193 -1625429892 2049707331 -880935974 1434947937 -157722310 606112217 -958230620 877239951 -1297830266 1556666776 -1598078665 259563763 421209945 -203420080 -4837677 -1985742792 -1721900015 -670686737 -2023173147 613320360 1510482428 -496820285 -1118063367 1229636569 600914978 -1523180376
REM
CELL 1.54180   50.00000   50.00000   50.00000   90.00000   90.00000   90.00000
LATT -1
SFAC C  
C      1  0.5148230000000  0.5594450000000  0.5478780000000 1.0
C      1  0.5053850000000  0.5683350000000  0.4563990000000 1.0
C      1  0.5184960000000  0.4767680000000  0.4275870000000 1.0
C      1  0.5220750000000  0.4146370000000  0.4877470000000 1.0
C      1  0.5138120000000  0.4629490000000  0.5762460000000 1.0
C      1  0.3987030000000  0.5301080000000  0.5093230000000 1.0
C      1  0.4019480000000  0.5226950000000  0.4801650000000 1.0
C      1  0.3965890000000  0.4713740000000  0.4722450000000 1.0
C      1  0.3880180000000  0.4833800000000  0.5034720000000 1.0
C      1  0.3896660000000  0.5066970000000  0.5239490000000 1.0
C      1  0.5026290000000  0.4592490000000  0.5449550000000 1.0
C      1  0.5024770000000  0.5324740000000  0.5567420000000 1.0
C      1  0.5007520000000  0.5676070000000  0.4858200000000 1.0
C      1  0.4988440000000  0.5000540000000  0.4404670000000 1.0
C      1  0.5017560000000  0.4400400000000  0.4800510000000 1.0
C      1  0.5827820000000  0.4886640000000  0.4719110000000 1.0
C      1  0.5705990000000  0.4684060000000  0.5059100000000 1.0
C      1  0.5650880000000  0.4981190000000  0.5338970000000 1.0
C      1  0.5719620000000  0.5326570000000  0.5150460000000 1.0
C      1  0.5669440000000  0.5249090000000  0.4754890000000 1.0
C      1  0.5561850000000  0.5802360000000  0.5266400000000 1.0
C      1  0.5353760000000  0.5664210000000  0.4236030000000 1.0
C      1  0.5520610000000  0.4506180000000  0.4224720000000 1.0
C      1  0.5489060000000  0.4153350000000  0.5174000000000 1.0
C      1  0.5338850000000  0.4945200000000  0.5897130000000 1.0
C      1  0.5886210000000  0.5293930000000  0.5419330000000 1.0
C      1  0.5964770000000  0.5389960000000  0.4842350000000 1.0
C      1  0.6073920000000  0.4999030000000  0.4528350000000 1.0
C      1  0.5957880000000  0.4562690000000  0.4904990000000 1.0
C      1  0.5965880000000  0.4762570000000  0.5452090000000 1.0
C      1  0.4937780000000  0.4156790000000  0.4575790000000 1.0
C      1  0.4861500000000  0.4351440000000  0.5600990000000 1.0
C      1  0.4982650000000  0.5449960000000  0.5880910000000 1.0
C      1  0.4895260000000  0.5984720000000  0.4930590000000 1.0
C      1  0.4918400000000  0.5141750000000  0.4103300000000 1.0
C      1  0.4696650000000  0.5296810000000  0.5516660000000 1.0
C      1  0.4480950000000  0.5548440000000  0.4815700000000 1.0
C      1  0.4656940000000  0.5076530000000  0.4399840000000 1.0
C      1  0.4548110000000  0.4273730000000  0.4883130000000 1.0
C      1  0.4260010000000  0.4713450000000  0.5540710000000 1.0
C      1  0.5054950000000  0.5357580000000  0.4968890000000 1.0
C      1  0.4983980000000  0.4885640000000  0.4728110000000 1.0
C      1  0.4923790000000  0.4653180000000  0.4969280000000 1.0
C      1  0.4997590000000  0.4850330000000  0.5236750000000 1.0
C      1  0.5022740000000  0.5189010000000  0.5255540000000 1.0
C      1  0.4253790000000  0.4413140000000  0.5113700000000 1.0
C      1  0.4008030000000  0.5022680000000  0.5512010000000 1.0
C      1  0.4214290000000  0.5498240000000  0.5245700000000 1.0
C      1  0.4135530000000  0.5385070000000  0.4588350000000 1.0
C      1  0.4199780000000  0.4650040000000  0.4526020000000 1.0
C      1  0.6127300000000  0.5151610000000  0.5230220000000 1.0
C      1  0.6155790000000  0.5223520000000  0.4955260000000 1.0
C      1  0.6207050000000  0.4983820000000  0.4799460000000 1.0
C      1  0.6172640000000  0.4746930000000  0.4975630000000 1.0
C      1  0.6154960000000  0.4860040000000  0.5255190000000 1.0
C      1  0.5323200000000  0.5186160000000  0.5549500000000 1.0
C      1  0.5272880000000  0.5689570000000  0.5015360000000 1.0
C      1  0.5286130000000  0.5156390000000  0.4456870000000 1.0
C      1  0.5241910000000  0.4415230000000  0.4583550000000 1.0
C      1  0.5262080000000  0.4433790000000  0.5343120000000 1.0
C      1  0.4782310000000  0.4708630000000  0.3993160000000 1.0
C      1  0.4849710000000  0.3837350000000  0.4905650000000 1.0
C      1  0.4676460000000  0.4620630000000  0.5935190000000 1.0
C      1  0.4858440000000  0.5872790000000  0.5703040000000 1.0
C      1  0.4728350000000  0.6018830000000  0.4473110000000 1.0
C      1  0.4663880000000  0.5346020000000  0.5203410000000 1.0
C      1  0.4762550000000  0.5367470000000  0.4795470000000 1.0
C      1  0.4667020000000  0.4859820000000  0.4751140000000 1.0
C      1  0.4639060000000  0.4506720000000  0.5061230000000 1.0
C      1  0.4684570000000  0.4960260000000  0.5301570000000 1.0
C      1  0.4580230000000  0.5016340000000  0.5620400000000 1.0
C      1  0.4667690000000  0.5648650000000  0.5246120000000 1.0
C      1  0.4643560000000  0.5406990000000  0.4478790000000 1.0
C      1  0.4687680000000  0.4604270000000  0.4545980000000 1.0
C      1  0.4674160000000  0.4231140000000  0.5258000000000 1.0
C      1  0.4960940000000  0.4584080000000  0.6005710000000 1.0
C      1  0.5163730000000  0.5864740000000  0.5684460000000 1.0
C      1  0.5038540000000  0.6000260000000  0.4437900000000 1.0
C      1  0.5087410000000  0.4690630000000  0.3959400000000 1.0
C      1  0.5144900000000  0.3889310000000  0.4881470000000 1.0
C      1  0.4298920000000  0.5418990000000  0.5549640000000 1.0
C      1  0.4197830000000  0.5665070000000  0.4666860000000 1.0
C      1  0.4363270000000  0.4905780000000  0.4438460000000 1.0
C      1  0.4226890000000  0.4220730000000  0.4886120000000 1.0
C      1  0.3975680000000  0.4751180000000  0.5625930000000 1.0
C      1  0.4401760000000  0.4419650000000  0.4543870000000 1.0
C      1  0.4391760000000  0.4314750000000  0.5337010000000 1.0
C      1  0.4264090000000  0.5140120000000  0.5597460000000 1.0
C      1  0.4370650000000  0.5755740000000  0.5139470000000 1.0
C      1  0.4326700000000  0.5301040000000  0.4393670000000 1.0
C      1  0.4610400000000  0.4444500000000  0.5731120000000 1.0
C      1  0.4751800000000  0.5648760000000  0.5831640000000 1.0
C      1  0.4641700000000  0.6042030000000  0.4741090000000 1.0
C      1  0.4684940000000  0.4972250000000  0.4006530000000 1.0
C      1  0.4712710000000  0.3970150000000  0.4693800000000 1.0
C      1  0.4363430000000  0.4710350000000  0.5053500000000 1.0
C      1  0.4368330000000  0.4881860000000  0.5310620000000 1.0
C      1  0.4375960000000  0.5200250000000  0.5219340000000 1.0
C      1  0.4395050000000  0.5274920000000  0.4918300000000 1.0
C      1  0.4424280000000  0.5045740000000  0.4721270000000 1.0
C      1  0.4419190000000  0.5075280000000  0.4156740000000 1.0
C      1  0.4415020000000  0.4091330000000  0.4631780000000 1.0
C      1  0.4386830000000  0.4465070000000  0.5570210000000 1.0
C      1  0.4546010000000  0.5519890000000  0.5687510000000 1.0
C      1  0.4406400000000  0.5871850000000  0.4822130000000 1.0
C      1  0.4840470000000  0.4042410000000  0.5490320000000 1.0
C      1  0.4966370000000  0.5218340000000  0.6091380000000 1.0
C      1  0.4646330000000  0.5958580000000  0.5129060000000 1.0
C      1  0.4770890000000  0.5413320000000  0.4155100000000 1.0
C      1  0.4693850000000  0.4288440000000  0.4429510000000 1.0
C      1  0.5016210000000  0.5648490000000  0.4167480000000 1.0
C      1  0.5097440000000  0.4385120000000  0.4295690000000 1.0
C      1  0.5166200000000  0.4107970000000  0.5270460000000 1.0
C      1  0.5006600000000  0.4978980000000  0.5962920000000 1.0
C      1  0.5144770000000  0.5903250000000  0.5228560000000 1.0
C      1  0.5427880000000  0.4681120000000  0.4497580000000 1.0
C      1  0.5341410000000  0.4424490000000  0.5031450000000 1.0
C      1  0.5276070000000  0.4876520000000  0.5573790000000 1.0
C      1  0.5348060000000  0.5538030000000  0.5273990000000 1.0
C      1  0.5255540000000  0.5450380000000  0.4481330000000 1.0
C      1  0.5450790000000  0.5717960000000  0.4558300000000 1.0
C      1  0.5565210000000  0.4788120000000  0.4137980000000 1.0
C      1  0.5616490000000  0.4136490000000  0.4872870000000 1.0
C      1  0.5468240000000  0.4640250000000  0.5804980000000 1.0
C      1  0.5653610000000  0.5644660000000  0.5506200000000 1.0
C      1  0.5530520000000  0.5760630000000  0.4847170000000 1.0
C      1  0.5554590000000  0.5084760000000  0.4267390000000 1.0
C      1  0.5563870000000  0.4329260000000  0.4629820000000 1.0
C      1  0.5540230000000  0.4475360000000  0.5527910000000 1.0
C      1  0.5610500000000  0.5325790000000  0.5616100000000 1.0
C      1  0.5328690000000  0.4928020000000  0.5244110000000 1.0
C      1  0.5404520000000  0.5249480000000  0.5163150000000 1.0
C      1  0.5344970000000  0.5225780000000  0.4850050000000 1.0
C      1  0.5303630000000  0.4922090000000  0.4702830000000 1.0
C      1  0.5401460000000  0.4744790000000  0.4977150000000 1.0
C      1  0.5184120000000  0.6139800000000  0.5026150000000 1.0
C      1  0.5155330000000  0.5350320000000  0.4094750000000 1.0
C      1  0.5191090000000  0.4088540000000  0.4359210000000 1.0
C      1  0.5140910000000  0.4157550000000  0.5605240000000 1.0
C      1  0.5290700000000  0.5434850000000  0.6008420000000 1.0
C      1  0.5779180000000  0.5141210000000  0.4459160000000 1.0
C      1  0.5720400000000  0.4605650000000  0.4662360000000 1.0
C      1  0.5758520000000  0.4597270000000  0.5353690000000 1.0
C      1  0.5846750000000  0.5005410000000  0.5583000000000 1.0
C      1  0.5753370000000  0.5587840000000  0.4946620000000 1.0
C      1  0.5470410000000  0.4222930000000  0.4320190000000 1.0
C      1  0.5469210000000  0.4146640000000  0.5516450000000 1.0
C      1  0.5470240000000  0.5239550000000  0.5913660000000 1.0
C      1  0.5481070000000  0.6025500000000  0.5054570000000 1.0
C      1  0.5439090000000  0.5348790000000  0.4141360000000 1.0
C      1  0.4771630000000  0.5710810000000  0.4395400000000 1.0
C      1  0.4881620000000  0.4609780000000  0.4287830000000 1.0
C      1  0.4885460000000  0.3993070000000  0.5166940000000 1.0
C      1  0.4757200000000  0.4888960000000  0.5846160000000 1.0
C      1  0.4902460000000  0.5800290000000  0.5391150000000 1.0
C      1  0.4168420000000  0.4932310000000  0.4883550000000 1.0
C      1  0.5699690000000  0.5019840000000  0.5004560000000 1.0
C      1  0.4739590000000  0.5090300000000  0.4991320000000 1.0
END
