TITL C-3289325-7307-321 -0.000129472712032346 125000 -265.9025603314 0 0 51 (C1) n - 1
REM
REM in /nfs/bkarasulu/CARBON/AIRSS/Generating-Clusters/AIREBO/with-SteepDescent/Higher-Symm/SD-CG/HFTN-CG
REM
REM
REM
REM
REM
REM ./C.cell (b20cbc046b6831c77cfcea5457e17084)
REM
REM compiler GCC version 9.2.1 20190827 (Red Hat 9.2.1-1)
REM options -cpp -mtune=generic -march=x86-64 -g -O0 -fpre-include=/usr/include/finclude/math-vector-fortran.h
REM seed 1993055222 805574559 -762658708 -982413089 -523453635 1609048501 -1916376012 -893010060 1127817728 992387087 1347338367 -2071513394 -1251223876 1696033282 -564996757 2041988808 -198472130 -1081788898 1441233430 764672299 -1016687675 1796826662 1162544007 1561069500 1834435976 1802260001 -1673125533 626807249 66955270 -507603493 1668031806 -389005750 18315175
REM
CELL 1.54180   50.00000   50.00000   50.00000   90.00000   90.00000   90.00000
LATT -1
SFAC C  
C      1  0.5353340000000  0.4870590000000  0.5030970000000 1.0
C      1  0.5135680000000  0.4852500000000  0.5283480000000 1.0
C      1  0.4803600000000  0.4793300000000  0.5239230000000 1.0
C      1  0.4626010000000  0.4956920000000  0.4999710000000 1.0
C      1  0.4732780000000  0.4838710000000  0.4699260000000 1.0
C      1  0.5026530000000  0.4946240000000  0.4565780000000 1.0
C      1  0.5301200000000  0.4855620000000  0.4712500000000 1.0
C      1  0.4285390000000  0.4965430000000  0.5007020000000 1.0
C      1  0.4556730000000  0.5006990000000  0.4477320000000 1.0
C      1  0.5265480000000  0.4991980000000  0.4338580000000 1.0
C      1  0.5968950000000  0.5147380000000  0.4780340000000 1.0
C      1  0.5756680000000  0.5115820000000  0.5537190000000 1.0
C      1  0.5149430000000  0.5161450000000  0.5928230000000 1.0
C      1  0.4702320000000  0.4990080000000  0.5482130000000 1.0
C      1  0.4955060000000  0.4357130000000  0.4686790000000 1.0
C      1  0.5228490000000  0.4358490000000  0.4760330000000 1.0
C      1  0.5335700000000  0.4359020000000  0.5026370000000 1.0
C      1  0.5192170000000  0.4341200000000  0.5271750000000 1.0
C      1  0.4904930000000  0.4258460000000  0.5281970000000 1.0
C      1  0.4674010000000  0.4326700000000  0.5101520000000 1.0
C      1  0.4694200000000  0.4331570000000  0.4819550000000 1.0
C      1  0.5368290000000  0.4565360000000  0.4613550000000 1.0
C      1  0.5512900000000  0.4588960000000  0.5049050000000 1.0
C      1  0.5245840000000  0.4581910000000  0.5425630000000 1.0
C      1  0.4852630000000  0.4523090000000  0.5440090000000 1.0
C      1  0.4547940000000  0.4574220000000  0.5190540000000 1.0
C      1  0.4539300000000  0.4559240000000  0.4713350000000 1.0
C      1  0.4887360000000  0.4593290000000  0.4521420000000 1.0
C      1  0.5230830000000  0.5125680000000  0.5417240000000 1.0
C      1  0.4806620000000  0.5299040000000  0.5564280000000 1.0
C      1  0.4527330000000  0.5268110000000  0.5094830000000 1.0
C      1  0.4383050000000  0.5245900000000  0.4602500000000 1.0
C      1  0.4984210000000  0.5249810000000  0.4441620000000 1.0
C      1  0.5438830000000  0.5141570000000  0.4671500000000 1.0
C      1  0.5508520000000  0.5137880000000  0.5064630000000 1.0
C      1  0.4672090000000  0.5327640000000  0.4461270000000 1.0
C      1  0.5317920000000  0.5307950000000  0.4400750000000 1.0
C      1  0.5718530000000  0.5168220000000  0.4825650000000 1.0
C      1  0.5554430000000  0.5152460000000  0.5382940000000 1.0
C      1  0.5082190000000  0.5200730000000  0.5681600000000 1.0
C      1  0.4512830000000  0.5236330000000  0.5402240000000 1.0
C      1  0.4301640000000  0.5235840000000  0.4861350000000 1.0
C      1  0.5146640000000  0.5368120000000  0.5237350000000 1.0
C      1  0.4902070000000  0.5465320000000  0.5311380000000 1.0
C      1  0.4715330000000  0.5506320000000  0.5111410000000 1.0
C      1  0.4775240000000  0.5642940000000  0.4878520000000 1.0
C      1  0.4896280000000  0.5474340000000  0.4674280000000 1.0
C      1  0.5223870000000  0.5400660000000  0.4719360000000 1.0
C      1  0.5311730000000  0.5371910000000  0.5014350000000 1.0
C      1  0.4916150000000  0.4679040000000  0.4937030000000 1.0
C      1  0.4741160000000  0.5911500000000  0.4841040000000 1.0
END
