TITL C-3289334-2237-216 -0.00110044236754423 125000 -324.330912899578 0 0 59 (C2) n - 1
REM
REM in /nfs/bkarasulu/CARBON/AIRSS/Generating-Clusters/AIREBO/with-SteepDescent/Higher-Symm/SD-CG/HFTN-CG
REM
REM
REM
REM
REM
REM ./C.cell (b20cbc046b6831c77cfcea5457e17084)
REM
REM compiler GCC version 9.2.1 20190827 (Red Hat 9.2.1-1)
REM options -cpp -mtune=generic -march=x86-64 -g -O0 -fpre-include=/usr/include/finclude/math-vector-fortran.h
REM seed -178494604 -262232525 1523050992 503608617 -1499528601 -1143213406 -1198875940 -1646004102 -55247014 1095221322 946171083 -1657509643 -1040261585 -1258216308 -1716203909 560590795 1222215002 -1717966998 -101483698 -136542587 1199877488 2108725868 1476017202 1568688739 -546835915 4743053 242717814 -301754964 1733643075 -1173728177 -1340798880 1944855853 -1547169414
REM
CELL 1.54180   50.00000   50.00000   50.00000   90.00000   90.00000   90.00000
LATT -1
SFAC C  
C      1  0.5066010000000  0.5138890000000  0.4499920000000 1.0
C      1  0.4930840000000  0.5138970000000  0.5510130000000 1.0
C      1  0.5052520000000  0.4821980000000  0.4376880000000 1.0
C      1  0.4944310000000  0.4822080000000  0.5633220000000 1.0
C      1  0.4818100000000  0.4612400000000  0.5442980000000 1.0
C      1  0.5178710000000  0.4612320000000  0.4567150000000 1.0
C      1  0.4665610000000  0.5314500000000  0.5507280000000 1.0
C      1  0.5331260000000  0.5314390000000  0.4502740000000 1.0
C      1  0.4287210000000  0.5378340000000  0.4373410000000 1.0
C      1  0.5709660000000  0.5378380000000  0.5636600000000 1.0
C      1  0.4289520000000  0.4746350000000  0.4299500000000 1.0
C      1  0.5707300000000  0.4746400000000  0.5710600000000 1.0
C      1  0.5255870000000  0.4493150000000  0.5234440000000 1.0
C      1  0.4740930000000  0.4493140000000  0.4775710000000 1.0
C      1  0.5170170000000  0.5372790000000  0.5150640000000 1.0
C      1  0.4826700000000  0.5372780000000  0.4859370000000 1.0
C      1  0.4766120000000  0.4908460000000  0.4373900000000 1.0
C      1  0.5230710000000  0.4908540000000  0.5636180000000 1.0
C      1  0.4759680000000  0.5206460000000  0.4367450000000 1.0
C      1  0.5237180000000  0.5206540000000  0.5642590000000 1.0
C      1  0.4579570000000  0.5461590000000  0.4773610000000 1.0
C      1  0.5417310000000  0.5461600000000  0.5236380000000 1.0
C      1  0.4509360000000  0.4624930000000  0.4737320000000 1.0
C      1  0.5487450000000  0.4624930000000  0.5272810000000 1.0
C      1  0.5338480000000  0.4875280000000  0.4999210000000 1.0
C      1  0.4658350000000  0.4875310000000  0.5010880000000 1.0
C      1  0.5500110000000  0.5173610000000  0.4977170000000 1.0
C      1  0.4496740000000  0.5173660000000  0.5032870000000 1.0
C      1  0.5016170000000  0.4611160000000  0.5210930000000 1.0
C      1  0.4980640000000  0.4611130000000  0.4799190000000 1.0
C      1  0.5043690000000  0.5139520000000  0.5221700000000 1.0
C      1  0.4953170000000  0.5139490000000  0.4788350000000 1.0
C      1  0.5449570000000  0.4433670000000  0.4626110000000 1.0
C      1  0.4547230000000  0.4433770000000  0.5384050000000 1.0
C      1  0.5470480000000  0.5553640000000  0.4537760000000 1.0
C      1  0.4526400000000  0.5553750000000  0.5472220000000 1.0
C      1  0.5506820000000  0.4799630000000  0.5529670000000 1.0
C      1  0.4490000000000  0.4799580000000  0.4480430000000 1.0
C      1  0.5489060000000  0.5298740000000  0.5490210000000 1.0
C      1  0.4507800000000  0.5298700000000  0.4519810000000 1.0
C      1  0.4358330000000  0.4715980000000  0.4993820000000 1.0
C      1  0.5638490000000  0.4715930000000  0.5016290000000 1.0
C      1  0.4331640000000  0.5444860000000  0.4999590000000 1.0
C      1  0.5665240000000  0.5444810000000  0.5010410000000 1.0
C      1  0.4612130000000  0.4825310000000  0.5346760000000 1.0
C      1  0.5384700000000  0.4825230000000  0.4663340000000 1.0
C      1  0.4578210000000  0.5110010000000  0.5323940000000 1.0
C      1  0.5418640000000  0.5109930000000  0.4686110000000 1.0
C      1  0.4105930000000  0.5193730000000  0.4958900000000 1.0
C      1  0.5890930000000  0.5193670000000  0.5051130000000 1.0
C      1  0.4138860000000  0.4945450000000  0.4982100000000 1.0
C      1  0.5857980000000  0.4945390000000  0.5027980000000 1.0
C      1  0.5631220000000  0.4502310000000  0.4787070000000 1.0
C      1  0.4365580000000  0.4502390000000  0.5223070000000 1.0
C      1  0.5627070000000  0.5619890000000  0.4755650000000 1.0
C      1  0.4369820000000  0.5619980000000  0.5254320000000 1.0
C      1  0.5460880000000  0.5028500000000  0.5282310000000 1.0
C      1  0.4535960000000  0.5028490000000  0.4727760000000 1.0
C      1  0.4998420000000  0.4881310000000  0.5005040000000 1.0
END
