TITL C-3289324-3781-597 2644.2848790531 125000 -1001.49433589566 0 0 185 (C1) n - 1
REM
REM in /nfs/bkarasulu/CARBON/AIRSS/Generating-Clusters/AIREBO/with-SteepDescent/Higher-Symm/SD-CG/HFTN-CG
REM
REM
REM
REM
REM
REM ./C.cell (b20cbc046b6831c77cfcea5457e17084)
REM
REM compiler GCC version 9.2.1 20190827 (Red Hat 9.2.1-1)
REM options -cpp -mtune=generic -march=x86-64 -g -O0 -fpre-include=/usr/include/finclude/math-vector-fortran.h
REM seed -1613379225 -230378379 -1336738271 -838973897 395428848 182141145 -425423073 -1845756760 -1752384746 814418885 1812029186 -1909122544 475974680 977187573 -1377636795 -371773102 -784622121 -158020604 -1054505100 125642924 -853819719 -2058450831 -684345468 588087650 696067143 896294192 -180489741 1077826437 -353919748 -1731118037 -955566835 1653647062 -143642073
REM
CELL 1.54180   50.00000   50.00000   50.00000   90.00000   90.00000   90.00000
LATT -1
SFAC C  
C      1  0.4546400000000  0.4441300000000  0.4144010000000 1.0
C      1  0.4513900000000  0.4562330000000  0.5892120000000 1.0
C      1  0.5981030000000  0.4539470000000  0.5039960000000 1.0
C      1  0.4562610000000  0.5410270000000  0.4101410000000 1.0
C      1  0.4535190000000  0.5504140000000  0.5851660000000 1.0
C      1  0.5993910000000  0.5435390000000  0.5200440000000 1.0
C      1  0.4899100000000  0.5487630000000  0.5511180000000 1.0
C      1  0.5730580000000  0.5460070000000  0.4660650000000 1.0
C      1  0.4454570000000  0.5470390000000  0.4620610000000 1.0
C      1  0.5106780000000  0.4472330000000  0.5789590000000 1.0
C      1  0.5686420000000  0.4545380000000  0.4399610000000 1.0
C      1  0.4229040000000  0.4642660000000  0.4790370000000 1.0
C      1  0.5621090000000  0.5482770000000  0.4389170000000 1.0
C      1  0.4177160000000  0.5616770000000  0.4759770000000 1.0
C      1  0.5118820000000  0.5623880000000  0.5976730000000 1.0
C      1  0.5734410000000  0.4290320000000  0.4268660000000 1.0
C      1  0.4121660000000  0.4395550000000  0.4797890000000 1.0
C      1  0.5190600000000  0.4213020000000  0.5900930000000 1.0
C      1  0.4229470000000  0.5459920000000  0.5123870000000 1.0
C      1  0.5490210000000  0.5316940000000  0.5745850000000 1.0
C      1  0.5321740000000  0.5342940000000  0.4122470000000 1.0
C      1  0.4077500000000  0.4709240000000  0.5217570000000 1.0
C      1  0.5593940000000  0.4594600000000  0.5764660000000 1.0
C      1  0.5290580000000  0.4646460000000  0.4159880000000 1.0
C      1  0.4771690000000  0.4751760000000  0.4254250000000 1.0
C      1  0.4453610000000  0.4765530000000  0.5548250000000 1.0
C      1  0.5685490000000  0.4722020000000  0.5237420000000 1.0
C      1  0.4833280000000  0.5145250000000  0.4229440000000 1.0
C      1  0.4424900000000  0.5185920000000  0.5517190000000 1.0
C      1  0.5692410000000  0.5170720000000  0.5272760000000 1.0
C      1  0.4953340000000  0.5295680000000  0.3978540000000 1.0
C      1  0.4147130000000  0.5355200000000  0.5570170000000 1.0
C      1  0.5826630000000  0.5294690000000  0.5534940000000 1.0
C      1  0.4941700000000  0.4665400000000  0.3970490000000 1.0
C      1  0.4123190000000  0.4715200000000  0.5611650000000 1.0
C      1  0.5888190000000  0.4658510000000  0.5503230000000 1.0
C      1  0.5785060000000  0.5190210000000  0.4330260000000 1.0
C      1  0.4167330000000  0.5291970000000  0.4658600000000 1.0
C      1  0.5079160000000  0.5311260000000  0.5967200000000 1.0
C      1  0.5651840000000  0.4871880000000  0.4370750000000 1.0
C      1  0.4167820000000  0.4969910000000  0.4771310000000 1.0
C      1  0.5224680000000  0.4759800000000  0.5807700000000 1.0
C      1  0.5031450000000  0.3984110000000  0.4367370000000 1.0
C      1  0.4549060000000  0.4057340000000  0.5359840000000 1.0
C      1  0.5599630000000  0.3938520000000  0.5295280000000 1.0
C      1  0.4903500000000  0.5976200000000  0.4435750000000 1.0
C      1  0.4522550000000  0.6037700000000  0.5331350000000 1.0
C      1  0.5563690000000  0.5892420000000  0.5128750000000 1.0
C      1  0.4666340000000  0.4295700000000  0.4336920000000 1.0
C      1  0.4593430000000  0.4372560000000  0.5724940000000 1.0
C      1  0.5823670000000  0.4321430000000  0.5017480000000 1.0
C      1  0.4651580000000  0.5589840000000  0.4276200000000 1.0
C      1  0.4579140000000  0.5677740000000  0.5656960000000 1.0
C      1  0.5835910000000  0.5620820000000  0.5238220000000 1.0
C      1  0.4661380000000  0.5824420000000  0.4467580000000 1.0
C      1  0.4714630000000  0.5903010000000  0.5517240000000 1.0
C      1  0.5661390000000  0.5826810000000  0.4876510000000 1.0
C      1  0.4547550000000  0.4174820000000  0.4543320000000 1.0
C      1  0.4789770000000  0.4171320000000  0.5585380000000 1.0
C      1  0.5755640000000  0.4227550000000  0.4772930000000 1.0
C      1  0.4006840000000  0.5280780000000  0.4958280000000 1.0
C      1  0.5366790000000  0.5131430000000  0.5992100000000 1.0
C      1  0.5585580000000  0.5143690000000  0.4085440000000 1.0
C      1  0.3945320000000  0.4951990000000  0.5019480000000 1.0
C      1  0.5471550000000  0.4808080000000  0.6005530000000 1.0
C      1  0.5554470000000  0.4822540000000  0.4048710000000 1.0
C      1  0.4733100000000  0.5118020000000  0.5474280000000 1.0
C      1  0.5573420000000  0.5090960000000  0.4987430000000 1.0
C      1  0.4690660000000  0.5067560000000  0.4485330000000 1.0
C      1  0.4794150000000  0.4788130000000  0.5508640000000 1.0
C      1  0.5495900000000  0.4761160000000  0.4957530000000 1.0
C      1  0.4557620000000  0.4785280000000  0.4517100000000 1.0
C      1  0.4556660000000  0.5750840000000  0.4783660000000 1.0
C      1  0.5038090000000  0.5797980000000  0.5507750000000 1.0
C      1  0.5455670000000  0.5746750000000  0.4637340000000 1.0
C      1  0.4534080000000  0.4200310000000  0.4859760000000 1.0
C      1  0.5107370000000  0.4271550000000  0.5515100000000 1.0
C      1  0.5490900000000  0.4325230000000  0.4583170000000 1.0
C      1  0.3918650000000  0.4902180000000  0.5531340000000 1.0
C      1  0.5915440000000  0.4829750000000  0.5728210000000 1.0
C      1  0.5105410000000  0.4843950000000  0.3816170000000 1.0
C      1  0.3927770000000  0.5198140000000  0.5491730000000 1.0
C      1  0.5874570000000  0.5113510000000  0.5743190000000 1.0
C      1  0.5116360000000  0.5135090000000  0.3816550000000 1.0
C      1  0.4240870000000  0.4155560000000  0.5244310000000 1.0
C      1  0.5586650000000  0.4060810000000  0.5582280000000 1.0
C      1  0.5248730000000  0.4099560000000  0.4178630000000 1.0
C      1  0.4297800000000  0.5889970000000  0.5224130000000 1.0
C      1  0.5480650000000  0.5814890000000  0.5753320000000 1.0
C      1  0.5123940000000  0.5870850000000  0.4271170000000 1.0
C      1  0.5076730000000  0.5563260000000  0.4133980000000 1.0
C      1  0.4214560000000  0.5623640000000  0.5402520000000 1.0
C      1  0.5659250000000  0.5570200000000  0.5634470000000 1.0
C      1  0.5109320000000  0.4391990000000  0.4081360000000 1.0
C      1  0.4185100000000  0.4447450000000  0.5409960000000 1.0
C      1  0.5723720000000  0.4363730000000  0.5550780000000 1.0
C      1  0.5091330000000  0.3870580000000  0.5252170000000 1.0
C      1  0.5281810000000  0.3911390000000  0.4789230000000 1.0
C      1  0.4756330000000  0.3841960000000  0.4868040000000 1.0
C      1  0.4878710000000  0.6218270000000  0.5333850000000 1.0
C      1  0.5192820000000  0.6125230000000  0.4810260000000 1.0
C      1  0.4685820000000  0.6287760000000  0.4887130000000 1.0
C      1  0.4860340000000  0.5162990000000  0.5173190000000 1.0
C      1  0.5275250000000  0.5203980000000  0.4979300000000 1.0
C      1  0.4868570000000  0.5113460000000  0.4733240000000 1.0
C      1  0.4817080000000  0.4855610000000  0.5032410000000 1.0
C      1  0.5150010000000  0.4909970000000  0.5075090000000 1.0
C      1  0.4974260000000  0.4789880000000  0.4738150000000 1.0
C      1  0.4520610000000  0.4394540000000  0.5393560000000 1.0
C      1  0.5640730000000  0.4259930000000  0.5243100000000 1.0
C      1  0.4967620000000  0.4311340000000  0.4360700000000 1.0
C      1  0.4541180000000  0.5593420000000  0.5334560000000 1.0
C      1  0.5540580000000  0.5685670000000  0.5362720000000 1.0
C      1  0.4950020000000  0.5553410000000  0.4435060000000 1.0
C      1  0.5701710000000  0.5184080000000  0.5977420000000 1.0
C      1  0.5403160000000  0.5235760000000  0.3813470000000 1.0
C      1  0.3823590000000  0.5285780000000  0.5238600000000 1.0
C      1  0.5799510000000  0.4719620000000  0.5990740000000 1.0
C      1  0.5377500000000  0.4744680000000  0.3784090000000 1.0
C      1  0.3766930000000  0.4820220000000  0.5272260000000 1.0
C      1  0.3926560000000  0.5187650000000  0.4442360000000 1.0
C      1  0.5031580000000  0.5091360000000  0.6203880000000 1.0
C      1  0.6048660000000  0.5173210000000  0.4516920000000 1.0
C      1  0.3962450000000  0.4954090000000  0.4344940000000 1.0
C      1  0.5003490000000  0.4849740000000  0.6128580000000 1.0
C      1  0.6300420000000  0.5214980000000  0.4493440000000 1.0
C      1  0.5083320000000  0.4801620000000  0.4316290000000 1.0
C      1  0.4394020000000  0.4732120000000  0.5224460000000 1.0
C      1  0.5487730000000  0.4678940000000  0.5490730000000 1.0
C      1  0.5150550000000  0.5190810000000  0.4338070000000 1.0
C      1  0.4274920000000  0.5175290000000  0.5238530000000 1.0
C      1  0.5429580000000  0.5176950000000  0.5484370000000 1.0
C      1  0.4904750000000  0.4452720000000  0.4752740000000 1.0
C      1  0.4818530000000  0.4514050000000  0.5362060000000 1.0
C      1  0.5305030000000  0.4493030000000  0.5045900000000 1.0
C      1  0.4773040000000  0.5434210000000  0.4672880000000 1.0
C      1  0.4855660000000  0.5612780000000  0.5206790000000 1.0
C      1  0.5209640000000  0.5550770000000  0.5022740000000 1.0
C      1  0.4986410000000  0.5928540000000  0.5197930000000 1.0
C      1  0.5262800000000  0.5800510000000  0.4882780000000 1.0
C      1  0.4779790000000  0.5963150000000  0.4927820000000 1.0
C      1  0.4966370000000  0.4246230000000  0.5206730000000 1.0
C      1  0.5370490000000  0.4225290000000  0.4885150000000 1.0
C      1  0.4849510000000  0.4161330000000  0.4805250000000 1.0
C      1  0.5404450000000  0.5708700000000  0.4318410000000 1.0
C      1  0.4272990000000  0.5844870000000  0.4945860000000 1.0
C      1  0.5208810000000  0.5793360000000  0.5780810000000 1.0
C      1  0.5489000000000  0.4123610000000  0.4309320000000 1.0
C      1  0.4243720000000  0.4194870000000  0.4963300000000 1.0
C      1  0.5327440000000  0.4059480000000  0.5681600000000 1.0
C      1  0.4921440000000  0.6149370000000  0.4684780000000 1.0
C      1  0.4627540000000  0.6281450000000  0.5179420000000 1.0
C      1  0.5292750000000  0.6049410000000  0.5113240000000 1.0
C      1  0.5014330000000  0.3917370000000  0.4658740000000 1.0
C      1  0.4793300000000  0.3980030000000  0.5162720000000 1.0
C      1  0.5354980000000  0.3958960000000  0.5101600000000 1.0
C      1  0.4586860000000  0.4875300000000  0.5838500000000 1.0
C      1  0.5885520000000  0.4841300000000  0.4989170000000 1.0
C      1  0.4460960000000  0.4751170000000  0.4130930000000 1.0
C      1  0.4558140000000  0.5181230000000  0.5826550000000 1.0
C      1  0.5971600000000  0.5143070000000  0.5080600000000 1.0
C      1  0.4511760000000  0.5087370000000  0.4132460000000 1.0
C      1  0.5366700000000  0.4427510000000  0.5354580000000 1.0
C      1  0.5184190000000  0.4471480000000  0.4568330000000 1.0
C      1  0.4522700000000  0.4463450000000  0.5060530000000 1.0
C      1  0.5248380000000  0.5590880000000  0.5338660000000 1.0
C      1  0.5202670000000  0.5522120000000  0.4603700000000 1.0
C      1  0.4532690000000  0.5496870000000  0.5008610000000 1.0
C      1  0.5178360000000  0.5224400000000  0.4675550000000 1.0
C      1  0.4611760000000  0.5188300000000  0.4943400000000 1.0
C      1  0.5161650000000  0.5265050000000  0.5293990000000 1.0
C      1  0.5285200000000  0.4758910000000  0.4699120000000 1.0
C      1  0.4551890000000  0.4735900000000  0.4855680000000 1.0
C      1  0.5072840000000  0.4880940000000  0.5359800000000 1.0
C      1  0.4870740000000  0.5282140000000  0.5738790000000 1.0
C      1  0.5824260000000  0.5171590000000  0.4772390000000 1.0
C      1  0.4369500000000  0.5129050000000  0.4438780000000 1.0
C      1  0.4902140000000  0.4813670000000  0.5829060000000 1.0
C      1  0.5754250000000  0.4857770000000  0.4683430000000 1.0
C      1  0.4252820000000  0.4828160000000  0.4364250000000 1.0
C      1  0.5348280000000  0.4941330000000  0.4454990000000 1.0
C      1  0.5298410000000  0.4906140000000  0.5535920000000 1.0
C      1  0.4390630000000  0.4988360000000  0.5016560000000 1.0
C      1  0.4970590000000  0.4553210000000  0.5060430000000 1.0
C      1  0.4925920000000  0.5428270000000  0.4970480000000 1.0
END
