TITL C-3289320-4661-359 4.56807060255931e-08 125000 -30.7388670138429 0 0 6 (D6h) n - 1
REM
REM in /nfs/bkarasulu/CARBON/AIRSS/Generating-Clusters/AIREBO/with-SteepDescent/Higher-Symm/SD-CG/HFTN-CG
REM
REM
REM
REM
REM
REM ./C.cell (b20cbc046b6831c77cfcea5457e17084)
REM
REM compiler GCC version 9.2.1 20190827 (Red Hat 9.2.1-1)
REM options -cpp -mtune=generic -march=x86-64 -g -O0 -fpre-include=/usr/include/finclude/math-vector-fortran.h
REM seed 301646842 1702541379 -25999518 367490599 1208054590 -2114224476 -1294932140 -280866404 -1620971264 1117310947 -1063020667 -1299431957 -1757587418 -1337985084 1108238164 -93794837 -655951548 -1660955466 -714826761 -1585046142 628458034 1326816341 1925630496 -1176320957 416395029 1929240946 466165995 882430526 728907565 1069700487 674127488 -1336549880 -2044595323
REM
CELL 1.54180   50.00000   50.00000   50.00000   90.00000   90.00000   90.00000
LATT -1
SFAC C  
C      1  0.4721920000000  0.5007050000000  0.5002260000000 1.0
C      1  0.5278080000000  0.4992950000000  0.4997740000000 1.0
C      1  0.5145300000000  0.5233640000000  0.5041060000000 1.0
C      1  0.4867440000000  0.5238200000000  0.5055440000000 1.0
C      1  0.4854700000000  0.4766360000000  0.4958940000000 1.0
C      1  0.5132560000000  0.4761800000000  0.4944560000000 1.0
END
