TITL C-3289324-3781-502 0.000246970227513264 125000 -492.978538336827 0 0 91 (C1) n - 1
REM
REM in /nfs/bkarasulu/CARBON/AIRSS/Generating-Clusters/AIREBO/with-SteepDescent/Higher-Symm/SD-CG/HFTN-CG
REM
REM
REM
REM
REM
REM ./C.cell (b20cbc046b6831c77cfcea5457e17084)
REM
REM compiler GCC version 9.2.1 20190827 (Red Hat 9.2.1-1)
REM options -cpp -mtune=generic -march=x86-64 -g -O0 -fpre-include=/usr/include/finclude/math-vector-fortran.h
REM seed 829379071 -1756899833 2063973325 2087664276 156189445 781012980 -1223280757 -2132407932 -1434095559 949152409 -2031770242 -168058995 1679371231 -1522228983 -136124789 2021187593 -179668652 2108296238 1050320446 -925314651 1612782780 -974230981 -747251373 1815309160 1384420983 -964302257 -224768639 -937396902 690289692 1130563726 327824491 -286514882 -2024880185
REM
CELL 1.54180   50.00000   50.00000   50.00000   90.00000   90.00000   90.00000
LATT -1
SFAC C  
C      1  0.5780050000000  0.4693490000000  0.4940130000000 1.0
C      1  0.4899990000000  0.5827130000000  0.4776670000000 1.0
C      1  0.4298960000000  0.4464610000000  0.4731950000000 1.0
C      1  0.4237230000000  0.4698710000000  0.5140000000000 1.0
C      1  0.5255750000000  0.5739300000000  0.5132180000000 1.0
C      1  0.5503680000000  0.4360740000000  0.5205000000000 1.0
C      1  0.4619100000000  0.4815930000000  0.5625540000000 1.0
C      1  0.5302110000000  0.4785360000000  0.5607880000000 1.0
C      1  0.5040910000000  0.5370050000000  0.5605400000000 1.0
C      1  0.5290700000000  0.4925430000000  0.4286260000000 1.0
C      1  0.4688430000000  0.4782460000000  0.4365490000000 1.0
C      1  0.4946280000000  0.5359030000000  0.4367190000000 1.0
C      1  0.4292050000000  0.5248290000000  0.4620490000000 1.0
C      1  0.5084070000000  0.4305010000000  0.4672620000000 1.0
C      1  0.5625760000000  0.5530760000000  0.4611560000000 1.0
C      1  0.5629390000000  0.5321580000000  0.5319750000000 1.0
C      1  0.5005960000000  0.4240340000000  0.5420210000000 1.0
C      1  0.4396140000000  0.5393260000000  0.5335700000000 1.0
C      1  0.5287710000000  0.5779920000000  0.5458240000000 1.0
C      1  0.4242670000000  0.4938010000000  0.5282400000000 1.0
C      1  0.5560550000000  0.4384340000000  0.5521700000000 1.0
C      1  0.4689900000000  0.5693160000000  0.4569190000000 1.0
C      1  0.5654050000000  0.4894090000000  0.4495580000000 1.0
C      1  0.4519310000000  0.4371340000000  0.4521490000000 1.0
C      1  0.5035090000000  0.5385830000000  0.5207930000000 1.0
C      1  0.4617310000000  0.4780600000000  0.5233430000000 1.0
C      1  0.5303540000000  0.4770360000000  0.5208650000000 1.0
C      1  0.4914370000000  0.5344380000000  0.4829000000000 1.0
C      1  0.5420380000000  0.5024160000000  0.4792670000000 1.0
C      1  0.4739140000000  0.4740330000000  0.4824690000000 1.0
C      1  0.4676970000000  0.5535710000000  0.5826510000000 1.0
C      1  0.4665840000000  0.4415240000000  0.5834340000000 1.0
C      1  0.5705870000000  0.4977900000000  0.5766810000000 1.0
C      1  0.5202180000000  0.5714850000000  0.4140480000000 1.0
C      1  0.5527270000000  0.4649720000000  0.4447980000000 1.0
C      1  0.4239670000000  0.4891140000000  0.4193300000000 1.0
C      1  0.5727790000000  0.4956950000000  0.4806000000000 1.0
C      1  0.4696540000000  0.5590570000000  0.4887440000000 1.0
C      1  0.4611020000000  0.4453920000000  0.4824400000000 1.0
C      1  0.4305480000000  0.5196090000000  0.5100960000000 1.0
C      1  0.5513440000000  0.5516720000000  0.5097580000000 1.0
C      1  0.5196540000000  0.4233050000000  0.5176830000000 1.0
C      1  0.4983150000000  0.4400460000000  0.4398940000000 1.0
C      1  0.5502900000000  0.5379990000000  0.4379470000000 1.0
C      1  0.4477920000000  0.5298560000000  0.4395160000000 1.0
C      1  0.5105990000000  0.4366850000000  0.5675760000000 1.0
C      1  0.4373750000000  0.5251120000000  0.5609440000000 1.0
C      1  0.5528850000000  0.5395390000000  0.5605610000000 1.0
C      1  0.4534900000000  0.4979390000000  0.4974210000000 1.0
C      1  0.5184130000000  0.4523900000000  0.5029350000000 1.0
C      1  0.5241110000000  0.5390970000000  0.4937490000000 1.0
C      1  0.5279800000000  0.5082310000000  0.5075210000000 1.0
C      1  0.4923070000000  0.4700730000000  0.5107970000000 1.0
C      1  0.4782240000000  0.5186030000000  0.5099310000000 1.0
C      1  0.4432320000000  0.5571740000000  0.5056290000000 1.0
C      1  0.4743680000000  0.4281010000000  0.5014150000000 1.0
C      1  0.5769250000000  0.5208830000000  0.5030930000000 1.0
C      1  0.5742040000000  0.5489130000000  0.4861870000000 1.0
C      1  0.4996490000000  0.4189250000000  0.4919150000000 1.0
C      1  0.4241120000000  0.5397050000000  0.4855120000000 1.0
C      1  0.4712440000000  0.5057610000000  0.5406370000000 1.0
C      1  0.5041060000000  0.4743250000000  0.5424070000000 1.0
C      1  0.5241520000000  0.5204190000000  0.5394380000000 1.0
C      1  0.5255980000000  0.5040880000000  0.4576670000000 1.0
C      1  0.4911940000000  0.4839970000000  0.4578950000000 1.0
C      1  0.4969780000000  0.5156910000000  0.4591820000000 1.0
C      1  0.4726960000000  0.4377360000000  0.5323580000000 1.0
C      1  0.5622830000000  0.4998450000000  0.5262150000000 1.0
C      1  0.4679720000000  0.5539420000000  0.5293040000000 1.0
C      1  0.5314640000000  0.4505090000000  0.4749650000000 1.0
C      1  0.4325910000000  0.4946490000000  0.4707990000000 1.0
C      1  0.5303820000000  0.5577200000000  0.4659780000000 1.0
C      1  0.4710630000000  0.4491420000000  0.4351480000000 1.0
C      1  0.5552070000000  0.5114110000000  0.4319860000000 1.0
C      1  0.4691060000000  0.5477910000000  0.4386450000000 1.0
C      1  0.5351470000000  0.4509400000000  0.5668330000000 1.0
C      1  0.4352020000000  0.4966740000000  0.5551940000000 1.0
C      1  0.5288180000000  0.5541020000000  0.5613780000000 1.0
C      1  0.4433910000000  0.4501480000000  0.5252050000000 1.0
C      1  0.5629670000000  0.4677060000000  0.5231960000000 1.0
C      1  0.4946960000000  0.5701390000000  0.5269550000000 1.0
C      1  0.5579340000000  0.4457470000000  0.4904720000000 1.0
C      1  0.4205480000000  0.4698300000000  0.4854580000000 1.0
C      1  0.5170870000000  0.5792670000000  0.4837780000000 1.0
C      1  0.4827520000000  0.4547800000000  0.5602550000000 1.0
C      1  0.5485990000000  0.5045780000000  0.5569810000000 1.0
C      1  0.4711710000000  0.5352680000000  0.5575450000000 1.0
C      1  0.5188210000000  0.4661050000000  0.4474280000000 1.0
C      1  0.4435580000000  0.4959280000000  0.4386280000000 1.0
C      1  0.5206340000000  0.5518580000000  0.4339370000000 1.0
C      1  0.4999610000000  0.4983980000000  0.5005610000000 1.0
END
