TITL C-3289326-3776-127 -0.0020061651638419 125000 -497.036209368941 0 0 95 (C1) n - 1
REM
REM in /nfs/bkarasulu/CARBON/AIRSS/Generating-Clusters/AIREBO/with-SteepDescent/Higher-Symm/SD-CG/HFTN-CG
REM
REM
REM
REM
REM
REM ./C.cell (b20cbc046b6831c77cfcea5457e17084)
REM
REM compiler GCC version 9.2.1 20190827 (Red Hat 9.2.1-1)
REM options -cpp -mtune=generic -march=x86-64 -g -O0 -fpre-include=/usr/include/finclude/math-vector-fortran.h
REM seed 1204968374 -2034255508 405216025 -69892903 142678677 667887815 484770812 -1246146464 -688757857 597771528 -666033921 -314524097 1638973488 1575457276 -1538569208 -933670339 -402987134 770330873 193982667 -2059392928 -2084359858 -1843895958 -1979973486 864576800 2051380421 -416221421 -338452138 688314284 -1734108954 1217808751 -1217902929 -1626695639 1598877304
REM
CELL 1.54180   50.00000   50.00000   50.00000   90.00000   90.00000   90.00000
LATT -1
SFAC C  
C      1  0.4439040000000  0.4860240000000  0.5191570000000 1.0
C      1  0.4734070000000  0.4730250000000  0.4443670000000 1.0
C      1  0.5340320000000  0.4927390000000  0.4635750000000 1.0
C      1  0.5466250000000  0.4819650000000  0.5272170000000 1.0
C      1  0.4936590000000  0.4821930000000  0.5579550000000 1.0
C      1  0.5518720000000  0.5067330000000  0.5106420000000 1.0
C      1  0.5141160000000  0.5131900000000  0.4483020000000 1.0
C      1  0.4437730000000  0.5160020000000  0.4381920000000 1.0
C      1  0.4437130000000  0.5170590000000  0.5172480000000 1.0
C      1  0.5150440000000  0.5052840000000  0.5682400000000 1.0
C      1  0.4321840000000  0.5567160000000  0.5245550000000 1.0
C      1  0.4399980000000  0.5644660000000  0.4483700000000 1.0
C      1  0.5268180000000  0.5542010000000  0.4381760000000 1.0
C      1  0.5693600000000  0.5525760000000  0.5083040000000 1.0
C      1  0.5099630000000  0.5323430000000  0.5556740000000 1.0
C      1  0.5608010000000  0.4528220000000  0.5358850000000 1.0
C      1  0.5527900000000  0.4343750000000  0.4573310000000 1.0
C      1  0.4757690000000  0.4396170000000  0.4382860000000 1.0
C      1  0.4355190000000  0.4486690000000  0.5076170000000 1.0
C      1  0.5017480000000  0.4492190000000  0.5598460000000 1.0
C      1  0.4307590000000  0.5289130000000  0.5440770000000 1.0
C      1  0.4273420000000  0.5394350000000  0.4421650000000 1.0
C      1  0.5327760000000  0.5283810000000  0.4247940000000 1.0
C      1  0.5776930000000  0.5260290000000  0.5086330000000 1.0
C      1  0.5158020000000  0.5072650000000  0.5988730000000 1.0
C      1  0.5835470000000  0.4554290000000  0.5558730000000 1.0
C      1  0.5780700000000  0.4468230000000  0.4625550000000 1.0
C      1  0.4636330000000  0.4598350000000  0.4146430000000 1.0
C      1  0.4171020000000  0.4711290000000  0.5066520000000 1.0
C      1  0.4798500000000  0.4674330000000  0.5853110000000 1.0
C      1  0.5474530000000  0.4490490000000  0.4881210000000 1.0
C      1  0.5322630000000  0.4396820000000  0.5482560000000 1.0
C      1  0.4777780000000  0.4521480000000  0.5367450000000 1.0
C      1  0.4552050000000  0.4488310000000  0.4813860000000 1.0
C      1  0.5052480000000  0.4490450000000  0.4512550000000 1.0
C      1  0.4473230000000  0.5692430000000  0.4789580000000 1.0
C      1  0.4639990000000  0.5513180000000  0.5351220000000 1.0
C      1  0.5225560000000  0.5434270000000  0.5302320000000 1.0
C      1  0.5460590000000  0.5538300000000  0.4853020000000 1.0
C      1  0.5001940000000  0.5490760000000  0.4586980000000 1.0
C      1  0.4549510000000  0.4254200000000  0.4567240000000 1.0
C      1  0.5316560000000  0.4322460000000  0.4414980000000 1.0
C      1  0.5677980000000  0.4358860000000  0.5109090000000 1.0
C      1  0.5151000000000  0.4212960000000  0.5731940000000 1.0
C      1  0.4450550000000  0.4434600000000  0.5336100000000 1.0
C      1  0.5502110000000  0.5626780000000  0.4527350000000 1.0
C      1  0.4622260000000  0.5680900000000  0.4312530000000 1.0
C      1  0.4268630000000  0.5720370000000  0.5027750000000 1.0
C      1  0.4862940000000  0.5460650000000  0.5602550000000 1.0
C      1  0.5653360000000  0.5615810000000  0.5347860000000 1.0
C      1  0.5104940000000  0.4728610000000  0.4749600000000 1.0
C      1  0.5253580000000  0.4686070000000  0.5050700000000 1.0
C      1  0.5009200000000  0.4823950000000  0.5246160000000 1.0
C      1  0.4721350000000  0.4747320000000  0.5119490000000 1.0
C      1  0.4761300000000  0.4754690000000  0.4781750000000 1.0
C      1  0.4804180000000  0.5321780000000  0.4806260000000 1.0
C      1  0.4741960000000  0.5270010000000  0.5136510000000 1.0
C      1  0.5001600000000  0.5120330000000  0.5181010000000 1.0
C      1  0.5262250000000  0.5233020000000  0.5067370000000 1.0
C      1  0.5228230000000  0.5307030000000  0.4762220000000 1.0
C      1  0.4749200000000  0.5784500000000  0.4907170000000 1.0
C      1  0.4993390000000  0.5758550000000  0.4758410000000 1.0
C      1  0.5221140000000  0.5752620000000  0.4941980000000 1.0
C      1  0.5104250000000  0.5689270000000  0.5196560000000 1.0
C      1  0.4819230000000  0.5730860000000  0.5182780000000 1.0
C      1  0.5252850000000  0.4260040000000  0.4944880000000 1.0
C      1  0.5025970000000  0.4274820000000  0.4773000000000 1.0
C      1  0.4795400000000  0.4285120000000  0.4933940000000 1.0
C      1  0.4884130000000  0.4281090000000  0.5201990000000 1.0
C      1  0.5168550000000  0.4256050000000  0.5213740000000 1.0
C      1  0.5646840000000  0.5335300000000  0.4653530000000 1.0
C      1  0.5475200000000  0.5442490000000  0.5488180000000 1.0
C      1  0.4500350000000  0.5437850000000  0.5652650000000 1.0
C      1  0.4487060000000  0.5372740000000  0.4762440000000 1.0
C      1  0.4803580000000  0.5466160000000  0.4335820000000 1.0
C      1  0.4326600000000  0.4662600000000  0.4628290000000 1.0
C      1  0.4546960000000  0.4672720000000  0.5566290000000 1.0
C      1  0.5417850000000  0.4625080000000  0.5715970000000 1.0
C      1  0.5728930000000  0.4708560000000  0.4823190000000 1.0
C      1  0.5085300000000  0.4718160000000  0.4262060000000 1.0
C      1  0.5531090000000  0.5121210000000  0.4422780000000 1.0
C      1  0.5513200000000  0.5211030000000  0.5626400000000 1.0
C      1  0.4628280000000  0.5224040000000  0.5822650000000 1.0
C      1  0.4292250000000  0.5252050000000  0.4941610000000 1.0
C      1  0.4704200000000  0.5206450000000  0.4292560000000 1.0
C      1  0.4389970000000  0.4911450000000  0.4547230000000 1.0
C      1  0.4374940000000  0.4960670000000  0.5503680000000 1.0
C      1  0.5513620000000  0.4567400000000  0.5950450000000 1.0
C      1  0.5955870000000  0.4960790000000  0.4845690000000 1.0
C      1  0.5217030000000  0.4680640000000  0.4040890000000 1.0
C      1  0.5619710000000  0.5029730000000  0.4800400000000 1.0
C      1  0.5412300000000  0.4897380000000  0.5575120000000 1.0
C      1  0.4649880000000  0.4978070000000  0.5674850000000 1.0
C      1  0.4906240000000  0.4988120000000  0.4344410000000 1.0
C      1  0.4617670000000  0.5057750000000  0.4724060000000 1.0
END
