TITL C-3289328-6581-262 -0.000982042628481277 125000 -714.620145668523 0 0 135 (C1) n - 1
REM
REM in /nfs/bkarasulu/CARBON/AIRSS/Generating-Clusters/AIREBO/with-SteepDescent/Higher-Symm/SD-CG/HFTN-CG
REM
REM
REM
REM
REM
REM ./C.cell (b20cbc046b6831c77cfcea5457e17084)
REM
REM compiler GCC version 9.2.1 20190827 (Red Hat 9.2.1-1)
REM options -cpp -mtune=generic -march=x86-64 -g -O0 -fpre-include=/usr/include/finclude/math-vector-fortran.h
REM seed 1694561385 -1636859770 1863439974 -1849617425 1159636499 1013305220 1344494606 -337011101 -1990424001 1854198728 -1837281998 -287220634 1277456749 -951116784 1249276210 -1609855004 -1625839273 1478796556 774777636 -1140331732 -957628841 -943074824 -1189745282 41900482 -186835841 -615434231 92133304 551963770 2121555958 163170639 -610909407 -886272428 -1308049962
REM
CELL 1.54180   50.00000   50.00000   50.00000   90.00000   90.00000   90.00000
LATT -1
SFAC C  
C      1  0.4258590000000  0.5411070000000  0.4633440000000 1.0
C      1  0.4267230000000  0.4958240000000  0.5558870000000 1.0
C      1  0.4345980000000  0.4590870000000  0.4846990000000 1.0
C      1  0.5773520000000  0.5370840000000  0.4665120000000 1.0
C      1  0.5744480000000  0.5198650000000  0.5602240000000 1.0
C      1  0.5790590000000  0.4452190000000  0.4870020000000 1.0
C      1  0.4236870000000  0.5497580000000  0.5322850000000 1.0
C      1  0.4202020000000  0.5141290000000  0.4444370000000 1.0
C      1  0.4296880000000  0.4543830000000  0.5185770000000 1.0
C      1  0.5805130000000  0.5392010000000  0.5347600000000 1.0
C      1  0.5796380000000  0.5111270000000  0.4450280000000 1.0
C      1  0.5793130000000  0.4484570000000  0.5202980000000 1.0
C      1  0.4418780000000  0.5615600000000  0.4442220000000 1.0
C      1  0.4345080000000  0.5158810000000  0.5799490000000 1.0
C      1  0.4357600000000  0.4250980000000  0.4847560000000 1.0
C      1  0.5595360000000  0.5524190000000  0.4429360000000 1.0
C      1  0.5615010000000  0.5278300000000  0.5829780000000 1.0
C      1  0.5645210000000  0.4212980000000  0.4787150000000 1.0
C      1  0.4369560000000  0.5514500000000  0.5558790000000 1.0
C      1  0.4363720000000  0.5198260000000  0.4150460000000 1.0
C      1  0.4399550000000  0.4252680000000  0.5283810000000 1.0
C      1  0.5581090000000  0.5556880000000  0.5537210000000 1.0
C      1  0.5625630000000  0.5204650000000  0.4192910000000 1.0
C      1  0.5689360000000  0.4173050000000  0.5181350000000 1.0
C      1  0.5684390000000  0.4819630000000  0.4364980000000 1.0
C      1  0.5668670000000  0.5626620000000  0.5155040000000 1.0
C      1  0.5702710000000  0.4589910000000  0.5483840000000 1.0
C      1  0.4263060000000  0.4853450000000  0.4323070000000 1.0
C      1  0.4311750000000  0.5730500000000  0.5139010000000 1.0
C      1  0.4294670000000  0.4562340000000  0.5510830000000 1.0
C      1  0.5825180000000  0.4900170000000  0.5507560000000 1.0
C      1  0.5777410000000  0.5625870000000  0.4855810000000 1.0
C      1  0.5791470000000  0.4602930000000  0.4577820000000 1.0
C      1  0.4067780000000  0.4732280000000  0.5654860000000 1.0
C      1  0.4282840000000  0.5681950000000  0.4820880000000 1.0
C      1  0.4256640000000  0.4593700000000  0.4457160000000 1.0
C      1  0.5551830000000  0.4455650000000  0.4462520000000 1.0
C      1  0.5655020000000  0.5847070000000  0.4697990000000 1.0
C      1  0.5642510000000  0.4854530000000  0.5777200000000 1.0
C      1  0.4224820000000  0.4318950000000  0.4581400000000 1.0
C      1  0.4158250000000  0.5921420000000  0.4682260000000 1.0
C      1  0.3833730000000  0.4705090000000  0.5752980000000 1.0
C      1  0.5828200000000  0.4421610000000  0.5709350000000 1.0
C      1  0.5700200000000  0.5903320000000  0.5281410000000 1.0
C      1  0.5779750000000  0.4748510000000  0.4082190000000 1.0
C      1  0.4388650000000  0.4343460000000  0.5753590000000 1.0
C      1  0.4233470000000  0.6006040000000  0.5234810000000 1.0
C      1  0.4338610000000  0.4905890000000  0.3995740000000 1.0
C      1  0.5157950000000  0.5111530000000  0.5673120000000 1.0
C      1  0.5126390000000  0.4396590000000  0.4751040000000 1.0
C      1  0.5219930000000  0.5424480000000  0.4566730000000 1.0
C      1  0.4836430000000  0.5065260000000  0.5627870000000 1.0
C      1  0.4849890000000  0.4203540000000  0.4796990000000 1.0
C      1  0.4885620000000  0.5466410000000  0.4604400000000 1.0
C      1  0.5061430000000  0.5186900000000  0.4382030000000 1.0
C      1  0.5209320000000  0.4362510000000  0.5079010000000 1.0
C      1  0.5128550000000  0.5308820000000  0.5413580000000 1.0
C      1  0.4772690000000  0.5074620000000  0.4433490000000 1.0
C      1  0.4878700000000  0.4382790000000  0.5063740000000 1.0
C      1  0.4847170000000  0.5387200000000  0.5356360000000 1.0
C      1  0.4801530000000  0.5825520000000  0.4461650000000 1.0
C      1  0.4813620000000  0.5025760000000  0.6018050000000 1.0
C      1  0.4897810000000  0.4170100000000  0.4502690000000 1.0
C      1  0.5105070000000  0.5806610000000  0.4521470000000 1.0
C      1  0.5117310000000  0.5102880000000  0.6070320000000 1.0
C      1  0.5192390000000  0.4130530000000  0.4462610000000 1.0
C      1  0.4864620000000  0.5766520000000  0.5475320000000 1.0
C      1  0.4895670000000  0.5018410000000  0.4059710000000 1.0
C      1  0.4895550000000  0.4166600000000  0.5496940000000 1.0
C      1  0.5166330000000  0.5750110000000  0.5518680000000 1.0
C      1  0.5195400000000  0.5044330000000  0.4035690000000 1.0
C      1  0.5203520000000  0.4119980000000  0.5395230000000 1.0
C      1  0.5142140000000  0.5822300000000  0.4865250000000 1.0
C      1  0.5149240000000  0.4826380000000  0.5953250000000 1.0
C      1  0.5083850000000  0.4410570000000  0.4254110000000 1.0
C      1  0.4813920000000  0.5830920000000  0.4792480000000 1.0
C      1  0.4873650000000  0.4708130000000  0.5908590000000 1.0
C      1  0.4756470000000  0.4421310000000  0.4345790000000 1.0
C      1  0.5154510000000  0.5768970000000  0.5200830000000 1.0
C      1  0.5153730000000  0.4735240000000  0.4171420000000 1.0
C      1  0.5209620000000  0.4370040000000  0.5585450000000 1.0
C      1  0.4830790000000  0.5828340000000  0.5135630000000 1.0
C      1  0.4818650000000  0.4693100000000  0.4158650000000 1.0
C      1  0.4895930000000  0.4445760000000  0.5693430000000 1.0
C      1  0.4598570000000  0.5617420000000  0.4889050000000 1.0
C      1  0.4571090000000  0.4865270000000  0.5554900000000 1.0
C      1  0.4547380000000  0.4502840000000  0.4587100000000 1.0
C      1  0.5393440000000  0.5654200000000  0.4747710000000 1.0
C      1  0.5333750000000  0.4834640000000  0.5706270000000 1.0
C      1  0.5259520000000  0.4522340000000  0.4492900000000 1.0
C      1  0.4611620000000  0.5593310000000  0.5223250000000 1.0
C      1  0.4577350000000  0.4875560000000  0.4244650000000 1.0
C      1  0.4604140000000  0.4563730000000  0.5651710000000 1.0
C      1  0.5362800000000  0.5538200000000  0.5059960000000 1.0
C      1  0.5384610000000  0.4812460000000  0.4396990000000 1.0
C      1  0.5393950000000  0.4598850000000  0.5507260000000 1.0
C      1  0.4612010000000  0.4793090000000  0.4875890000000 1.0
C      1  0.4748780000000  0.5312720000000  0.4875090000000 1.0
C      1  0.4700510000000  0.4927410000000  0.5279750000000 1.0
C      1  0.5148340000000  0.4806660000000  0.4942880000000 1.0
C      1  0.5292820000000  0.5214850000000  0.4836830000000 1.0
C      1  0.5294970000000  0.4957170000000  0.5321190000000 1.0
C      1  0.4789260000000  0.4662310000000  0.5091570000000 1.0
C      1  0.4706840000000  0.5197240000000  0.5168450000000 1.0
C      1  0.4749080000000  0.5024230000000  0.4732510000000 1.0
C      1  0.5257120000000  0.4642070000000  0.5199000000000 1.0
C      1  0.5324930000000  0.5219870000000  0.5173260000000 1.0
C      1  0.5271720000000  0.5029200000000  0.4556190000000 1.0
C      1  0.5956110000000  0.5203610000000  0.5162330000000 1.0
C      1  0.5984530000000  0.4717440000000  0.5090820000000 1.0
C      1  0.5989190000000  0.5037610000000  0.4696710000000 1.0
C      1  0.4137470000000  0.5279800000000  0.5182630000000 1.0
C      1  0.4144850000000  0.4810060000000  0.5113290000000 1.0
C      1  0.4061230000000  0.5077710000000  0.4721000000000 1.0
C      1  0.5976900000000  0.5252980000000  0.4899680000000 1.0
C      1  0.5966910000000  0.4758990000000  0.4788220000000 1.0
C      1  0.5981770000000  0.4945010000000  0.5256580000000 1.0
C      1  0.4087990000000  0.5308200000000  0.4909220000000 1.0
C      1  0.4104190000000  0.4828860000000  0.4824180000000 1.0
C      1  0.4169780000000  0.5024700000000  0.5281350000000 1.0
C      1  0.4711190000000  0.5519370000000  0.4344560000000 1.0
C      1  0.4644850000000  0.5251890000000  0.5828260000000 1.0
C      1  0.4585500000000  0.4136000000000  0.4952460000000 1.0
C      1  0.5296270000000  0.5627400000000  0.4304800000000 1.0
C      1  0.5296980000000  0.5307440000000  0.5908190000000 1.0
C      1  0.5332430000000  0.4137130000000  0.4773710000000 1.0
C      1  0.4687230000000  0.5509260000000  0.5609710000000 1.0
C      1  0.4675040000000  0.5254720000000  0.4166500000000 1.0
C      1  0.4718190000000  0.4191990000000  0.5260670000000 1.0
C      1  0.5289100000000  0.5487560000000  0.5636650000000 1.0
C      1  0.5321890000000  0.5305230000000  0.4198280000000 1.0
C      1  0.5387830000000  0.4101850000000  0.5109870000000 1.0
C      1  0.4986970000000  0.4807320000000  0.5307610000000 1.0
C      1  0.5041960000000  0.4923820000000  0.4732280000000 1.0
C      1  0.5056540000000  0.5425180000000  0.4961520000000 1.0
END
