TITL C-3289323-3850-434 0.00585457090123106 125000 -317.499416369745 0 0 56 (C1) n - 1
REM
REM in /nfs/bkarasulu/CARBON/AIRSS/Generating-Clusters/AIREBO/with-SteepDescent/Higher-Symm/SD-CG/HFTN-CG
REM
REM
REM
REM
REM
REM ./C.cell (b20cbc046b6831c77cfcea5457e17084)
REM
REM compiler GCC version 9.2.1 20190827 (Red Hat 9.2.1-1)
REM options -cpp -mtune=generic -march=x86-64 -g -O0 -fpre-include=/usr/include/finclude/math-vector-fortran.h
REM seed -1491350157 342206260 321554253 -421920072 -782427186 684773908 1378037675 65702035 1327901799 -2067321334 520424153 1768486530 -117005900 1603891142 -1033927236 94435271 1005413966 -882682855 -1713805901 -1185796202 -619615545 -60041847 -1235086293 1154615993 1001777825 -1411948259 -2118659886 2027299392 464186048 -385430210 -2107272242 58444933 -1714053932
REM
CELL 1.54180   50.00000   50.00000   50.00000   90.00000   90.00000   90.00000
LATT -1
SFAC C  
C      1  0.4915250000000  0.4727430000000  0.5143010000000 1.0
C      1  0.5186610000000  0.5149370000000  0.5080680000000 1.0
C      1  0.4705510000000  0.4866940000000  0.4987330000000 1.0
C      1  0.5284840000000  0.5214270000000  0.4791470000000 1.0
C      1  0.4919620000000  0.5270380000000  0.5148120000000 1.0
C      1  0.5186590000000  0.4846080000000  0.5079650000000 1.0
C      1  0.4708340000000  0.5127100000000  0.4984180000000 1.0
C      1  0.5311230000000  0.4763100000000  0.4808690000000 1.0
C      1  0.4594760000000  0.4855450000000  0.4603890000000 1.0
C      1  0.5551680000000  0.5110480000000  0.4515840000000 1.0
C      1  0.4541870000000  0.4870620000000  0.5439150000000 1.0
C      1  0.5401960000000  0.5138340000000  0.5417380000000 1.0
C      1  0.4572600000000  0.5152310000000  0.4608850000000 1.0
C      1  0.5474730000000  0.4862610000000  0.4441710000000 1.0
C      1  0.4507000000000  0.5183620000000  0.5414260000000 1.0
C      1  0.5411430000000  0.4848590000000  0.5449640000000 1.0
C      1  0.5281990000000  0.5516500000000  0.5380330000000 1.0
C      1  0.4653940000000  0.4341690000000  0.5324730000000 1.0
C      1  0.5269060000000  0.5585250000000  0.4644890000000 1.0
C      1  0.4732620000000  0.4480380000000  0.4608540000000 1.0
C      1  0.5280780000000  0.4473230000000  0.5414850000000 1.0
C      1  0.4646850000000  0.5677270000000  0.5337890000000 1.0
C      1  0.5302030000000  0.4405550000000  0.4635780000000 1.0
C      1  0.4688800000000  0.5533670000000  0.4636310000000 1.0
C      1  0.4325280000000  0.5327660000000  0.5165710000000 1.0
C      1  0.5484630000000  0.4700660000000  0.5157450000000 1.0
C      1  0.4455850000000  0.5278270000000  0.4902370000000 1.0
C      1  0.5603860000000  0.4630430000000  0.4868070000000 1.0
C      1  0.4374090000000  0.4728320000000  0.5177900000000 1.0
C      1  0.5503680000000  0.5264580000000  0.5118470000000 1.0
C      1  0.4448940000000  0.4719110000000  0.4879180000000 1.0
C      1  0.5622460000000  0.5243350000000  0.4822080000000 1.0
C      1  0.4392120000000  0.5448820000000  0.4617970000000 1.0
C      1  0.5561720000000  0.4584590000000  0.4557570000000 1.0
C      1  0.4445750000000  0.5507190000000  0.5405820000000 1.0
C      1  0.5586660000000  0.4550650000000  0.5445030000000 1.0
C      1  0.4434070000000  0.4546920000000  0.4595500000000 1.0
C      1  0.5521690000000  0.5443040000000  0.4566250000000 1.0
C      1  0.4484160000000  0.4537490000000  0.5402980000000 1.0
C      1  0.5581950000000  0.5432500000000  0.5403570000000 1.0
C      1  0.5128540000000  0.5710490000000  0.4863080000000 1.0
C      1  0.4852720000000  0.4330990000000  0.4810670000000 1.0
C      1  0.5173890000000  0.5665950000000  0.5172440000000 1.0
C      1  0.4875600000000  0.4418800000000  0.5121170000000 1.0
C      1  0.5155510000000  0.4312500000000  0.4859260000000 1.0
C      1  0.4821920000000  0.5689380000000  0.4825130000000 1.0
C      1  0.5185140000000  0.4338680000000  0.5186310000000 1.0
C      1  0.4861470000000  0.5586030000000  0.5131240000000 1.0
C      1  0.5119990000000  0.5319410000000  0.4573220000000 1.0
C      1  0.4888230000000  0.4714870000000  0.4502140000000 1.0
C      1  0.5110710000000  0.5288950000000  0.5498990000000 1.0
C      1  0.4872160000000  0.4816300000000  0.5439090000000 1.0
C      1  0.5182900000000  0.4702800000000  0.4521110000000 1.0
C      1  0.4852880000000  0.5310900000000  0.4523040000000 1.0
C      1  0.5127900000000  0.4706360000000  0.5555360000000 1.0
C      1  0.4833400000000  0.5143810000000  0.5434670000000 1.0
END
