TITL C-3289331-6719-577 0.000598626863705042 125000 -361.379474403508 0 0 69 (C1) n - 1
REM
REM in /nfs/bkarasulu/CARBON/AIRSS/Generating-Clusters/AIREBO/with-SteepDescent/Higher-Symm/SD-CG/HFTN-CG
REM
REM
REM
REM
REM
REM ./C.cell (b20cbc046b6831c77cfcea5457e17084)
REM
REM compiler GCC version 9.2.1 20190827 (Red Hat 9.2.1-1)
REM options -cpp -mtune=generic -march=x86-64 -g -O0 -fpre-include=/usr/include/finclude/math-vector-fortran.h
REM seed -1739102851 1947109828 -1114798130 -351795883 -1653317938 45037893 -352518219 227986117 -936669492 1814487903 -1657033150 -190110409 -1490137836 -657505756 600513450 -152729541 -714542951 -1080684560 -2116035837 -1933604480 783813593 1903817753 1903595059 415868156 973659439 874553115 -979522459 923235116 270860683 1646251291 -1996919407 871309880 -897633901
REM
CELL 1.54180   50.00000   50.00000   50.00000   90.00000   90.00000   90.00000
LATT -1
SFAC C  
C      1  0.4930220000000  0.5778600000000  0.5132620000000 1.0
C      1  0.4974270000000  0.5184200000000  0.5645230000000 1.0
C      1  0.4998140000000  0.4604830000000  0.5313600000000 1.0
C      1  0.5004320000000  0.4683020000000  0.4701130000000 1.0
C      1  0.4993840000000  0.5177320000000  0.4576560000000 1.0
C      1  0.5344180000000  0.5587380000000  0.5353930000000 1.0
C      1  0.5361590000000  0.4877720000000  0.5770400000000 1.0
C      1  0.5329520000000  0.4232360000000  0.5195040000000 1.0
C      1  0.5284500000000  0.4568830000000  0.4392060000000 1.0
C      1  0.5366480000000  0.5530070000000  0.4534830000000 1.0
C      1  0.5360220000000  0.4879660000000  0.4374330000000 1.0
C      1  0.5265550000000  0.5684780000000  0.4762870000000 1.0
C      1  0.5295760000000  0.5243210000000  0.5550960000000 1.0
C      1  0.5374730000000  0.4557550000000  0.5432420000000 1.0
C      1  0.5275420000000  0.4393670000000  0.4661210000000 1.0
C      1  0.4574350000000  0.5186970000000  0.5442550000000 1.0
C      1  0.4544420000000  0.4643920000000  0.5348000000000 1.0
C      1  0.4513670000000  0.4539300000000  0.4811270000000 1.0
C      1  0.4537430000000  0.4937950000000  0.4559860000000 1.0
C      1  0.4574580000000  0.5333730000000  0.4904120000000 1.0
C      1  0.5286440000000  0.5052010000000  0.4620070000000 1.0
C      1  0.5064630000000  0.5516810000000  0.4967310000000 1.0
C      1  0.5053380000000  0.5194270000000  0.5074630000000 1.0
C      1  0.5260260000000  0.4808180000000  0.5233100000000 1.0
C      1  0.5283260000000  0.4617670000000  0.4885570000000 1.0
C      1  0.5054880000000  0.4286310000000  0.5208840000000 1.0
C      1  0.4945980000000  0.4552080000000  0.4392390000000 1.0
C      1  0.5056170000000  0.5479220000000  0.4461410000000 1.0
C      1  0.5080630000000  0.5732710000000  0.5403300000000 1.0
C      1  0.5095910000000  0.4930570000000  0.5822420000000 1.0
C      1  0.4882800000000  0.5692370000000  0.4648930000000 1.0
C      1  0.4808610000000  0.5534200000000  0.5450360000000 1.0
C      1  0.4852530000000  0.4803840000000  0.5627260000000 1.0
C      1  0.4863400000000  0.4359100000000  0.4956440000000 1.0
C      1  0.4945180000000  0.4836570000000  0.4206190000000 1.0
C      1  0.5551940000000  0.4623450000000  0.4594820000000 1.0
C      1  0.5491200000000  0.5290700000000  0.4610200000000 1.0
C      1  0.5346990000000  0.5288690000000  0.5217840000000 1.0
C      1  0.5448360000000  0.4948380000000  0.5473410000000 1.0
C      1  0.5485710000000  0.4501250000000  0.5115900000000 1.0
C      1  0.4779410000000  0.4687670000000  0.4932210000000 1.0
C      1  0.4851460000000  0.4920150000000  0.4508430000000 1.0
C      1  0.4851990000000  0.5382540000000  0.4786090000000 1.0
C      1  0.4882750000000  0.5237280000000  0.5335970000000 1.0
C      1  0.4788390000000  0.4851490000000  0.5296730000000 1.0
C      1  0.4726490000000  0.5419320000000  0.4402390000000 1.0
C      1  0.4620930000000  0.5741410000000  0.5169560000000 1.0
C      1  0.4664540000000  0.5134820000000  0.5766340000000 1.0
C      1  0.4752080000000  0.4372030000000  0.5343730000000 1.0
C      1  0.4635970000000  0.4497040000000  0.4364060000000 1.0
C      1  0.5587220000000  0.5167380000000  0.5079100000000 1.0
C      1  0.5651800000000  0.4939200000000  0.5230570000000 1.0
C      1  0.5688160000000  0.4719520000000  0.5056660000000 1.0
C      1  0.5684150000000  0.4804620000000  0.4772880000000 1.0
C      1  0.5638130000000  0.5111720000000  0.4800050000000 1.0
C      1  0.4561410000000  0.5439510000000  0.5215070000000 1.0
C      1  0.4520750000000  0.4883360000000  0.5588250000000 1.0
C      1  0.4536340000000  0.4412050000000  0.5099120000000 1.0
C      1  0.4482260000000  0.4631840000000  0.4547870000000 1.0
C      1  0.4537240000000  0.5276610000000  0.4569650000000 1.0
C      1  0.5109050000000  0.4580040000000  0.5634050000000 1.0
C      1  0.5013640000000  0.4262960000000  0.4720490000000 1.0
C      1  0.5196770000000  0.4930070000000  0.4146540000000 1.0
C      1  0.5021260000000  0.5888540000000  0.4835940000000 1.0
C      1  0.5091100000000  0.5503510000000  0.5651770000000 1.0
C      1  0.4195640000000  0.4985110000000  0.4967010000000 1.0
C      1  0.5214830000000  0.4940750000000  0.4922700000000 1.0
C      1  0.4480600000000  0.5025680000000  0.4871300000000 1.0
C      1  0.4774620000000  0.5004290000000  0.5030790000000 1.0
END
