TITL C-3289334-2237-438 0.000186896830341562 125000 -534.439038383651 0 0 98 (C1) n - 1
REM
REM in /nfs/bkarasulu/CARBON/AIRSS/Generating-Clusters/AIREBO/with-SteepDescent/Higher-Symm/SD-CG/HFTN-CG
REM
REM
REM
REM
REM
REM ./C.cell (b20cbc046b6831c77cfcea5457e17084)
REM
REM compiler GCC version 9.2.1 20190827 (Red Hat 9.2.1-1)
REM options -cpp -mtune=generic -march=x86-64 -g -O0 -fpre-include=/usr/include/finclude/math-vector-fortran.h
REM seed 1600883212 -1212284524 -2115884377 -1316501558 -940695984 -1727511424 -208190219 1665941355 -1293412736 -205106519 437205079 -305830800 313670208 2060193923 -444974225 -1117250383 1952762894 -511831147 202933946 -1099413366 -2015358311 317975146 1340061888 -91290223 -1770699758 122524979 -1501731484 -1947961272 713687186 138391743 -1864597051 1826135001 1068270400
REM
CELL 1.54180   50.00000   50.00000   50.00000   90.00000   90.00000   90.00000
LATT -1
SFAC C  
C      1  0.4557630000000  0.4386590000000  0.4677770000000 1.0
C      1  0.4458580000000  0.5102190000000  0.4237590000000 1.0
C      1  0.4532420000000  0.5721860000000  0.4955960000000 1.0
C      1  0.4469910000000  0.5300730000000  0.5725330000000 1.0
C      1  0.4395880000000  0.4462350000000  0.5559020000000 1.0
C      1  0.5511820000000  0.4236150000000  0.4675890000000 1.0
C      1  0.5627480000000  0.5147200000000  0.4227510000000 1.0
C      1  0.5480600000000  0.5754770000000  0.4864440000000 1.0
C      1  0.5501750000000  0.5370450000000  0.5600780000000 1.0
C      1  0.5547180000000  0.4531850000000  0.5608390000000 1.0
C      1  0.5244380000000  0.4206870000000  0.4822680000000 1.0
C      1  0.5316010000000  0.5134270000000  0.4182800000000 1.0
C      1  0.5190670000000  0.5785320000000  0.4794050000000 1.0
C      1  0.5171280000000  0.5372950000000  0.5619500000000 1.0
C      1  0.5221470000000  0.4554580000000  0.5579360000000 1.0
C      1  0.4809770000000  0.4271560000000  0.4741160000000 1.0
C      1  0.4778050000000  0.5111860000000  0.4228590000000 1.0
C      1  0.4783230000000  0.5678120000000  0.4782480000000 1.0
C      1  0.4768480000000  0.5377310000000  0.5704270000000 1.0
C      1  0.4721950000000  0.4477830000000  0.5579230000000 1.0
C      1  0.4184750000000  0.4767540000000  0.4992750000000 1.0
C      1  0.4226900000000  0.4974030000000  0.4744800000000 1.0
C      1  0.4204270000000  0.5266040000000  0.4862380000000 1.0
C      1  0.4196130000000  0.5238180000000  0.5193480000000 1.0
C      1  0.4208790000000  0.4913540000000  0.5264810000000 1.0
C      1  0.5800860000000  0.4761930000000  0.4900910000000 1.0
C      1  0.5839390000000  0.4936550000000  0.4670490000000 1.0
C      1  0.5811350000000  0.5245060000000  0.4757660000000 1.0
C      1  0.5786180000000  0.5237080000000  0.5085500000000 1.0
C      1  0.5728030000000  0.4910000000000  0.5149160000000 1.0
C      1  0.5211900000000  0.5142080000000  0.4608030000000 1.0
C      1  0.5230520000000  0.5382810000000  0.4982530000000 1.0
C      1  0.5225130000000  0.5107190000000  0.5160870000000 1.0
C      1  0.5158410000000  0.4776890000000  0.5206600000000 1.0
C      1  0.5284880000000  0.4671010000000  0.4823710000000 1.0
C      1  0.4774120000000  0.5203960000000  0.4755430000000 1.0
C      1  0.4750220000000  0.5347230000000  0.5226230000000 1.0
C      1  0.4767750000000  0.4980760000000  0.5411070000000 1.0
C      1  0.4732490000000  0.4825280000000  0.5110740000000 1.0
C      1  0.4768450000000  0.4807240000000  0.4711860000000 1.0
C      1  0.4873910000000  0.5411600000000  0.4317320000000 1.0
C      1  0.4842310000000  0.5658180000000  0.5200190000000 1.0
C      1  0.4789810000000  0.5035960000000  0.5742140000000 1.0
C      1  0.4829940000000  0.4288820000000  0.5317520000000 1.0
C      1  0.4856870000000  0.4653510000000  0.4424850000000 1.0
C      1  0.5207780000000  0.5392610000000  0.4379040000000 1.0
C      1  0.5172390000000  0.5688030000000  0.5120610000000 1.0
C      1  0.5128190000000  0.5061300000000  0.5719640000000 1.0
C      1  0.5160510000000  0.4367200000000  0.5302250000000 1.0
C      1  0.5192920000000  0.4612710000000  0.4389240000000 1.0
C      1  0.5145340000000  0.5661560000000  0.5458530000000 1.0
C      1  0.5093140000000  0.4762480000000  0.5799630000000 1.0
C      1  0.5112420000000  0.4157080000000  0.5067460000000 1.0
C      1  0.5215820000000  0.4877680000000  0.4177090000000 1.0
C      1  0.5109650000000  0.5673650000000  0.4551630000000 1.0
C      1  0.4844320000000  0.5583800000000  0.5532070000000 1.0
C      1  0.4803400000000  0.4696470000000  0.5812340000000 1.0
C      1  0.4825140000000  0.4156030000000  0.5002890000000 1.0
C      1  0.4926600000000  0.4840400000000  0.4187980000000 1.0
C      1  0.4807600000000  0.5701400000000  0.4482420000000 1.0
C      1  0.5519090000000  0.5150830000000  0.5267870000000 1.0
C      1  0.5477950000000  0.4753800000000  0.5289770000000 1.0
C      1  0.5581330000000  0.4582650000000  0.4842350000000 1.0
C      1  0.5545110000000  0.5094890000000  0.4607790000000 1.0
C      1  0.5527090000000  0.5362070000000  0.4902990000000 1.0
C      1  0.4459050000000  0.5117640000000  0.5372250000000 1.0
C      1  0.4484780000000  0.4729330000000  0.5282540000000 1.0
C      1  0.4474960000000  0.4752000000000  0.4814090000000 1.0
C      1  0.4502200000000  0.5101780000000  0.4626840000000 1.0
C      1  0.4483020000000  0.5336860000000  0.5039960000000 1.0
C      1  0.5509040000000  0.5681410000000  0.5168160000000 1.0
C      1  0.5442090000000  0.5087830000000  0.5685190000000 1.0
C      1  0.5487340000000  0.4413600000000  0.5292990000000 1.0
C      1  0.5501750000000  0.4542800000000  0.4514150000000 1.0
C      1  0.5545150000000  0.5432230000000  0.4393760000000 1.0
C      1  0.4510100000000  0.5661030000000  0.5272600000000 1.0
C      1  0.4451920000000  0.4999410000000  0.5753430000000 1.0
C      1  0.4518120000000  0.4403800000000  0.5244500000000 1.0
C      1  0.4553490000000  0.4584560000000  0.4460080000000 1.0
C      1  0.4558300000000  0.5370820000000  0.4437580000000 1.0
C      1  0.4439050000000  0.5480210000000  0.4735470000000 1.0
C      1  0.4428630000000  0.5449710000000  0.5439380000000 1.0
C      1  0.4378270000000  0.4781440000000  0.5601290000000 1.0
C      1  0.4424270000000  0.4452430000000  0.4942010000000 1.0
C      1  0.4425710000000  0.4837770000000  0.4426600000000 1.0
C      1  0.5600470000000  0.5561000000000  0.4642760000000 1.0
C      1  0.5587210000000  0.5475660000000  0.5336260000000 1.0
C      1  0.5549820000000  0.4853180000000  0.5595280000000 1.0
C      1  0.5585790000000  0.4305600000000  0.5000880000000 1.0
C      1  0.5564480000000  0.4852130000000  0.4385060000000 1.0
C      1  0.4943840000000  0.4691000000000  0.5438020000000 1.0
C      1  0.4915020000000  0.5051570000000  0.4525530000000 1.0
C      1  0.5013450000000  0.5208380000000  0.5367030000000 1.0
C      1  0.5090180000000  0.4441620000000  0.4665170000000 1.0
C      1  0.4942500000000  0.5450300000000  0.4860560000000 1.0
C      1  0.4810320000000  0.5113180000000  0.5036480000000 1.0
C      1  0.5268660000000  0.4973590000000  0.4861640000000 1.0
C      1  0.4974340000000  0.4714730000000  0.4932180000000 1.0
END
