TITL C-3289325-7307-20 -0.00507157572686229 125000 -668.609217782616 0 0 125 (C1) n - 1
REM
REM in /nfs/bkarasulu/CARBON/AIRSS/Generating-Clusters/AIREBO/with-SteepDescent/Higher-Symm/SD-CG/HFTN-CG
REM
REM
REM
REM
REM
REM ./C.cell (b20cbc046b6831c77cfcea5457e17084)
REM
REM compiler GCC version 9.2.1 20190827 (Red Hat 9.2.1-1)
REM options -cpp -mtune=generic -march=x86-64 -g -O0 -fpre-include=/usr/include/finclude/math-vector-fortran.h
REM seed 1140785052 -1829871381 -209867514 249257880 833001657 -1402731983 -705743542 1715143637 -2133556442 1141222623 47587772 -1311645698 1160248200 1606034049 2028301809 936465951 1691209235 -1619106354 178825340 204446848 -333723402 -1292500039 -178584148 -575212734 1905588499 -1002446594 -672034443 -1022471899 -1900335143 600878405 914036182 -182806006 375851695
REM
CELL 1.54180   50.00000   50.00000   50.00000   90.00000   90.00000   90.00000
LATT -1
SFAC C  
C      1  0.5494620000000  0.5272780000000  0.5334460000000 1.0
C      1  0.4483380000000  0.5282730000000  0.5300840000000 1.0
C      1  0.5494540000000  0.4670740000000  0.5542430000000 1.0
C      1  0.4509570000000  0.4732370000000  0.5469080000000 1.0
C      1  0.4756610000000  0.5868210000000  0.5710460000000 1.0
C      1  0.5207400000000  0.5880980000000  0.5747100000000 1.0
C      1  0.5368130000000  0.4380370000000  0.5666150000000 1.0
C      1  0.4714640000000  0.4428330000000  0.5619900000000 1.0
C      1  0.5946570000000  0.4917520000000  0.4732530000000 1.0
C      1  0.4051280000000  0.4892560000000  0.4713900000000 1.0
C      1  0.5305560000000  0.4790660000000  0.5352770000000 1.0
C      1  0.4761740000000  0.4841740000000  0.5324500000000 1.0
C      1  0.5403360000000  0.4345680000000  0.4705750000000 1.0
C      1  0.4409240000000  0.4203480000000  0.4838250000000 1.0
C      1  0.5703310000000  0.5042550000000  0.4537510000000 1.0
C      1  0.4271630000000  0.5008440000000  0.4498550000000 1.0
C      1  0.4141870000000  0.4701450000000  0.4895500000000 1.0
C      1  0.5844560000000  0.4715410000000  0.4902210000000 1.0
C      1  0.4692660000000  0.4782320000000  0.4687680000000 1.0
C      1  0.5287730000000  0.4724800000000  0.4746600000000 1.0
C      1  0.5403500000000  0.5103240000000  0.4553080000000 1.0
C      1  0.4599390000000  0.5026880000000  0.4470620000000 1.0
C      1  0.5338990000000  0.4503700000000  0.4999920000000 1.0
C      1  0.4756920000000  0.4579340000000  0.4947590000000 1.0
C      1  0.5417950000000  0.4250580000000  0.5174460000000 1.0
C      1  0.4573900000000  0.4379000000000  0.5081130000000 1.0
C      1  0.5366510000000  0.5882640000000  0.4736720000000 1.0
C      1  0.4583820000000  0.5847320000000  0.4737770000000 1.0
C      1  0.4215780000000  0.4602490000000  0.5385430000000 1.0
C      1  0.5748970000000  0.4577770000000  0.5376990000000 1.0
C      1  0.5677920000000  0.5622800000000  0.5395370000000 1.0
C      1  0.4264510000000  0.5604940000000  0.5391010000000 1.0
C      1  0.5863730000000  0.5231060000000  0.4764870000000 1.0
C      1  0.4101230000000  0.5211440000000  0.4716040000000 1.0
C      1  0.5267020000000  0.5674750000000  0.4492220000000 1.0
C      1  0.4734740000000  0.5691620000000  0.4480270000000 1.0
C      1  0.4700240000000  0.6017630000000  0.5204020000000 1.0
C      1  0.5293440000000  0.6088910000000  0.5207940000000 1.0
C      1  0.4364630000000  0.4759720000000  0.4291350000000 1.0
C      1  0.5568060000000  0.4847460000000  0.4293620000000 1.0
C      1  0.4504840000000  0.5024140000000  0.5740460000000 1.0
C      1  0.5417150000000  0.4980660000000  0.5779420000000 1.0
C      1  0.4721360000000  0.5035850000000  0.4907970000000 1.0
C      1  0.5310440000000  0.5033630000000  0.4872690000000 1.0
C      1  0.5294640000000  0.5256690000000  0.4282960000000 1.0
C      1  0.4775490000000  0.5160470000000  0.4295650000000 1.0
C      1  0.5463370000000  0.5559860000000  0.4745750000000 1.0
C      1  0.4500950000000  0.5536880000000  0.4653040000000 1.0
C      1  0.4644190000000  0.5322170000000  0.4835660000000 1.0
C      1  0.5314750000000  0.5364990000000  0.4914620000000 1.0
C      1  0.4661800000000  0.4078690000000  0.5016270000000 1.0
C      1  0.5245250000000  0.4030540000000  0.5131870000000 1.0
C      1  0.5422270000000  0.4665520000000  0.5863610000000 1.0
C      1  0.4639170000000  0.4727440000000  0.5766360000000 1.0
C      1  0.4605470000000  0.4607960000000  0.4202190000000 1.0
C      1  0.5364990000000  0.4711310000000  0.4133030000000 1.0
C      1  0.4442470000000  0.4624840000000  0.4566930000000 1.0
C      1  0.5522270000000  0.4688840000000  0.4542870000000 1.0
C      1  0.4503440000000  0.4210390000000  0.4526060000000 1.0
C      1  0.5437050000000  0.4305930000000  0.4395150000000 1.0
C      1  0.5663300000000  0.4554670000000  0.4774890000000 1.0
C      1  0.4292060000000  0.4502460000000  0.4769650000000 1.0
C      1  0.4862210000000  0.5075730000000  0.4046250000000 1.0
C      1  0.5248850000000  0.5167950000000  0.4025050000000 1.0
C      1  0.4647480000000  0.5481300000000  0.5112030000000 1.0
C      1  0.5176430000000  0.5310250000000  0.5220440000000 1.0
C      1  0.5761300000000  0.4815100000000  0.5172810000000 1.0
C      1  0.4240040000000  0.4817290000000  0.5155600000000 1.0
C      1  0.5634910000000  0.5634090000000  0.5099650000000 1.0
C      1  0.4275240000000  0.5621770000000  0.5092580000000 1.0
C      1  0.4769290000000  0.5578960000000  0.5606770000000 1.0
C      1  0.5221430000000  0.5576640000000  0.5678180000000 1.0
C      1  0.4537060000000  0.4982760000000  0.5159110000000 1.0
C      1  0.5464090000000  0.4980150000000  0.5157640000000 1.0
C      1  0.5811820000000  0.5344230000000  0.5081260000000 1.0
C      1  0.4207950000000  0.5308200000000  0.5015070000000 1.0
C      1  0.4183150000000  0.5126000000000  0.5263920000000 1.0
C      1  0.5799660000000  0.5124630000000  0.5308230000000 1.0
C      1  0.5491310000000  0.5465970000000  0.5608850000000 1.0
C      1  0.4489710000000  0.5439180000000  0.5571820000000 1.0
C      1  0.5699460000000  0.5069220000000  0.5609400000000 1.0
C      1  0.4289920000000  0.5070170000000  0.5578940000000 1.0
C      1  0.4553690000000  0.5794410000000  0.5042140000000 1.0
C      1  0.5396960000000  0.5816710000000  0.5044920000000 1.0
C      1  0.4654910000000  0.5263730000000  0.5811680000000 1.0
C      1  0.5582110000000  0.5270230000000  0.5829020000000 1.0
C      1  0.4210580000000  0.5520410000000  0.4758960000000 1.0
C      1  0.5772680000000  0.5539290000000  0.4802400000000 1.0
C      1  0.5565270000000  0.4309360000000  0.5400320000000 1.0
C      1  0.4488890000000  0.4415420000000  0.5365860000000 1.0
C      1  0.4639830000000  0.4353200000000  0.4350420000000 1.0
C      1  0.5283010000000  0.4461800000000  0.4230880000000 1.0
C      1  0.5037020000000  0.4652640000000  0.5047800000000 1.0
C      1  0.4985520000000  0.5999290000000  0.5631360000000 1.0
C      1  0.4960530000000  0.4729110000000  0.5700770000000 1.0
C      1  0.5019020000000  0.5023470000000  0.6018840000000 1.0
C      1  0.4987380000000  0.4306610000000  0.5262850000000 1.0
C      1  0.5113280000000  0.5738020000000  0.5178620000000 1.0
C      1  0.4990450000000  0.5514370000000  0.4730960000000 1.0
C      1  0.4960700000000  0.4465290000000  0.4315280000000 1.0
C      1  0.4961240000000  0.4093790000000  0.5475900000000 1.0
C      1  0.4997370000000  0.4682270000000  0.4574660000000 1.0
C      1  0.4914250000000  0.3922240000000  0.5186130000000 1.0
C      1  0.4951890000000  0.4018210000000  0.4647520000000 1.0
C      1  0.4979420000000  0.5352680000000  0.5762870000000 1.0
C      1  0.5094170000000  0.5041570000000  0.5687660000000 1.0
C      1  0.5038130000000  0.5543010000000  0.5420860000000 1.0
C      1  0.5123580000000  0.4560910000000  0.5918920000000 1.0
C      1  0.5067700000000  0.4392140000000  0.4737430000000 1.0
C      1  0.5015580000000  0.4981060000000  0.5014700000000 1.0
C      1  0.5054850000000  0.5020340000000  0.5350330000000 1.0
C      1  0.5014390000000  0.5333260000000  0.4454640000000 1.0
C      1  0.4996430000000  0.5630390000000  0.4290220000000 1.0
C      1  0.5016340000000  0.4623910000000  0.5382200000000 1.0
C      1  0.4986020000000  0.4160640000000  0.4954430000000 1.0
C      1  0.4983800000000  0.4147020000000  0.4432960000000 1.0
C      1  0.5030640000000  0.4335960000000  0.5681480000000 1.0
C      1  0.5077720000000  0.5011720000000  0.4549120000000 1.0
C      1  0.5019960000000  0.5239930000000  0.3818830000000 1.0
C      1  0.4952840000000  0.5484200000000  0.5030800000000 1.0
C      1  0.5126900000000  0.4863330000000  0.4014740000000 1.0
C      1  0.5002260000000  0.5838520000000  0.4628950000000 1.0
C      1  0.4992310000000  0.6017140000000  0.5327720000000 1.0
C      1  0.4866570000000  0.4677730000000  0.4066960000000 1.0
C      1  0.4983420000000  0.6138900000000  0.4649720000000 1.0
END
