TITL C-3289327-5623-690 0.0032073594247157 125000 -298.222392166627 0 0 54 (C1) n - 1
REM
REM in /nfs/bkarasulu/CARBON/AIRSS/Generating-Clusters/AIREBO/with-SteepDescent/Higher-Symm/SD-CG/HFTN-CG
REM
REM
REM
REM
REM
REM ./C.cell (b20cbc046b6831c77cfcea5457e17084)
REM
REM compiler GCC version 9.2.1 20190827 (Red Hat 9.2.1-1)
REM options -cpp -mtune=generic -march=x86-64 -g -O0 -fpre-include=/usr/include/finclude/math-vector-fortran.h
REM seed 1280782142 201384262 -325211389 932022845 -821180311 19774850 -808989259 -1278423957 894246933 1283554382 -830670754 1566293308 1414030760 1114573271 -1828080727 -1694902990 -782336399 1929635035 1246042757 105945632 -1211991416 693096082 1486286761 1227854584 417065867 -1062531735 -596709273 -1836717063 1876411908 1598727950 -1004881643 823659568 -520254251
REM
CELL 1.54180   50.00000   50.00000   50.00000   90.00000   90.00000   90.00000
LATT -1
SFAC C  
C      1  0.4880630000000  0.4612690000000  0.5024700000000 1.0
C      1  0.4881780000000  0.5005690000000  0.5390520000000 1.0
C      1  0.4980000000000  0.5326510000000  0.5092860000000 1.0
C      1  0.4925310000000  0.5321010000000  0.4646690000000 1.0
C      1  0.4960420000000  0.4765970000000  0.4727800000000 1.0
C      1  0.5277600000000  0.5490700000000  0.4567650000000 1.0
C      1  0.5325140000000  0.4754400000000  0.4369320000000 1.0
C      1  0.5280450000000  0.4341670000000  0.5043760000000 1.0
C      1  0.5288390000000  0.4849450000000  0.5642780000000 1.0
C      1  0.5341640000000  0.5555360000000  0.5372810000000 1.0
C      1  0.4353530000000  0.5427820000000  0.5314100000000 1.0
C      1  0.4449880000000  0.5232180000000  0.4890750000000 1.0
C      1  0.4345750000000  0.4877630000000  0.4612590000000 1.0
C      1  0.4349930000000  0.4716740000000  0.4924030000000 1.0
C      1  0.4363210000000  0.4948930000000  0.5326380000000 1.0
C      1  0.5436820000000  0.4756850000000  0.5167730000000 1.0
C      1  0.5416320000000  0.5079230000000  0.5247190000000 1.0
C      1  0.5493540000000  0.5291140000000  0.4990320000000 1.0
C      1  0.5436850000000  0.5073780000000  0.4734830000000 1.0
C      1  0.5439020000000  0.4774280000000  0.4837390000000 1.0
C      1  0.5205610000000  0.5183730000000  0.4510600000000 1.0
C      1  0.5239350000000  0.4591090000000  0.4642580000000 1.0
C      1  0.5243080000000  0.4501970000000  0.5283580000000 1.0
C      1  0.5197050000000  0.5126260000000  0.5503010000000 1.0
C      1  0.5259050000000  0.5528010000000  0.5058100000000 1.0
C      1  0.4702060000000  0.4544620000000  0.5272770000000 1.0
C      1  0.4684030000000  0.5193720000000  0.5558620000000 1.0
C      1  0.4744530000000  0.5561140000000  0.5049400000000 1.0
C      1  0.4680490000000  0.5206330000000  0.4468870000000 1.0
C      1  0.4730780000000  0.4550360000000  0.4584960000000 1.0
C      1  0.4935410000000  0.5098120000000  0.4321140000000 1.0
C      1  0.4976850000000  0.4382420000000  0.4618950000000 1.0
C      1  0.4986170000000  0.4546150000000  0.5404690000000 1.0
C      1  0.4946030000000  0.5326220000000  0.5616080000000 1.0
C      1  0.4999280000000  0.5688190000000  0.4931070000000 1.0
C      1  0.5498470000000  0.5509600000000  0.4729690000000 1.0
C      1  0.5515030000000  0.4943850000000  0.4435690000000 1.0
C      1  0.5506940000000  0.4451550000000  0.4903980000000 1.0
C      1  0.5489930000000  0.4733140000000  0.5496780000000 1.0
C      1  0.5519040000000  0.5347460000000  0.5422330000000 1.0
C      1  0.4441130000000  0.4641480000000  0.5244450000000 1.0
C      1  0.4421980000000  0.5191670000000  0.5466740000000 1.0
C      1  0.4483770000000  0.5459490000000  0.5058000000000 1.0
C      1  0.4452410000000  0.5140210000000  0.4618640000000 1.0
C      1  0.4472290000000  0.4594380000000  0.4638800000000 1.0
C      1  0.5036670000000  0.4838190000000  0.4403330000000 1.0
C      1  0.5037480000000  0.4369700000000  0.4906850000000 1.0
C      1  0.5010380000000  0.4779720000000  0.5561210000000 1.0
C      1  0.5049480000000  0.5478420000000  0.5389350000000 1.0
C      1  0.5025050000000  0.5625500000000  0.4654450000000 1.0
C      1  0.5807970000000  0.5331550000000  0.5055560000000 1.0
C      1  0.4988250000000  0.5077460000000  0.4861530000000 1.0
C      1  0.4813080000000  0.4932770000000  0.5099820000000 1.0
C      1  0.4515610000000  0.4976970000000  0.5043680000000 1.0
END
