TITL C-3289333-7213-698 0.00261057138022395 125000 -1052.68896071614 0 0 185 (C1) n - 1
REM
REM in /nfs/bkarasulu/CARBON/AIRSS/Generating-Clusters/AIREBO/with-SteepDescent/Higher-Symm/SD-CG/HFTN-CG
REM
REM
REM
REM
REM
REM ./C.cell (b20cbc046b6831c77cfcea5457e17084)
REM
REM compiler GCC version 9.2.1 20190827 (Red Hat 9.2.1-1)
REM options -cpp -mtune=generic -march=x86-64 -g -O0 -fpre-include=/usr/include/finclude/math-vector-fortran.h
REM seed -692636389 -828012403 -496869555 1018306935 -964260158 -1733889864 696792969 -1170042657 836570871 -999568048 1675784076 -1489700895 45902486 1177737574 161023412 580049252 -2082442757 -1909965197 876827117 540949093 125481575 -1505008276 1163884546 -133183054 -1210878120 -1921669476 -1518465752 429333642 -892548210 -1163638965 808677753 -1067266590 1795159900
REM
CELL 1.54180   50.00000   50.00000   50.00000   90.00000   90.00000   90.00000
LATT -1
SFAC C  
C      1  0.5769270000000  0.4320830000000  0.4630920000000 1.0
C      1  0.5543050000000  0.4259360000000  0.5601150000000 1.0
C      1  0.4602610000000  0.4262030000000  0.5653940000000 1.0
C      1  0.4162050000000  0.4317660000000  0.4854030000000 1.0
C      1  0.4906150000000  0.4241890000000  0.4227900000000 1.0
C      1  0.5751310000000  0.4265440000000  0.5410860000000 1.0
C      1  0.5565020000000  0.4313070000000  0.4423770000000 1.0
C      1  0.4648810000000  0.4274040000000  0.4315310000000 1.0
C      1  0.4183340000000  0.4252800000000  0.5132760000000 1.0
C      1  0.4843900000000  0.4216910000000  0.5773120000000 1.0
C      1  0.5763110000000  0.4085110000000  0.5184140000000 1.0
C      1  0.5084100000000  0.4006580000000  0.5784730000000 1.0
C      1  0.4265060000000  0.4004430000000  0.5248010000000 1.0
C      1  0.4535490000000  0.4071020000000  0.4474700000000 1.0
C      1  0.5386890000000  0.4094030000000  0.4368070000000 1.0
C      1  0.5720580000000  0.4157710000000  0.4861460000000 1.0
C      1  0.5182100000000  0.4122150000000  0.4163330000000 1.0
C      1  0.4314680000000  0.4146020000000  0.4688880000000 1.0
C      1  0.4445990000000  0.4038710000000  0.5511640000000 1.0
C      1  0.5350240000000  0.4031000000000  0.5645310000000 1.0
C      1  0.5218880000000  0.5542400000000  0.5989980000000 1.0
C      1  0.4095260000000  0.5628560000000  0.5469550000000 1.0
C      1  0.4218300000000  0.5527520000000  0.4302980000000 1.0
C      1  0.5384390000000  0.5494110000000  0.4054110000000 1.0
C      1  0.6020140000000  0.5562640000000  0.5117470000000 1.0
C      1  0.5124080000000  0.5563350000000  0.4017510000000 1.0
C      1  0.4091940000000  0.5541210000000  0.4547140000000 1.0
C      1  0.4271280000000  0.5584690000000  0.5699560000000 1.0
C      1  0.5450630000000  0.5624210000000  0.5938480000000 1.0
C      1  0.6061180000000  0.5646580000000  0.4884010000000 1.0
C      1  0.5301920000000  0.4098360000000  0.5326680000000 1.0
C      1  0.4730370000000  0.4061860000000  0.5333060000000 1.0
C      1  0.4573300000000  0.4027420000000  0.4867490000000 1.0
C      1  0.5004550000000  0.4063440000000  0.4614320000000 1.0
C      1  0.5409990000000  0.4055060000000  0.4844310000000 1.0
C      1  0.5270460000000  0.3985910000000  0.4601740000000 1.0
C      1  0.4762130000000  0.3936820000000  0.4630270000000 1.0
C      1  0.4532150000000  0.3924270000000  0.5139780000000 1.0
C      1  0.5005100000000  0.4051930000000  0.5447360000000 1.0
C      1  0.5489100000000  0.3977920000000  0.5132740000000 1.0
C      1  0.5490200000000  0.5574980000000  0.5157480000000 1.0
C      1  0.5018550000000  0.5552530000000  0.5499430000000 1.0
C      1  0.4522180000000  0.5559580000000  0.5172330000000 1.0
C      1  0.4786460000000  0.5584260000000  0.4740710000000 1.0
C      1  0.5302690000000  0.5544770000000  0.4580690000000 1.0
C      1  0.5453520000000  0.5633750000000  0.4863600000000 1.0
C      1  0.5004860000000  0.5591830000000  0.4503710000000 1.0
C      1  0.4524690000000  0.5631980000000  0.4886770000000 1.0
C      1  0.4744410000000  0.5642210000000  0.5371380000000 1.0
C      1  0.5279640000000  0.5652460000000  0.5370970000000 1.0
C      1  0.4875170000000  0.5684910000000  0.5845110000000 1.0
C      1  0.4161580000000  0.5726310000000  0.5146690000000 1.0
C      1  0.4567950000000  0.5712600000000  0.4246360000000 1.0
C      1  0.5643030000000  0.5643780000000  0.4397140000000 1.0
C      1  0.5773110000000  0.5710950000000  0.5399790000000 1.0
C      1  0.4870100000000  0.5740740000000  0.4158460000000 1.0
C      1  0.4138930000000  0.5717590000000  0.4834040000000 1.0
C      1  0.4594040000000  0.5657730000000  0.5751870000000 1.0
C      1  0.5573710000000  0.5680870000000  0.5638400000000 1.0
C      1  0.5818030000000  0.5671140000000  0.4670270000000 1.0
C      1  0.5468970000000  0.5354990000000  0.4352650000000 1.0
C      1  0.5758050000000  0.5413560000000  0.5236120000000 1.0
C      1  0.5022530000000  0.5391930000000  0.5779490000000 1.0
C      1  0.4265880000000  0.5427250000000  0.5270410000000 1.0
C      1  0.4523230000000  0.5396000000000  0.4326490000000 1.0
C      1  0.5414860000000  0.5394470000000  0.5546530000000 1.0
C      1  0.5669540000000  0.5394960000000  0.4754370000000 1.0
C      1  0.4933670000000  0.5417590000000  0.4242980000000 1.0
C      1  0.4289560000000  0.5413820000000  0.4773720000000 1.0
C      1  0.4517340000000  0.5354160000000  0.5641850000000 1.0
C      1  0.4963790000000  0.5082280000000  0.4194830000000 1.0
C      1  0.5787250000000  0.5075930000000  0.4751950000000 1.0
C      1  0.5533640000000  0.5171100000000  0.5738340000000 1.0
C      1  0.4398000000000  0.5072220000000  0.5752440000000 1.0
C      1  0.4219090000000  0.5082940000000  0.4734060000000 1.0
C      1  0.5004130000000  0.5052520000000  0.5794140000000 1.0
C      1  0.5780070000000  0.5073760000000  0.5241320000000 1.0
C      1  0.5580320000000  0.5089620000000  0.4171290000000 1.0
C      1  0.4378530000000  0.5110180000000  0.4224680000000 1.0
C      1  0.4225150000000  0.5089730000000  0.5277990000000 1.0
C      1  0.6211240000000  0.4832390000000  0.5157010000000 1.0
C      1  0.5186320000000  0.4788080000000  0.6143430000000 1.0
C      1  0.3950820000000  0.4768230000000  0.5592570000000 1.0
C      1  0.4080510000000  0.4853760000000  0.4160890000000 1.0
C      1  0.5555750000000  0.4851720000000  0.3909120000000 1.0
C      1  0.6265020000000  0.4894150000000  0.4844410000000 1.0
C      1  0.5228780000000  0.4797040000000  0.3914570000000 1.0
C      1  0.3857270000000  0.4871170000000  0.4398800000000 1.0
C      1  0.4062120000000  0.4873690000000  0.5866470000000 1.0
C      1  0.5485300000000  0.4793290000000  0.6091320000000 1.0
C      1  0.5642730000000  0.4821590000000  0.4355120000000 1.0
C      1  0.5800500000000  0.4810170000000  0.5448470000000 1.0
C      1  0.4806290000000  0.4795490000000  0.5896400000000 1.0
C      1  0.4056790000000  0.4830100000000  0.5145730000000 1.0
C      1  0.4500290000000  0.4819530000000  0.4184390000000 1.0
C      1  0.5691940000000  0.4878640000000  0.5690400000000 1.0
C      1  0.5816530000000  0.4798270000000  0.4564410000000 1.0
C      1  0.4785530000000  0.4817030000000  0.4078650000000 1.0
C      1  0.4091150000000  0.4803400000000  0.4879480000000 1.0
C      1  0.4533460000000  0.4765510000000  0.5789440000000 1.0
C      1  0.5302900000000  0.4731940000000  0.5418720000000 1.0
C      1  0.4727300000000  0.4726660000000  0.5364090000000 1.0
C      1  0.4515030000000  0.4941840000000  0.4824980000000 1.0
C      1  0.4977370000000  0.4892660000000  0.4477050000000 1.0
C      1  0.5509140000000  0.4895720000000  0.4838380000000 1.0
C      1  0.5290970000000  0.4797420000000  0.4588410000000 1.0
C      1  0.4686590000000  0.4766890000000  0.4601060000000 1.0
C      1  0.4508410000000  0.4919160000000  0.5186260000000 1.0
C      1  0.5003520000000  0.4871270000000  0.5505990000000 1.0
C      1  0.5498080000000  0.4891010000000  0.5187420000000 1.0
C      1  0.5396560000000  0.4526570000000  0.5677800000000 1.0
C      1  0.4513380000000  0.4548210000000  0.5559030000000 1.0
C      1  0.4068310000000  0.4563150000000  0.4737560000000 1.0
C      1  0.5104770000000  0.4490630000000  0.4298060000000 1.0
C      1  0.5922910000000  0.4559490000000  0.4660890000000 1.0
C      1  0.5412450000000  0.4595630000000  0.4342820000000 1.0
C      1  0.4550860000000  0.4551080000000  0.4375630000000 1.0
C      1  0.4257930000000  0.4468490000000  0.5349230000000 1.0
C      1  0.5103260000000  0.4428890000000  0.5819490000000 1.0
C      1  0.5832790000000  0.4549160000000  0.5301790000000 1.0
C      1  0.4652900000000  0.5180920000000  0.5122890000000 1.0
C      1  0.4706290000000  0.5332800000000  0.4558900000000 1.0
C      1  0.5290000000000  0.5133910000000  0.4539180000000 1.0
C      1  0.5318370000000  0.5125830000000  0.5094900000000 1.0
C      1  0.4986910000000  0.5165000000000  0.5412380000000 1.0
C      1  0.4661380000000  0.5221070000000  0.4850620000000 1.0
C      1  0.4727000000000  0.5303320000000  0.5393210000000 1.0
C      1  0.5224250000000  0.5263650000000  0.5314760000000 1.0
C      1  0.5419130000000  0.5219060000000  0.4813870000000 1.0
C      1  0.4979830000000  0.5199890000000  0.4574790000000 1.0
C      1  0.4217020000000  0.5917810000000  0.4570200000000 1.0
C      1  0.5155880000000  0.5907220000000  0.4237940000000 1.0
C      1  0.5750380000000  0.5897270000000  0.4898570000000 1.0
C      1  0.5334700000000  0.5903090000000  0.5676930000000 1.0
C      1  0.4490270000000  0.5887330000000  0.5558340000000 1.0
C      1  0.4372220000000  0.5936010000000  0.5280480000000 1.0
C      1  0.5041010000000  0.5904900000000  0.5784600000000 1.0
C      1  0.5768750000000  0.5924810000000  0.5213590000000 1.0
C      1  0.5438450000000  0.5843420000000  0.4352110000000 1.0
C      1  0.4469080000000  0.5908780000000  0.4429070000000 1.0
C      1  0.5004020000000  0.4633250000000  0.6011740000000 1.0
C      1  0.4029510000000  0.4650230000000  0.5352700000000 1.0
C      1  0.4254190000000  0.4591410000000  0.4244780000000 1.0
C      1  0.5544760000000  0.4582980000000  0.4029840000000 1.0
C      1  0.6094550000000  0.4551240000000  0.5158820000000 1.0
C      1  0.5018000000000  0.4647250000000  0.4036510000000 1.0
C      1  0.4015710000000  0.4606230000000  0.4465040000000 1.0
C      1  0.4280620000000  0.4770900000000  0.5987520000000 1.0
C      1  0.5581700000000  0.4685230000000  0.5848990000000 1.0
C      1  0.6130280000000  0.4596710000000  0.4847950000000 1.0
C      1  0.3942700000000  0.5212770000000  0.5133970000000 1.0
C      1  0.4527110000000  0.5231770000000  0.3962620000000 1.0
C      1  0.5894300000000  0.5179930000000  0.4238730000000 1.0
C      1  0.5970020000000  0.5169550000000  0.5506680000000 1.0
C      1  0.4799940000000  0.5167850000000  0.6040480000000 1.0
C      1  0.3932490000000  0.5190000000000  0.4882480000000 1.0
C      1  0.4552570000000  0.5197450000000  0.6007830000000 1.0
C      1  0.5852870000000  0.5242230000000  0.5720170000000 1.0
C      1  0.5971880000000  0.5160930000000  0.4479270000000 1.0
C      1  0.4774050000000  0.5188800000000  0.3933440000000 1.0
C      1  0.4537470000000  0.4435340000000  0.5167720000000 1.0
C      1  0.4743660000000  0.4485870000000  0.4718180000000 1.0
C      1  0.5215430000000  0.4521380000000  0.4751930000000 1.0
C      1  0.5571920000000  0.4477180000000  0.5124850000000 1.0
C      1  0.5074560000000  0.4381720000000  0.5492250000000 1.0
C      1  0.4587130000000  0.4346890000000  0.4901020000000 1.0
C      1  0.4803390000000  0.4394070000000  0.5333870000000 1.0
C      1  0.5328070000000  0.4415150000000  0.5302790000000 1.0
C      1  0.5389780000000  0.4375400000000  0.4910130000000 1.0
C      1  0.4992910000000  0.4369840000000  0.4595930000000 1.0
C      1  0.4610650000000  0.5933270000000  0.4861440000000 1.0
C      1  0.4942600000000  0.5925440000000  0.4505540000000 1.0
C      1  0.5427370000000  0.5974490000000  0.4855160000000 1.0
C      1  0.5289560000000  0.5974500000000  0.5353880000000 1.0
C      1  0.4760640000000  0.5961470000000  0.5365940000000 1.0
C      1  0.4583140000000  0.6054630000000  0.5104680000000 1.0
C      1  0.5009610000000  0.6040950000000  0.5506180000000 1.0
C      1  0.5494540000000  0.6050990000000  0.5158300000000 1.0
C      1  0.5254350000000  0.5879110000000  0.4621190000000 1.0
C      1  0.4676480000000  0.5996390000000  0.4599330000000 1.0
C      1  0.5985420000000  0.5027550000000  0.4994150000000 1.0
C      1  0.4133940000000  0.5047270000000  0.5586290000000 1.0
C      1  0.4138020000000  0.5060660000000  0.4428610000000 1.0
C      1  0.5256700000000  0.5054860000000  0.4072870000000 1.0
C      1  0.5311300000000  0.5044240000000  0.5941770000000 1.0
END
