TITL C-3289320-4661-687 -0.00124721361372988 125000 -733.862531931789 0 0 133 (C1) n - 1
REM
REM in /nfs/bkarasulu/CARBON/AIRSS/Generating-Clusters/AIREBO/with-SteepDescent/Higher-Symm/SD-CG/HFTN-CG
REM
REM
REM
REM
REM
REM ./C.cell (b20cbc046b6831c77cfcea5457e17084)
REM
REM compiler GCC version 9.2.1 20190827 (Red Hat 9.2.1-1)
REM options -cpp -mtune=generic -march=x86-64 -g -O0 -fpre-include=/usr/include/finclude/math-vector-fortran.h
REM seed 1359565197 -1054096553 -1913532018 -822518324 777622246 793534718 -1275896018 98895820 -903444180 2077403270 -1751718893 1453133109 1615174431 388547212 -1827455863 -973778834 -1850736703 -655740721 -831474175 -721919656 400132992 -394546096 2086888201 1349460147 1134278346 633716498 50814854 364283779 -1099109790 -1538432482 -1499791477 692310890 -1950859246
REM
CELL 1.54180   50.00000   50.00000   50.00000   90.00000   90.00000   90.00000
LATT -1
SFAC C  
C      1  0.4416980000000  0.4399790000000  0.4628010000000 1.0
C      1  0.5652020000000  0.4412190000000  0.4696650000000 1.0
C      1  0.4952690000000  0.4377030000000  0.5646150000000 1.0
C      1  0.4327810000000  0.5649980000000  0.4583260000000 1.0
C      1  0.5607950000000  0.5595710000000  0.4689880000000 1.0
C      1  0.4939800000000  0.5589540000000  0.5621650000000 1.0
C      1  0.4462410000000  0.4417130000000  0.5375920000000 1.0
C      1  0.5623820000000  0.4388420000000  0.5300780000000 1.0
C      1  0.4940130000000  0.4419940000000  0.4283070000000 1.0
C      1  0.4476770000000  0.5528710000000  0.5369170000000 1.0
C      1  0.5610800000000  0.5609820000000  0.5288750000000 1.0
C      1  0.4980410000000  0.5590780000000  0.4286820000000 1.0
C      1  0.5616580000000  0.5212500000000  0.5596640000000 1.0
C      1  0.4260660000000  0.5201160000000  0.5283710000000 1.0
C      1  0.5189570000000  0.5152770000000  0.4142610000000 1.0
C      1  0.5604710000000  0.4767000000000  0.5555270000000 1.0
C      1  0.4320740000000  0.4867090000000  0.5320050000000 1.0
C      1  0.5082240000000  0.4844230000000  0.4239910000000 1.0
C      1  0.5651000000000  0.5154300000000  0.4424050000000 1.0
C      1  0.4107330000000  0.5341390000000  0.4708370000000 1.0
C      1  0.5125680000000  0.5271010000000  0.5777180000000 1.0
C      1  0.5634890000000  0.4809950000000  0.4544570000000 1.0
C      1  0.4217300000000  0.4792790000000  0.4744960000000 1.0
C      1  0.5137770000000  0.4683960000000  0.5821260000000 1.0
C      1  0.4598740000000  0.5828420000000  0.5379240000000 1.0
C      1  0.4793690000000  0.5818180000000  0.4446730000000 1.0
C      1  0.5554810000000  0.5894510000000  0.5144500000000 1.0
C      1  0.4628200000000  0.4137490000000  0.5378950000000 1.0
C      1  0.4808880000000  0.4164530000000  0.4447960000000 1.0
C      1  0.5555770000000  0.4128630000000  0.5134660000000 1.0
C      1  0.4569910000000  0.5790320000000  0.4609720000000 1.0
C      1  0.4840640000000  0.5854120000000  0.5511020000000 1.0
C      1  0.5566710000000  0.5883120000000  0.4866860000000 1.0
C      1  0.4582900000000  0.4138820000000  0.4599190000000 1.0
C      1  0.4867410000000  0.4117590000000  0.5511650000000 1.0
C      1  0.5580500000000  0.4128780000000  0.4858590000000 1.0
C      1  0.4310540000000  0.5426160000000  0.5647690000000 1.0
C      1  0.4802840000000  0.5417680000000  0.4093950000000 1.0
C      1  0.5889750000000  0.5466080000000  0.5221910000000 1.0
C      1  0.4367500000000  0.4542870000000  0.5645310000000 1.0
C      1  0.4802780000000  0.4541630000000  0.4029920000000 1.0
C      1  0.5896000000000  0.4533520000000  0.5258440000000 1.0
C      1  0.4277940000000  0.5478420000000  0.4359820000000 1.0
C      1  0.4782240000000  0.5455730000000  0.5862320000000 1.0
C      1  0.5892680000000  0.5469830000000  0.4742120000000 1.0
C      1  0.4336960000000  0.4562840000000  0.4366990000000 1.0
C      1  0.4763230000000  0.4504110000000  0.5869700000000 1.0
C      1  0.5908190000000  0.4588830000000  0.4734980000000 1.0
C      1  0.5486340000000  0.5478980000000  0.5537290000000 1.0
C      1  0.4243450000000  0.5503180000000  0.5128190000000 1.0
C      1  0.5259450000000  0.5426120000000  0.4320870000000 1.0
C      1  0.5497620000000  0.4499690000000  0.5557340000000 1.0
C      1  0.4325710000000  0.4578650000000  0.5139290000000 1.0
C      1  0.5221410000000  0.4564120000000  0.4349080000000 1.0
C      1  0.5490620000000  0.5424330000000  0.4452210000000 1.0
C      1  0.4192300000000  0.5578230000000  0.4861440000000 1.0
C      1  0.5244640000000  0.5507570000000  0.5646760000000 1.0
C      1  0.5438370000000  0.4554090000000  0.4487510000000 1.0
C      1  0.4284630000000  0.4547660000000  0.4868480000000 1.0
C      1  0.5265360000000  0.4452090000000  0.5691650000000 1.0
C      1  0.5310040000000  0.4844680000000  0.5960880000000 1.0
C      1  0.4018100000000  0.4919450000000  0.4891120000000 1.0
C      1  0.5655300000000  0.4764480000000  0.4227720000000 1.0
C      1  0.5308820000000  0.5144160000000  0.5949240000000 1.0
C      1  0.3915800000000  0.5193710000000  0.4843590000000 1.0
C      1  0.5686320000000  0.5066580000000  0.4121030000000 1.0
C      1  0.5383360000000  0.4812540000000  0.4083800000000 1.0
C      1  0.4030770000000  0.4888480000000  0.5190580000000 1.0
C      1  0.5584970000000  0.4887200000000  0.5818980000000 1.0
C      1  0.5435640000000  0.5101730000000  0.3946230000000 1.0
C      1  0.3942800000000  0.5201450000000  0.5162620000000 1.0
C      1  0.5616540000000  0.5216580000000  0.5898410000000 1.0
C      1  0.4704390000000  0.4809170000000  0.5936530000000 1.0
C      1  0.4406190000000  0.4831450000000  0.4229120000000 1.0
C      1  0.5953550000000  0.4861980000000  0.4867750000000 1.0
C      1  0.4655560000000  0.5146330000000  0.5893560000000 1.0
C      1  0.4372020000000  0.5167770000000  0.4294790000000 1.0
C      1  0.5882110000000  0.5191890000000  0.4826950000000 1.0
C      1  0.4686740000000  0.4811080000000  0.4058330000000 1.0
C      1  0.4422990000000  0.4855100000000  0.5751310000000 1.0
C      1  0.5979760000000  0.4819130000000  0.5193570000000 1.0
C      1  0.4652100000000  0.5135990000000  0.4152320000000 1.0
C      1  0.4355390000000  0.5185830000000  0.5794540000000 1.0
C      1  0.5905450000000  0.5148620000000  0.5142230000000 1.0
C      1  0.5329030000000  0.4768420000000  0.5194760000000 1.0
C      1  0.4668290000000  0.4784920000000  0.5141340000000 1.0
C      1  0.5006230000000  0.4839320000000  0.4632040000000 1.0
C      1  0.5336800000000  0.5107620000000  0.5170730000000 1.0
C      1  0.4621550000000  0.5118190000000  0.5143420000000 1.0
C      1  0.5069060000000  0.5173340000000  0.4645840000000 1.0
C      1  0.5292650000000  0.4761130000000  0.4800380000000 1.0
C      1  0.4765300000000  0.4912310000000  0.4841230000000 1.0
C      1  0.5069720000000  0.4810770000000  0.5368920000000 1.0
C      1  0.5308350000000  0.5243670000000  0.4863060000000 1.0
C      1  0.4587270000000  0.5201120000000  0.4818670000000 1.0
C      1  0.5037390000000  0.5146810000000  0.5328140000000 1.0
C      1  0.4602690000000  0.4811070000000  0.5465990000000 1.0
C      1  0.4773550000000  0.4837430000000  0.4384060000000 1.0
C      1  0.5643690000000  0.4858490000000  0.5227100000000 1.0
C      1  0.4566820000000  0.5207470000000  0.5434820000000 1.0
C      1  0.4930850000000  0.5199900000000  0.4336280000000 1.0
C      1  0.5614810000000  0.5190420000000  0.5293760000000 1.0
C      1  0.4479340000000  0.4885630000000  0.4554020000000 1.0
C      1  0.4888480000000  0.4813100000000  0.5650170000000 1.0
C      1  0.5615530000000  0.4828580000000  0.4883630000000 1.0
C      1  0.4346500000000  0.5186460000000  0.4623330000000 1.0
C      1  0.4851150000000  0.5149280000000  0.5615460000000 1.0
C      1  0.5568360000000  0.5139680000000  0.4753650000000 1.0
C      1  0.4947070000000  0.5488960000000  0.4611510000000 1.0
C      1  0.5279580000000  0.5614210000000  0.5205740000000 1.0
C      1  0.4741720000000  0.5435870000000  0.5160260000000 1.0
C      1  0.4928460000000  0.4508710000000  0.4612510000000 1.0
C      1  0.5301300000000  0.4429540000000  0.5200870000000 1.0
C      1  0.4704040000000  0.4446790000000  0.5138380000000 1.0
C      1  0.5026720000000  0.5474570000000  0.5313510000000 1.0
C      1  0.5347620000000  0.5553550000000  0.4908840000000 1.0
C      1  0.4737250000000  0.5496020000000  0.4835010000000 1.0
C      1  0.4985820000000  0.4485480000000  0.5325520000000 1.0
C      1  0.5369800000000  0.4466100000000  0.4879950000000 1.0
C      1  0.4693340000000  0.4466500000000  0.4798850000000 1.0
C      1  0.4580650000000  0.5947820000000  0.5126010000000 1.0
C      1  0.5065000000000  0.5807830000000  0.4605400000000 1.0
C      1  0.5272910000000  0.5945310000000  0.5272950000000 1.0
C      1  0.4648640000000  0.4108290000000  0.5083310000000 1.0
C      1  0.5079700000000  0.4205140000000  0.4587990000000 1.0
C      1  0.5279690000000  0.4081920000000  0.5240830000000 1.0
C      1  0.4643210000000  0.5814620000000  0.4895120000000 1.0
C      1  0.5052940000000  0.6022940000000  0.5426660000000 1.0
C      1  0.5293600000000  0.5835990000000  0.4727310000000 1.0
C      1  0.4592750000000  0.3994580000000  0.4839740000000 1.0
C      1  0.5082700000000  0.3975930000000  0.5401170000000 1.0
C      1  0.5308280000000  0.4188850000000  0.4716810000000 1.0
C      1  0.4983950000000  0.5001700000000  0.5028630000000 1.0
END
