TITL C-3289325-7307-679 0.00395235760319774 125000 -751.786282765934 0 0 139 (C1) n - 1
REM
REM in /nfs/bkarasulu/CARBON/AIRSS/Generating-Clusters/AIREBO/with-SteepDescent/Higher-Symm/SD-CG/HFTN-CG
REM
REM
REM
REM
REM
REM ./C.cell (b20cbc046b6831c77cfcea5457e17084)
REM
REM compiler GCC version 9.2.1 20190827 (Red Hat 9.2.1-1)
REM options -cpp -mtune=generic -march=x86-64 -g -O0 -fpre-include=/usr/include/finclude/math-vector-fortran.h
REM seed -764763450 -626534394 1003839929 -1660603389 1382015548 -1363920869 -1710831034 1833148029 -448109808 1210339201 -1330464719 -350658753 -738533262 -699852908 1380387173 1138191203 1096510077 1734502677 180930057 -815204585 -137855821 -452175018 559000725 -2057295655 1412967825 1636082836 867117813 1048414452 1016569150 1348422663 700416089 -1749241197 -711824147
REM
CELL 1.54180   50.00000   50.00000   50.00000   90.00000   90.00000   90.00000
LATT -1
SFAC C  
C      1  0.5045810000000  0.4166950000000  0.4556520000000 1.0
C      1  0.5014210000000  0.5843290000000  0.4590100000000 1.0
C      1  0.4785340000000  0.4365760000000  0.4571150000000 1.0
C      1  0.4779200000000  0.5654240000000  0.4597290000000 1.0
C      1  0.4507980000000  0.5312930000000  0.4727270000000 1.0
C      1  0.4399680000000  0.4671280000000  0.4801300000000 1.0
C      1  0.5109330000000  0.5345390000000  0.4993360000000 1.0
C      1  0.4961340000000  0.4642650000000  0.4990530000000 1.0
C      1  0.5870540000000  0.5346020000000  0.5205940000000 1.0
C      1  0.6044960000000  0.4550040000000  0.5259850000000 1.0
C      1  0.5540890000000  0.4720680000000  0.4714590000000 1.0
C      1  0.5533670000000  0.5288380000000  0.4723340000000 1.0
C      1  0.4710270000000  0.5487770000000  0.5312800000000 1.0
C      1  0.4554590000000  0.4341110000000  0.5427290000000 1.0
C      1  0.4973520000000  0.4208770000000  0.4886110000000 1.0
C      1  0.5027390000000  0.5952040000000  0.4861590000000 1.0
C      1  0.5296680000000  0.4196140000000  0.4993210000000 1.0
C      1  0.5293070000000  0.5920800000000  0.4964650000000 1.0
C      1  0.5079220000000  0.4175500000000  0.5511790000000 1.0
C      1  0.5119210000000  0.5883130000000  0.5435910000000 1.0
C      1  0.4627300000000  0.5518290000000  0.4329000000000 1.0
C      1  0.4601920000000  0.4464690000000  0.4326170000000 1.0
C      1  0.5763670000000  0.4328290000000  0.4735650000000 1.0
C      1  0.5707620000000  0.5667260000000  0.4716830000000 1.0
C      1  0.5214830000000  0.4526500000000  0.4243230000000 1.0
C      1  0.5193170000000  0.5553900000000  0.4159660000000 1.0
C      1  0.5631240000000  0.4621580000000  0.4970920000000 1.0
C      1  0.5545320000000  0.5440480000000  0.5000990000000 1.0
C      1  0.4495440000000  0.5515610000000  0.5583880000000 1.0
C      1  0.4511360000000  0.4533990000000  0.5680380000000 1.0
C      1  0.4022610000000  0.5254860000000  0.5348050000000 1.0
C      1  0.4103100000000  0.4736200000000  0.5317120000000 1.0
C      1  0.5566140000000  0.5263000000000  0.5615530000000 1.0
C      1  0.5637510000000  0.4612870000000  0.5581860000000 1.0
C      1  0.4910930000000  0.5481200000000  0.4262150000000 1.0
C      1  0.4898070000000  0.4582730000000  0.4254960000000 1.0
C      1  0.5342140000000  0.4535810000000  0.4624750000000 1.0
C      1  0.5434090000000  0.5496340000000  0.4473450000000 1.0
C      1  0.5005990000000  0.5358770000000  0.5719880000000 1.0
C      1  0.5018370000000  0.4681600000000  0.5769290000000 1.0
C      1  0.5857890000000  0.5450770000000  0.4558860000000 1.0
C      1  0.5874610000000  0.4544820000000  0.4587010000000 1.0
C      1  0.5733410000000  0.5141780000000  0.4490260000000 1.0
C      1  0.5737380000000  0.4832250000000  0.4467360000000 1.0
C      1  0.5865480000000  0.5550210000000  0.4967880000000 1.0
C      1  0.5857060000000  0.4374350000000  0.5032310000000 1.0
C      1  0.4629720000000  0.4670570000000  0.5383170000000 1.0
C      1  0.4484730000000  0.5269540000000  0.5355260000000 1.0
C      1  0.4834500000000  0.5383730000000  0.4796070000000 1.0
C      1  0.4706730000000  0.4559850000000  0.4826870000000 1.0
C      1  0.5088300000000  0.5681050000000  0.5647370000000 1.0
C      1  0.5071090000000  0.4347700000000  0.5728440000000 1.0
C      1  0.4370430000000  0.4659990000000  0.4462690000000 1.0
C      1  0.4446670000000  0.5311750000000  0.4420490000000 1.0
C      1  0.4569210000000  0.5783660000000  0.4777910000000 1.0
C      1  0.4639880000000  0.4168990000000  0.4800830000000 1.0
C      1  0.3973480000000  0.5278870000000  0.4869200000000 1.0
C      1  0.4006700000000  0.4743800000000  0.4785900000000 1.0
C      1  0.5319830000000  0.5383180000000  0.5778050000000 1.0
C      1  0.5338920000000  0.4619320000000  0.5749290000000 1.0
C      1  0.5646850000000  0.4718640000000  0.4189820000000 1.0
C      1  0.5633990000000  0.5359370000000  0.4250810000000 1.0
C      1  0.5221210000000  0.5754180000000  0.4410240000000 1.0
C      1  0.5321900000000  0.4276950000000  0.4448260000000 1.0
C      1  0.4055440000000  0.5419870000000  0.5115670000000 1.0
C      1  0.4170770000000  0.4603720000000  0.5043880000000 1.0
C      1  0.4994360000000  0.5299710000000  0.5310380000000 1.0
C      1  0.5025150000000  0.4669240000000  0.5323580000000 1.0
C      1  0.5438120000000  0.5751810000000  0.4776930000000 1.0
C      1  0.5503330000000  0.4190180000000  0.4722650000000 1.0
C      1  0.4601230000000  0.5708800000000  0.5108140000000 1.0
C      1  0.4591090000000  0.4252950000000  0.5120290000000 1.0
C      1  0.5067550000000  0.5345630000000  0.4476210000000 1.0
C      1  0.4977210000000  0.4753180000000  0.4508210000000 1.0
C      1  0.5685810000000  0.5444790000000  0.5408700000000 1.0
C      1  0.5721930000000  0.4469640000000  0.5329170000000 1.0
C      1  0.5204670000000  0.5510060000000  0.4724100000000 1.0
C      1  0.5098320000000  0.4615760000000  0.4709490000000 1.0
C      1  0.4371050000000  0.5569290000000  0.4816790000000 1.0
C      1  0.4395520000000  0.4365180000000  0.4653100000000 1.0
C      1  0.4803840000000  0.4146230000000  0.5364910000000 1.0
C      1  0.4905010000000  0.6035240000000  0.5325040000000 1.0
C      1  0.5381440000000  0.4726450000000  0.4128470000000 1.0
C      1  0.5371680000000  0.5340730000000  0.4110440000000 1.0
C      1  0.5349260000000  0.5360530000000  0.6081070000000 1.0
C      1  0.5374160000000  0.4727780000000  0.6061020000000 1.0
C      1  0.6025900000000  0.5275970000000  0.4725670000000 1.0
C      1  0.6031280000000  0.4751900000000  0.4724280000000 1.0
C      1  0.4315230000000  0.4320990000000  0.4972810000000 1.0
C      1  0.4274020000000  0.5596890000000  0.5089800000000 1.0
C      1  0.5317950000000  0.5843910000000  0.5236450000000 1.0
C      1  0.5276310000000  0.4115250000000  0.5323000000000 1.0
C      1  0.5443060000000  0.5586630000000  0.5259110000000 1.0
C      1  0.5433890000000  0.4440560000000  0.5151810000000 1.0
C      1  0.5648160000000  0.5123660000000  0.5069350000000 1.0
C      1  0.5858390000000  0.4784310000000  0.5080630000000 1.0
C      1  0.4971520000000  0.4360170000000  0.5176000000000 1.0
C      1  0.4818520000000  0.5945260000000  0.5065850000000 1.0
C      1  0.4715840000000  0.4749370000000  0.5792190000000 1.0
C      1  0.4712450000000  0.5299770000000  0.5689020000000 1.0
C      1  0.5345510000000  0.4643270000000  0.5410070000000 1.0
C      1  0.5280320000000  0.5398140000000  0.5440540000000 1.0
C      1  0.4232540000000  0.5296180000000  0.5561790000000 1.0
C      1  0.4326740000000  0.4756810000000  0.5511120000000 1.0
C      1  0.4326010000000  0.4993800000000  0.4412020000000 1.0
C      1  0.4660770000000  0.5005230000000  0.5597890000000 1.0
C      1  0.4583480000000  0.4887300000000  0.6053460000000 1.0
C      1  0.5793970000000  0.4973910000000  0.5339140000000 1.0
C      1  0.4820690000000  0.4954990000000  0.3923580000000 1.0
C      1  0.5297310000000  0.5031700000000  0.4038340000000 1.0
C      1  0.4817820000000  0.5061640000000  0.4705260000000 1.0
C      1  0.4115500000000  0.5043460000000  0.4667540000000 1.0
C      1  0.5291290000000  0.4973570000000  0.5350310000000 1.0
C      1  0.5067900000000  0.5031150000000  0.3835470000000 1.0
C      1  0.3959470000000  0.4983640000000  0.5283620000000 1.0
C      1  0.5559530000000  0.4927260000000  0.5876310000000 1.0
C      1  0.4995750000000  0.4963100000000  0.4980200000000 1.0
C      1  0.4665850000000  0.4982630000000  0.4411350000000 1.0
C      1  0.5313700000000  0.5075420000000  0.5026360000000 1.0
C      1  0.5366380000000  0.5041650000000  0.4371150000000 1.0
C      1  0.5071970000000  0.5039310000000  0.4480500000000 1.0
C      1  0.4817430000000  0.5050960000000  0.6033980000000 1.0
C      1  0.3884310000000  0.4982810000000  0.4982960000000 1.0
C      1  0.5566940000000  0.4944230000000  0.5552530000000 1.0
C      1  0.5397980000000  0.4995910000000  0.4706610000000 1.0
C      1  0.4732760000000  0.4901230000000  0.5191280000000 1.0
C      1  0.5023100000000  0.5021880000000  0.5764780000000 1.0
C      1  0.4957530000000  0.4984310000000  0.5432710000000 1.0
C      1  0.4040070000000  0.5009750000000  0.3915480000000 1.0
C      1  0.4333700000000  0.4981780000000  0.5986860000000 1.0
C      1  0.4481310000000  0.5058940000000  0.5172610000000 1.0
C      1  0.4166890000000  0.5002700000000  0.4136760000000 1.0
C      1  0.4331000000000  0.5026070000000  0.5678500000000 1.0
C      1  0.6067120000000  0.4828020000000  0.5413680000000 1.0
C      1  0.4225470000000  0.4995510000000  0.4985720000000 1.0
C      1  0.4775650000000  0.4862910000000  0.4182060000000 1.0
C      1  0.5277540000000  0.5047240000000  0.5989080000000 1.0
C      1  0.4493830000000  0.4993780000000  0.4783010000000 1.0
C      1  0.5898840000000  0.5028180000000  0.4860250000000 1.0
END
