TITL C-3289332-8317-410 132.551814614785 125000 -722.687987888389 0 0 131 (C1) n - 1
REM
REM in /nfs/bkarasulu/CARBON/AIRSS/Generating-Clusters/AIREBO/with-SteepDescent/Higher-Symm/SD-CG/HFTN-CG
REM
REM
REM
REM
REM
REM ./C.cell (b20cbc046b6831c77cfcea5457e17084)
REM
REM compiler GCC version 9.2.1 20190827 (Red Hat 9.2.1-1)
REM options -cpp -mtune=generic -march=x86-64 -g -O0 -fpre-include=/usr/include/finclude/math-vector-fortran.h
REM seed -1383735723 -7572437 823131598 1563750434 1286299054 140802304 -193292686 -1431660608 -1581289293 -798062906 41318667 811979527 243258142 1292555240 2015698357 416718419 1007377682 36203405 -1247149535 1408234532 78755038 1316385093 -1826589890 1277985485 -1262847040 -250615088 1796222198 2063765534 688685429 1100416107 -1699632017 2120792353 645149228
REM
CELL 1.54180   50.00000   50.00000   50.00000   90.00000   90.00000   90.00000
LATT -1
SFAC C  
C      1  0.5345940000000  0.5498080000000  0.4993510000000 1.0
C      1  0.4664850000000  0.4382310000000  0.5115350000000 1.0
C      1  0.5431090000000  0.4547040000000  0.5101140000000 1.0
C      1  0.4593410000000  0.5513190000000  0.5129750000000 1.0
C      1  0.5124900000000  0.4828400000000  0.4894770000000 1.0
C      1  0.4927790000000  0.5166340000000  0.4965440000000 1.0
C      1  0.5182800000000  0.5229490000000  0.4865020000000 1.0
C      1  0.4854320000000  0.4790370000000  0.5072860000000 1.0
C      1  0.5605170000000  0.4262750000000  0.4880380000000 1.0
C      1  0.4310510000000  0.5680100000000  0.4902870000000 1.0
C      1  0.5629200000000  0.5743920000000  0.4855940000000 1.0
C      1  0.4326380000000  0.4325030000000  0.4912410000000 1.0
C      1  0.4650090000000  0.4443840000000  0.4214370000000 1.0
C      1  0.5181790000000  0.5524920000000  0.4178510000000 1.0
C      1  0.4841820000000  0.5562450000000  0.4131720000000 1.0
C      1  0.5247400000000  0.4531830000000  0.4168440000000 1.0
C      1  0.4583340000000  0.5356610000000  0.4212900000000 1.0
C      1  0.5461120000000  0.4712610000000  0.4302710000000 1.0
C      1  0.4527570000000  0.4704420000000  0.4296810000000 1.0
C      1  0.5452750000000  0.5331050000000  0.4248860000000 1.0
C      1  0.5679420000000  0.5173870000000  0.4319570000000 1.0
C      1  0.4329660000000  0.4890200000000  0.4344550000000 1.0
C      1  0.5663750000000  0.4874290000000  0.4411350000000 1.0
C      1  0.4364050000000  0.5195940000000  0.4283160000000 1.0
C      1  0.5251120000000  0.5841560000000  0.5328190000000 1.0
C      1  0.4907500000000  0.4099540000000  0.5251120000000 1.0
C      1  0.5221000000000  0.4194210000000  0.5285620000000 1.0
C      1  0.4936570000000  0.5796360000000  0.5211840000000 1.0
C      1  0.4855330000000  0.5160190000000  0.5663840000000 1.0
C      1  0.5121890000000  0.4863720000000  0.5652560000000 1.0
C      1  0.4796100000000  0.4850070000000  0.5577350000000 1.0
C      1  0.5165230000000  0.5176270000000  0.5586040000000 1.0
C      1  0.4652660000000  0.4433470000000  0.5656480000000 1.0
C      1  0.5384690000000  0.5544040000000  0.5687720000000 1.0
C      1  0.4581190000000  0.5549050000000  0.5663140000000 1.0
C      1  0.5322950000000  0.4460350000000  0.5696200000000 1.0
C      1  0.5132070000000  0.5550840000000  0.5458270000000 1.0
C      1  0.4828660000000  0.4506210000000  0.5380880000000 1.0
C      1  0.5126530000000  0.4494520000000  0.5414910000000 1.0
C      1  0.4797070000000  0.5543650000000  0.5400300000000 1.0
C      1  0.4532730000000  0.4469400000000  0.4734650000000 1.0
C      1  0.5495160000000  0.5541800000000  0.4626330000000 1.0
C      1  0.4510330000000  0.5561330000000  0.4689060000000 1.0
C      1  0.5509040000000  0.4456110000000  0.4642410000000 1.0
C      1  0.4815210000000  0.5187850000000  0.5988710000000 1.0
C      1  0.5157570000000  0.4819400000000  0.5987790000000 1.0
C      1  0.4826840000000  0.4855270000000  0.5917450000000 1.0
C      1  0.5155350000000  0.5153980000000  0.5925190000000 1.0
C      1  0.5691430000000  0.5520260000000  0.5282730000000 1.0
C      1  0.4402310000000  0.4393660000000  0.5328730000000 1.0
C      1  0.5661880000000  0.4429000000000  0.5316640000000 1.0
C      1  0.4273860000000  0.5453160000000  0.5229560000000 1.0
C      1  0.5926920000000  0.5020930000000  0.5317100000000 1.0
C      1  0.4069220000000  0.4870230000000  0.5372690000000 1.0
C      1  0.5852360000000  0.4778720000000  0.5320640000000 1.0
C      1  0.4115760000000  0.5118930000000  0.5380480000000 1.0
C      1  0.5610750000000  0.5135520000000  0.5686930000000 1.0
C      1  0.4377770000000  0.4807590000000  0.5747280000000 1.0
C      1  0.5579380000000  0.4856830000000  0.5722490000000 1.0
C      1  0.4369300000000  0.5092360000000  0.5751940000000 1.0
C      1  0.4906770000000  0.4436550000000  0.4902000000000 1.0
C      1  0.5123160000000  0.5608280000000  0.4761180000000 1.0
C      1  0.4837630000000  0.5552440000000  0.4913420000000 1.0
C      1  0.5222820000000  0.4446150000000  0.4917000000000 1.0
C      1  0.5219380000000  0.4634270000000  0.4637660000000 1.0
C      1  0.4787640000000  0.5357860000000  0.4647910000000 1.0
C      1  0.5233400000000  0.5345970000000  0.4577460000000 1.0
C      1  0.4771680000000  0.4710750000000  0.4752680000000 1.0
C      1  0.4853520000000  0.5249960000000  0.4370450000000 1.0
C      1  0.5162920000000  0.4841340000000  0.4404410000000 1.0
C      1  0.4835750000000  0.4752250000000  0.4432620000000 1.0
C      1  0.5171900000000  0.5148490000000  0.4307560000000 1.0
C      1  0.4433840000000  0.5242270000000  0.4778370000000 1.0
C      1  0.5565750000000  0.4756930000000  0.4791010000000 1.0
C      1  0.4387800000000  0.4744340000000  0.4856350000000 1.0
C      1  0.5570900000000  0.5251190000000  0.4775590000000 1.0
C      1  0.4092530000000  0.5488880000000  0.4966090000000 1.0
C      1  0.5795430000000  0.4400190000000  0.5032840000000 1.0
C      1  0.4178480000000  0.4498400000000  0.5091930000000 1.0
C      1  0.5790260000000  0.5554810000000  0.5023380000000 1.0
C      1  0.5244800000000  0.4804730000000  0.5341090000000 1.0
C      1  0.4737640000000  0.5210530000000  0.5365810000000 1.0
C      1  0.5227580000000  0.5275200000000  0.5301490000000 1.0
C      1  0.4588770000000  0.4743690000000  0.5367580000000 1.0
C      1  0.5187270000000  0.5720900000000  0.4447620000000 1.0
C      1  0.4833460000000  0.4288220000000  0.4368380000000 1.0
C      1  0.5122650000000  0.4324170000000  0.4328480000000 1.0
C      1  0.4886070000000  0.5742350000000  0.4374590000000 1.0
C      1  0.5448840000000  0.4275290000000  0.5494850000000 1.0
C      1  0.4413560000000  0.5671910000000  0.5449030000000 1.0
C      1  0.5511780000000  0.5670210000000  0.5436490000000 1.0
C      1  0.4634680000000  0.4168300000000  0.5444180000000 1.0
C      1  0.3994650000000  0.5344630000000  0.4759840000000 1.0
C      1  0.5938120000000  0.4589080000000  0.4894070000000 1.0
C      1  0.4053650000000  0.4714550000000  0.4911780000000 1.0
C      1  0.5937590000000  0.5380670000000  0.4864420000000 1.0
C      1  0.5164210000000  0.5996820000000  0.4843370000000 1.0
C      1  0.4854850000000  0.4100330000000  0.4914280000000 1.0
C      1  0.5155290000000  0.4131760000000  0.4806530000000 1.0
C      1  0.4873730000000  0.5889800000000  0.4890850000000 1.0
C      1  0.5499950000000  0.5216590000000  0.5106560000000 1.0
C      1  0.4546790000000  0.4870940000000  0.5078430000000 1.0
C      1  0.5466760000000  0.4877130000000  0.5093630000000 1.0
C      1  0.4529450000000  0.5182300000000  0.5084310000000 1.0
C      1  0.5398330000000  0.5871800000000  0.4641480000000 1.0
C      1  0.4724710000000  0.4227370000000  0.4623640000000 1.0
C      1  0.5277220000000  0.4250160000000  0.4545630000000 1.0
C      1  0.4727010000000  0.5778790000000  0.4605690000000 1.0
C      1  0.5838060000000  0.5162260000000  0.4623320000000 1.0
C      1  0.4182660000000  0.4862600000000  0.4633400000000 1.0
C      1  0.5859110000000  0.4837350000000  0.4687270000000 1.0
C      1  0.4200330000000  0.5179980000000  0.4582420000000 1.0
C      1  0.4418540000000  0.5817470000000  0.5151350000000 1.0
C      1  0.5392850000000  0.4102970000000  0.5020620000000 1.0
C      1  0.4463770000000  0.4116220000000  0.5048430000000 1.0
C      1  0.5354030000000  0.5824130000000  0.5034030000000 1.0
C      1  0.4413270000000  0.5247180000000  0.5461490000000 1.0
C      1  0.5555540000000  0.4717730000000  0.5448660000000 1.0
C      1  0.4285960000000  0.4676730000000  0.5476890000000 1.0
C      1  0.5702970000000  0.5226040000000  0.5379350000000 1.0
C      1  0.5158820000000  0.5036760000000  0.3983940000000 1.0
C      1  0.4858910000000  0.4809770000000  0.4110290000000 1.0
C      1  0.5105910000000  0.4700380000000  0.3984020000000 1.0
C      1  0.4852150000000  0.5103140000000  0.4072660000000 1.0
C      1  0.4589670000000  0.4640530000000  0.5845160000000 1.0
C      1  0.5442640000000  0.5311600000000  0.5834050000000 1.0
C      1  0.4543530000000  0.5329530000000  0.5841310000000 1.0
C      1  0.5402380000000  0.4671530000000  0.5859370000000 1.0
C      1  0.5361960000000  0.4999690000000  0.4730470000000 1.0
C      1  0.4710520000000  0.5045590000000  0.4758300000000 1.0
C      1  0.5001030000000  0.5025980000000  0.5254770000000 1.0
END
