TITL C-3289320-4661-644 -0.00199634154952269 125000 -610.869976541167 0 0 114 (C1) n - 1
REM
REM in /nfs/bkarasulu/CARBON/AIRSS/Generating-Clusters/AIREBO/with-SteepDescent/Higher-Symm/SD-CG/HFTN-CG
REM
REM
REM
REM
REM
REM ./C.cell (b20cbc046b6831c77cfcea5457e17084)
REM
REM compiler GCC version 9.2.1 20190827 (Red Hat 9.2.1-1)
REM options -cpp -mtune=generic -march=x86-64 -g -O0 -fpre-include=/usr/include/finclude/math-vector-fortran.h
REM seed 1296623916 -365461380 170918808 470766877 -1398367650 -615979249 148415764 -1382382796 139582756 510496303 -658180712 1531943854 -2029104482 639589393 -1114603332 -1437183513 7180797 -1886561261 -1510370123 819340190 1179638847 521248190 -832591503 1423429987 76822330 1629397540 1977452017 841539661 -1223146368 -67563513 1225814880 1307455840 -257555736
REM
CELL 1.54180   50.00000   50.00000   50.00000   90.00000   90.00000   90.00000
LATT -1
SFAC C  
C      1  0.5561750000000  0.4913550000000  0.5174640000000 1.0
C      1  0.5107190000000  0.4929170000000  0.5547480000000 1.0
C      1  0.4463120000000  0.4915090000000  0.5237410000000 1.0
C      1  0.4662710000000  0.4926790000000  0.4567130000000 1.0
C      1  0.5233350000000  0.4899890000000  0.4428460000000 1.0
C      1  0.4645390000000  0.5271260000000  0.5163210000000 1.0
C      1  0.4712110000000  0.5270680000000  0.4771330000000 1.0
C      1  0.5147620000000  0.5250280000000  0.4613600000000 1.0
C      1  0.5366700000000  0.5301740000000  0.4942940000000 1.0
C      1  0.5100970000000  0.5233600000000  0.5395730000000 1.0
C      1  0.4841980000000  0.5607690000000  0.4400580000000 1.0
C      1  0.5531510000000  0.5614720000000  0.4715390000000 1.0
C      1  0.5455680000000  0.5584630000000  0.5374610000000 1.0
C      1  0.4715530000000  0.5581230000000  0.5545470000000 1.0
C      1  0.4409110000000  0.5646230000000  0.4918130000000 1.0
C      1  0.5574550000000  0.5425120000000  0.5140980000000 1.0
C      1  0.4992020000000  0.5451010000000  0.5633390000000 1.0
C      1  0.4397010000000  0.5449990000000  0.5157560000000 1.0
C      1  0.4625090000000  0.5435200000000  0.4526690000000 1.0
C      1  0.5346230000000  0.5473510000000  0.4478650000000 1.0
C      1  0.5419660000000  0.4569980000000  0.5385970000000 1.0
C      1  0.4797820000000  0.4593210000000  0.5525780000000 1.0
C      1  0.4430200000000  0.4588010000000  0.4941280000000 1.0
C      1  0.4877280000000  0.4615990000000  0.4436480000000 1.0
C      1  0.5479450000000  0.4596930000000  0.4722070000000 1.0
C      1  0.5259450000000  0.5608660000000  0.4919540000000 1.0
C      1  0.5152060000000  0.5527740000000  0.5232160000000 1.0
C      1  0.4813750000000  0.5561210000000  0.5220370000000 1.0
C      1  0.4743090000000  0.5588340000000  0.4888720000000 1.0
C      1  0.5016020000000  0.5555190000000  0.4688090000000 1.0
C      1  0.5338970000000  0.5028860000000  0.4787970000000 1.0
C      1  0.5323330000000  0.5100640000000  0.5179960000000 1.0
C      1  0.4836810000000  0.5050630000000  0.5281440000000 1.0
C      1  0.4613740000000  0.5003030000000  0.4956500000000 1.0
C      1  0.4943280000000  0.5024280000000  0.4732840000000 1.0
C      1  0.5158540000000  0.5070760000000  0.4220480000000 1.0
C      1  0.5964960000000  0.5186210000000  0.5124550000000 1.0
C      1  0.5231410000000  0.5096740000000  0.5814250000000 1.0
C      1  0.4141990000000  0.5210480000000  0.5464410000000 1.0
C      1  0.4274110000000  0.5183720000000  0.4395340000000 1.0
C      1  0.5240710000000  0.4543160000000  0.5840400000000 1.0
C      1  0.4327870000000  0.4475900000000  0.5427350000000 1.0
C      1  0.4369260000000  0.4504830000000  0.4485410000000 1.0
C      1  0.5307780000000  0.4546010000000  0.4230870000000 1.0
C      1  0.5811280000000  0.4609840000000  0.5095010000000 1.0
C      1  0.4797210000000  0.5901950000000  0.4768950000000 1.0
C      1  0.5218960000000  0.5787630000000  0.4545030000000 1.0
C      1  0.5364180000000  0.5920220000000  0.5035360000000 1.0
C      1  0.5100360000000  0.5825060000000  0.5388950000000 1.0
C      1  0.4719110000000  0.5886430000000  0.5190250000000 1.0
C      1  0.4944880000000  0.4123190000000  0.4491440000000 1.0
C      1  0.5261550000000  0.4201720000000  0.4836880000000 1.0
C      1  0.5275240000000  0.4228920000000  0.5235570000000 1.0
C      1  0.4889950000000  0.4222460000000  0.5340880000000 1.0
C      1  0.4728160000000  0.4194840000000  0.4899460000000 1.0
C      1  0.5138270000000  0.4218490000000  0.5502180000000 1.0
C      1  0.4651460000000  0.4229880000000  0.5178510000000 1.0
C      1  0.4718720000000  0.4217290000000  0.4633420000000 1.0
C      1  0.5197000000000  0.4223280000000  0.4571080000000 1.0
C      1  0.5495070000000  0.4231850000000  0.5017410000000 1.0
C      1  0.4227690000000  0.5600100000000  0.4687790000000 1.0
C      1  0.4973980000000  0.5512320000000  0.4158140000000 1.0
C      1  0.5816800000000  0.5552380000000  0.4784850000000 1.0
C      1  0.5490120000000  0.5447550000000  0.5635100000000 1.0
C      1  0.4428730000000  0.5576050000000  0.5606280000000 1.0
C      1  0.5278580000000  0.4499430000000  0.4504710000000 1.0
C      1  0.5545860000000  0.4520250000000  0.5111180000000 1.0
C      1  0.5094680000000  0.4502050000000  0.5608170000000 1.0
C      1  0.4510340000000  0.4484580000000  0.5216230000000 1.0
C      1  0.4635030000000  0.4492630000000  0.4571060000000 1.0
C      1  0.5829810000000  0.5413700000000  0.5026660000000 1.0
C      1  0.5252330000000  0.5368200000000  0.5757450000000 1.0
C      1  0.4275860000000  0.5450780000000  0.5409490000000 1.0
C      1  0.4346650000000  0.5435250000000  0.4498840000000 1.0
C      1  0.5186920000000  0.5350980000000  0.4228930000000 1.0
C      1  0.4879250000000  0.5559940000000  0.3907100000000 1.0
C      1  0.6025960000000  0.5631280000000  0.4628620000000 1.0
C      1  0.5718260000000  0.5284850000000  0.5665850000000 1.0
C      1  0.4330500000000  0.5673650000000  0.5841920000000 1.0
C      1  0.3972200000000  0.5695760000000  0.4682350000000 1.0
C      1  0.3988200000000  0.4844120000000  0.5185540000000 1.0
C      1  0.4580520000000  0.4954050000000  0.4092220000000 1.0
C      1  0.5780030000000  0.4953490000000  0.4465110000000 1.0
C      1  0.5801030000000  0.5032290000000  0.5566490000000 1.0
C      1  0.4699730000000  0.4956470000000  0.5957690000000 1.0
C      1  0.5564000000000  0.4600130000000  0.5611860000000 1.0
C      1  0.4597170000000  0.4574870000000  0.5705270000000 1.0
C      1  0.4181360000000  0.4577520000000  0.4845830000000 1.0
C      1  0.4906390000000  0.4619440000000  0.4169690000000 1.0
C      1  0.5748110000000  0.4559150000000  0.4703320000000 1.0
C      1  0.5911290000000  0.4731500000000  0.4563000000000 1.0
C      1  0.5745500000000  0.4787950000000  0.5699080000000 1.0
C      1  0.4537010000000  0.4739000000000  0.5916480000000 1.0
C      1  0.3966240000000  0.4717250000000  0.4943540000000 1.0
C      1  0.4749980000000  0.4761920000000  0.3994440000000 1.0
C      1  0.5408500000000  0.5930960000000  0.4736850000000 1.0
C      1  0.5477940000000  0.5890090000000  0.5281300000000 1.0
C      1  0.4902060000000  0.5841810000000  0.5542810000000 1.0
C      1  0.4510980000000  0.5919120000000  0.5046510000000 1.0
C      1  0.4829530000000  0.5902310000000  0.4515820000000 1.0
C      1  0.4715730000000  0.4707730000000  0.4822000000000 1.0
C      1  0.5084470000000  0.4720100000000  0.4675920000000 1.0
C      1  0.5330040000000  0.4751320000000  0.4985660000000 1.0
C      1  0.5126700000000  0.4677540000000  0.5318650000000 1.0
C      1  0.4747200000000  0.4728730000000  0.5218010000000 1.0
C      1  0.4944510000000  0.4986700000000  0.5844590000000 1.0
C      1  0.4199250000000  0.4984090000000  0.5307060000000 1.0
C      1  0.4494440000000  0.5007940000000  0.4355230000000 1.0
C      1  0.5511360000000  0.4972770000000  0.4520770000000 1.0
C      1  0.5807020000000  0.5004780000000  0.5278840000000 1.0
C      1  0.5001820000000  0.4659430000000  0.5001730000000 1.0
C      1  0.5021750000000  0.3981080000000  0.5056480000000 1.0
C      1  0.5031410000000  0.5081070000000  0.5034340000000 1.0
C      1  0.5013000000000  0.4320670000000  0.5036200000000 1.0
END
