TITL C-3289332-8317-326 0.00421243609188978 125000 -230.011319269374 0 0 47 (C1) n - 1
REM
REM in /nfs/bkarasulu/CARBON/AIRSS/Generating-Clusters/AIREBO/with-SteepDescent/Higher-Symm/SD-CG/HFTN-CG
REM
REM
REM
REM
REM
REM ./C.cell (b20cbc046b6831c77cfcea5457e17084)
REM
REM compiler GCC version 9.2.1 20190827 (Red Hat 9.2.1-1)
REM options -cpp -mtune=generic -march=x86-64 -g -O0 -fpre-include=/usr/include/finclude/math-vector-fortran.h
REM seed -1537062942 -1091118975 64855927 -2028251511 981978663 452879594 -1698289450 -1798689466 -1889480003 187518626 1593732935 -735678155 148523378 304937711 -315447984 1266896091 858732394 -2111552697 -1549237058 589140176 -1123831060 -1673400649 -1239687787 -1837929416 -1221745320 1892546526 -924511860 -385991871 -735059887 -1785851593 -450218842 -152621725 -589425750
REM
CELL 1.54180   50.00000   50.00000   50.00000   90.00000   90.00000   90.00000
LATT -1
SFAC C  
C      1  0.5060190000000  0.4432570000000  0.5843800000000 1.0
C      1  0.4683040000000  0.4671360000000  0.5639510000000 1.0
C      1  0.4510860000000  0.5046310000000  0.5836720000000 1.0
C      1  0.4257250000000  0.5320670000000  0.5584470000000 1.0
C      1  0.5480960000000  0.5557910000000  0.5618160000000 1.0
C      1  0.5728810000000  0.4958260000000  0.5586450000000 1.0
C      1  0.5297010000000  0.4863990000000  0.5837150000000 1.0
C      1  0.5507440000000  0.4990270000000  0.4914350000000 1.0
C      1  0.5323340000000  0.4719420000000  0.4956440000000 1.0
C      1  0.5017620000000  0.4600190000000  0.5045800000000 1.0
C      1  0.4692750000000  0.4666800000000  0.4975640000000 1.0
C      1  0.4641330000000  0.5206340000000  0.5006170000000 1.0
C      1  0.4826220000000  0.5473110000000  0.4963500000000 1.0
C      1  0.5126270000000  0.5516090000000  0.4934570000000 1.0
C      1  0.5296240000000  0.4803840000000  0.4630910000000 1.0
C      1  0.5000730000000  0.4663110000000  0.4723060000000 1.0
C      1  0.4671480000000  0.4614570000000  0.4649420000000 1.0
C      1  0.4627380000000  0.5137200000000  0.4576840000000 1.0
C      1  0.4663610000000  0.5420250000000  0.4669580000000 1.0
C      1  0.5257780000000  0.5420030000000  0.4660330000000 1.0
C      1  0.5312130000000  0.5126510000000  0.4682950000000 1.0
C      1  0.4957550000000  0.5509550000000  0.4573950000000 1.0
C      1  0.5463780000000  0.5572310000000  0.4548660000000 1.0
C      1  0.5768110000000  0.4933360000000  0.4823260000000 1.0
C      1  0.5455070000000  0.4684910000000  0.4406220000000 1.0
C      1  0.4595460000000  0.4344240000000  0.4539710000000 1.0
C      1  0.4527470000000  0.4863670000000  0.4526970000000 1.0
C      1  0.4453590000000  0.5595340000000  0.4611430000000 1.0
C      1  0.4979010000000  0.4602180000000  0.5635030000000 1.0
C      1  0.4523160000000  0.4796370000000  0.5462170000000 1.0
C      1  0.4483030000000  0.5117930000000  0.5533530000000 1.0
C      1  0.4786350000000  0.5240000000000  0.5479770000000 1.0
C      1  0.5441650000000  0.5377190000000  0.5419130000000 1.0
C      1  0.5463760000000  0.5051370000000  0.5465100000000 1.0
C      1  0.5219750000000  0.4824800000000  0.5534070000000 1.0
C      1  0.4777640000000  0.5446770000000  0.5295100000000 1.0
C      1  0.5268180000000  0.5456430000000  0.5151230000000 1.0
C      1  0.5500220000000  0.5171240000000  0.5152170000000 1.0
C      1  0.5339230000000  0.4642410000000  0.5273130000000 1.0
C      1  0.5058010000000  0.4509280000000  0.5349250000000 1.0
C      1  0.4501900000000  0.4689310000000  0.5215350000000 1.0
C      1  0.4451830000000  0.5165020000000  0.5198210000000 1.0
C      1  0.4984970000000  0.5043020000000  0.5418350000000 1.0
C      1  0.5051750000000  0.4993810000000  0.4309250000000 1.0
C      1  0.4967640000000  0.5025080000000  0.5147230000000 1.0
C      1  0.4793940000000  0.4958870000000  0.4891610000000 1.0
C      1  0.4912930000000  0.4955740000000  0.4574640000000 1.0
END
