TITL C-3289325-7307-32 -0.000968003085568093 125000 -330.473511455664 0 0 66 (C1) n - 1
REM
REM in /nfs/bkarasulu/CARBON/AIRSS/Generating-Clusters/AIREBO/with-SteepDescent/Higher-Symm/SD-CG/HFTN-CG
REM
REM
REM
REM
REM
REM ./C.cell (b20cbc046b6831c77cfcea5457e17084)
REM
REM compiler GCC version 9.2.1 20190827 (Red Hat 9.2.1-1)
REM options -cpp -mtune=generic -march=x86-64 -g -O0 -fpre-include=/usr/include/finclude/math-vector-fortran.h
REM seed 427191127 447194827 -997212828 -1150474768 -2138325970 933899815 -1367605443 -1123352235 -1727971053 -339930847 2042687789 104881412 513012903 -1030774137 901584485 1848206856 1569664404 2018148857 -1852301039 777773762 561186594 -681287346 -159469587 -1988005364 -1679175545 63633688 -1843625070 840690011 -1068005615 1561386766 1481850747 230876280 21561076
REM
CELL 1.54180   50.00000   50.00000   50.00000   90.00000   90.00000   90.00000
LATT -1
SFAC C  
C      1  0.4863180000000  0.5327800000000  0.5669080000000 1.0
C      1  0.4515440000000  0.5299860000000  0.5460900000000 1.0
C      1  0.4387370000000  0.5314920000000  0.5082510000000 1.0
C      1  0.4355860000000  0.5442670000000  0.4707180000000 1.0
C      1  0.4537420000000  0.5397240000000  0.4425220000000 1.0
C      1  0.5043240000000  0.5420460000000  0.4193500000000 1.0
C      1  0.5342900000000  0.5370590000000  0.4330790000000 1.0
C      1  0.5691770000000  0.5421830000000  0.4764620000000 1.0
C      1  0.5584920000000  0.5375120000000  0.5079140000000 1.0
C      1  0.5505090000000  0.5418700000000  0.5467740000000 1.0
C      1  0.5230700000000  0.5445150000000  0.5755290000000 1.0
C      1  0.5523850000000  0.5135220000000  0.4766730000000 1.0
C      1  0.5499340000000  0.5063790000000  0.5097080000000 1.0
C      1  0.5415930000000  0.5125850000000  0.5403130000000 1.0
C      1  0.5148370000000  0.5218590000000  0.5515490000000 1.0
C      1  0.4862730000000  0.5037730000000  0.5512830000000 1.0
C      1  0.4600490000000  0.5034470000000  0.5321530000000 1.0
C      1  0.4476190000000  0.5012900000000  0.5037940000000 1.0
C      1  0.4480840000000  0.5149160000000  0.4731190000000 1.0
C      1  0.4717630000000  0.5117030000000  0.4497680000000 1.0
C      1  0.5011620000000  0.5155540000000  0.4386360000000 1.0
C      1  0.5311540000000  0.5106220000000  0.4538870000000 1.0
C      1  0.4624060000000  0.4503680000000  0.5302530000000 1.0
C      1  0.4509260000000  0.4506450000000  0.5058550000000 1.0
C      1  0.4593820000000  0.4372800000000  0.4830590000000 1.0
C      1  0.4744820000000  0.4474680000000  0.4621340000000 1.0
C      1  0.4993710000000  0.4374100000000  0.4551310000000 1.0
C      1  0.5243530000000  0.4462370000000  0.4631240000000 1.0
C      1  0.5399920000000  0.4355120000000  0.4832120000000 1.0
C      1  0.5431060000000  0.4442600000000  0.5094810000000 1.0
C      1  0.5290250000000  0.4315020000000  0.5295810000000 1.0
C      1  0.5066250000000  0.4374120000000  0.5451010000000 1.0
C      1  0.4801240000000  0.4307910000000  0.5392730000000 1.0
C      1  0.4679510000000  0.4773710000000  0.4506970000000 1.0
C      1  0.5003940000000  0.4816740000000  0.4414260000000 1.0
C      1  0.5312730000000  0.4764360000000  0.4546780000000 1.0
C      1  0.5555140000000  0.4800170000000  0.4782590000000 1.0
C      1  0.5570480000000  0.4725520000000  0.5114000000000 1.0
C      1  0.5549140000000  0.4838070000000  0.5434250000000 1.0
C      1  0.5102590000000  0.4597180000000  0.5608970000000 1.0
C      1  0.4868280000000  0.4768280000000  0.5678470000000 1.0
C      1  0.4594430000000  0.4744680000000  0.5486680000000 1.0
C      1  0.4337090000000  0.4736070000000  0.4991460000000 1.0
C      1  0.4398930000000  0.4831510000000  0.4690220000000 1.0
C      1  0.4156740000000  0.4777270000000  0.4508990000000 1.0
C      1  0.4548090000000  0.4717810000000  0.4213760000000 1.0
C      1  0.5015080000000  0.4666220000000  0.4140220000000 1.0
C      1  0.5497340000000  0.4720410000000  0.4279890000000 1.0
C      1  0.5811230000000  0.4685400000000  0.4651180000000 1.0
C      1  0.5892580000000  0.4673430000000  0.5127100000000 1.0
C      1  0.5830930000000  0.4853650000000  0.5555290000000 1.0
C      1  0.5353690000000  0.4687160000000  0.5619190000000 1.0
C      1  0.4804800000000  0.4787850000000  0.5974690000000 1.0
C      1  0.4340260000000  0.4723830000000  0.5657860000000 1.0
C      1  0.4048350000000  0.4718710000000  0.5079720000000 1.0
C      1  0.4725550000000  0.5567000000000  0.5470480000000 1.0
C      1  0.4464570000000  0.5582810000000  0.5277130000000 1.0
C      1  0.4531130000000  0.5597580000000  0.4955870000000 1.0
C      1  0.4608850000000  0.5659110000000  0.4638030000000 1.0
C      1  0.4846530000000  0.5514820000000  0.4445230000000 1.0
C      1  0.5155320000000  0.5642580000000  0.4433760000000 1.0
C      1  0.5403310000000  0.5513870000000  0.4622140000000 1.0
C      1  0.5494490000000  0.5666180000000  0.4905570000000 1.0
C      1  0.5411150000000  0.5631810000000  0.5218930000000 1.0
C      1  0.5298760000000  0.5683380000000  0.5522420000000 1.0
C      1  0.4984660000000  0.5653190000000  0.5641090000000 1.0
END
