TITL C-3289332-8317-677 -0.000234745216550778 125000 -88.2311336055799 0 0 17 (C1) n - 1
REM
REM in /nfs/bkarasulu/CARBON/AIRSS/Generating-Clusters/AIREBO/with-SteepDescent/Higher-Symm/SD-CG/HFTN-CG
REM
REM
REM
REM
REM
REM ./C.cell (b20cbc046b6831c77cfcea5457e17084)
REM
REM compiler GCC version 9.2.1 20190827 (Red Hat 9.2.1-1)
REM options -cpp -mtune=generic -march=x86-64 -g -O0 -fpre-include=/usr/include/finclude/math-vector-fortran.h
REM seed 1199039644 -1060681133 -1251869510 -705503428 2096419468 68872888 1506702727 824509356 -1041129496 -696224980 1842787393 -715259510 -374175799 217289842 -375453500 806404538 1918929837 1174351000 522766569 -855854727 -970351871 -1234036130 2050216251 -1105687720 -126535406 -624842533 -1447994887 -1995480366 -37023148 918020543 1358218601 -662875927 1759340770
REM
CELL 1.54180   50.00000   50.00000   50.00000   90.00000   90.00000   90.00000
LATT -1
SFAC C  
C      1  0.4729610000000  0.5077800000000  0.4861080000000 1.0
C      1  0.5080060000000  0.4686680000000  0.4735780000000 1.0
C      1  0.5424920000000  0.5285130000000  0.4879750000000 1.0
C      1  0.4713000000000  0.5091550000000  0.5178690000000 1.0
C      1  0.4946660000000  0.4686440000000  0.5204620000000 1.0
C      1  0.5372470000000  0.5326360000000  0.5205100000000 1.0
C      1  0.4770270000000  0.4822210000000  0.4714890000000 1.0
C      1  0.5168160000000  0.5452600000000  0.4887890000000 1.0
C      1  0.5307840000000  0.4761180000000  0.4878560000000 1.0
C      1  0.4769910000000  0.4870670000000  0.5335800000000 1.0
C      1  0.5104080000000  0.5473180000000  0.5217900000000 1.0
C      1  0.5227200000000  0.4748900000000  0.5188780000000 1.0
C      1  0.5386000000000  0.5016740000000  0.5078300000000 1.0
C      1  0.4885060000000  0.5326880000000  0.5012820000000 1.0
C      1  0.4856790000000  0.4594090000000  0.4943970000000 1.0
C      1  0.4615590000000  0.4775430000000  0.4490440000000 1.0
C      1  0.4675690000000  0.4829780000000  0.5584210000000 1.0
END
