TITL C-3289332-8317-633 -0.000567662156478947 125000 -1043.6958255471 0 0 189 (C1) n - 1
REM
REM in /nfs/bkarasulu/CARBON/AIRSS/Generating-Clusters/AIREBO/with-SteepDescent/Higher-Symm/SD-CG/HFTN-CG
REM
REM
REM
REM
REM
REM ./C.cell (b20cbc046b6831c77cfcea5457e17084)
REM
REM compiler GCC version 9.2.1 20190827 (Red Hat 9.2.1-1)
REM options -cpp -mtune=generic -march=x86-64 -g -O0 -fpre-include=/usr/include/finclude/math-vector-fortran.h
REM seed -1082448199 -1641115545 1146053759 1744969156 1668228886 -248660038 -1275836296 -1770177760 -392118451 315600873 1111443494 997429991 -995234226 220227558 1674926932 -172237003 2084893965 978030891 -1248466534 -1184551040 1377907914 -414267835 705698543 -667807608 1719483690 -343865604 -648914715 1256642368 -1822749815 378894331 -66482019 1215475811 -1370469800
REM
CELL 1.54180   50.00000   50.00000   50.00000   90.00000   90.00000   90.00000
LATT -1
SFAC C  
C      1  0.5696860000000  0.5865460000000  0.5577700000000 1.0
C      1  0.3957480000000  0.5295540000000  0.5419440000000 1.0
C      1  0.5325050000000  0.3934840000000  0.5381470000000 1.0
C      1  0.4793620000000  0.4487440000000  0.4568810000000 1.0
C      1  0.5617710000000  0.5136590000000  0.4672870000000 1.0
C      1  0.4548670000000  0.5448010000000  0.4663890000000 1.0
C      1  0.5479730000000  0.5367010000000  0.5876200000000 1.0
C      1  0.4450760000000  0.5272620000000  0.5778730000000 1.0
C      1  0.5036130000000  0.4549130000000  0.5954320000000 1.0
C      1  0.5149500000000  0.5621930000000  0.5191170000000 1.0
C      1  0.4374080000000  0.4532580000000  0.5097440000000 1.0
C      1  0.5573760000000  0.4503870000000  0.5257660000000 1.0
C      1  0.5763250000000  0.5261930000000  0.4319620000000 1.0
C      1  0.4230150000000  0.5612260000000  0.4389130000000 1.0
C      1  0.4957650000000  0.4103750000000  0.4337140000000 1.0
C      1  0.4427070000000  0.5751360000000  0.4704090000000 1.0
C      1  0.4614570000000  0.4214860000000  0.4642780000000 1.0
C      1  0.5937290000000  0.5022910000000  0.4697530000000 1.0
C      1  0.3939740000000  0.4811960000000  0.5546930000000 1.0
C      1  0.5763740000000  0.4197840000000  0.5511740000000 1.0
C      1  0.5415060000000  0.6101810000000  0.5480140000000 1.0
C      1  0.4124090000000  0.5756100000000  0.4768650000000 1.0
C      1  0.4653880000000  0.3900140000000  0.4651250000000 1.0
C      1  0.6115020000000  0.5244990000000  0.4803240000000 1.0
C      1  0.4198340000000  0.5121200000000  0.5818220000000 1.0
C      1  0.5414270000000  0.4193900000000  0.5873640000000 1.0
C      1  0.5381360000000  0.5627420000000  0.5939050000000 1.0
C      1  0.4835780000000  0.4968360000000  0.5681100000000 1.0
C      1  0.5079310000000  0.4796730000000  0.5736950000000 1.0
C      1  0.4908210000000  0.5256940000000  0.5647180000000 1.0
C      1  0.5388380000000  0.4522580000000  0.5034350000000 1.0
C      1  0.5246290000000  0.5572640000000  0.4806390000000 1.0
C      1  0.4483420000000  0.4900490000000  0.4859880000000 1.0
C      1  0.5344260000000  0.6059390000000  0.4780110000000 1.0
C      1  0.4032640000000  0.4670680000000  0.4907480000000 1.0
C      1  0.5849530000000  0.4158610000000  0.4901350000000 1.0
C      1  0.5080600000000  0.4718650000000  0.4204190000000 1.0
C      1  0.5119670000000  0.5163720000000  0.4197710000000 1.0
C      1  0.4804670000000  0.5213980000000  0.4259490000000 1.0
C      1  0.4557770000000  0.5866810000000  0.5139880000000 1.0
C      1  0.4480510000000  0.4160260000000  0.5197390000000 1.0
C      1  0.6050590000000  0.4931170000000  0.5270110000000 1.0
C      1  0.5562260000000  0.6026230000000  0.4627460000000 1.0
C      1  0.3963920000000  0.4939300000000  0.4805950000000 1.0
C      1  0.5611910000000  0.4118240000000  0.4770970000000 1.0
C      1  0.4061970000000  0.4557130000000  0.5426070000000 1.0
C      1  0.5931510000000  0.4427940000000  0.5405570000000 1.0
C      1  0.5258060000000  0.6160470000000  0.5265890000000 1.0
C      1  0.4636030000000  0.4739310000000  0.5108010000000 1.0
C      1  0.5231860000000  0.4755230000000  0.5154490000000 1.0
C      1  0.4980280000000  0.5432420000000  0.4965160000000 1.0
C      1  0.4244670000000  0.5441840000000  0.5420320000000 1.0
C      1  0.5138260000000  0.4157730000000  0.5505350000000 1.0
C      1  0.5806970000000  0.5399120000000  0.5392980000000 1.0
C      1  0.4394270000000  0.5052270000000  0.5103010000000 1.0
C      1  0.5170170000000  0.4307950000000  0.5101040000000 1.0
C      1  0.5364340000000  0.5464300000000  0.5261690000000 1.0
C      1  0.4521080000000  0.4835230000000  0.4262800000000 1.0
C      1  0.5329400000000  0.4796730000000  0.4026070000000 1.0
C      1  0.5095590000000  0.5486750000000  0.4241240000000 1.0
C      1  0.4938260000000  0.4878950000000  0.5168060000000 1.0
C      1  0.5272830000000  0.5076110000000  0.5248390000000 1.0
C      1  0.4975500000000  0.5190790000000  0.5188430000000 1.0
C      1  0.5436890000000  0.5520560000000  0.4040510000000 1.0
C      1  0.4294460000000  0.5256970000000  0.4133540000000 1.0
C      1  0.5231640000000  0.4344470000000  0.4133420000000 1.0
C      1  0.5494470000000  0.4996060000000  0.5471990000000 1.0
C      1  0.4801160000000  0.5349730000000  0.5378020000000 1.0
C      1  0.4869450000000  0.4664860000000  0.5423120000000 1.0
C      1  0.5952560000000  0.5471070000000  0.4824740000000 1.0
C      1  0.3920090000000  0.5560570000000  0.4846700000000 1.0
C      1  0.4904850000000  0.3825020000000  0.4743610000000 1.0
C      1  0.4905930000000  0.4365610000000  0.4138300000000 1.0
C      1  0.5574720000000  0.5269390000000  0.4099060000000 1.0
C      1  0.4445150000000  0.5548520000000  0.4143190000000 1.0
C      1  0.5564410000000  0.5537070000000  0.4780180000000 1.0
C      1  0.4167280000000  0.5211650000000  0.4816500000000 1.0
C      1  0.5094850000000  0.4158480000000  0.4844990000000 1.0
C      1  0.4789100000000  0.4726430000000  0.4372230000000 1.0
C      1  0.5392490000000  0.4883270000000  0.4644220000000 1.0
C      1  0.4767410000000  0.5439950000000  0.4463230000000 1.0
C      1  0.4491380000000  0.5341130000000  0.5126670000000 1.0
C      1  0.4886480000000  0.4428880000000  0.5092720000000 1.0
C      1  0.5455240000000  0.5240030000000  0.5023400000000 1.0
C      1  0.5873390000000  0.4665880000000  0.4480820000000 1.0
C      1  0.4831700000000  0.5934570000000  0.4416600000000 1.0
C      1  0.4351050000000  0.4395100000000  0.4384340000000 1.0
C      1  0.4667290000000  0.5530740000000  0.4953290000000 1.0
C      1  0.4817210000000  0.4605350000000  0.4863820000000 1.0
C      1  0.5672000000000  0.5001530000000  0.4992350000000 1.0
C      1  0.4303270000000  0.4875960000000  0.5920430000000 1.0
C      1  0.5346870000000  0.4454620000000  0.5906830000000 1.0
C      1  0.5126360000000  0.5632670000000  0.6045680000000 1.0
C      1  0.4668070000000  0.5324290000000  0.5957260000000 1.0
C      1  0.4809550000000  0.4326090000000  0.5899460000000 1.0
C      1  0.5346820000000  0.5136280000000  0.5994480000000 1.0
C      1  0.5373420000000  0.4903530000000  0.5840480000000 1.0
C      1  0.4889370000000  0.5530270000000  0.5848690000000 1.0
C      1  0.4639380000000  0.4852250000000  0.5907320000000 1.0
C      1  0.5724840000000  0.5443090000000  0.5064870000000 1.0
C      1  0.4170400000000  0.5375960000000  0.5095000000000 1.0
C      1  0.4965210000000  0.3914440000000  0.5044160000000 1.0
C      1  0.4751290000000  0.4002280000000  0.5250720000000 1.0
C      1  0.6093470000000  0.5230430000000  0.5321060000000 1.0
C      1  0.4314790000000  0.5909910000000  0.5272430000000 1.0
C      1  0.5715670000000  0.4663670000000  0.5522180000000 1.0
C      1  0.4977650000000  0.5797360000000  0.5391170000000 1.0
C      1  0.4401830000000  0.4555180000000  0.5435780000000 1.0
C      1  0.5124340000000  0.3976710000000  0.4561960000000 1.0
C      1  0.5799960000000  0.5524320000000  0.4533760000000 1.0
C      1  0.4054200000000  0.5417490000000  0.4568510000000 1.0
C      1  0.5190290000000  0.5195790000000  0.4497860000000 1.0
C      1  0.4746420000000  0.5023430000000  0.4532720000000 1.0
C      1  0.5160090000000  0.4699460000000  0.4518920000000 1.0
C      1  0.4282550000000  0.5727030000000  0.5504300000000 1.0
C      1  0.4852530000000  0.4064440000000  0.5505550000000 1.0
C      1  0.5938930000000  0.5137850000000  0.5593470000000 1.0
C      1  0.4437390000000  0.4694610000000  0.5703240000000 1.0
C      1  0.5508770000000  0.4655220000000  0.5787150000000 1.0
C      1  0.5114490000000  0.5702510000000  0.5652030000000 1.0
C      1  0.4670380000000  0.4188760000000  0.5686460000000 1.0
C      1  0.5956180000000  0.4865340000000  0.5652900000000 1.0
C      1  0.4493230000000  0.5906250000000  0.5629780000000 1.0
C      1  0.5109940000000  0.5852600000000  0.4703360000000 1.0
C      1  0.4210890000000  0.4556160000000  0.4721520000000 1.0
C      1  0.5482010000000  0.4376260000000  0.4722830000000 1.0
C      1  0.5363940000000  0.5661520000000  0.4342740000000 1.0
C      1  0.4250770000000  0.5013740000000  0.4367080000000 1.0
C      1  0.5358040000000  0.4372480000000  0.4406260000000 1.0
C      1  0.4680960000000  0.4403270000000  0.5314840000000 1.0
C      1  0.5737580000000  0.4906110000000  0.5284600000000 1.0
C      1  0.4725170000000  0.5629620000000  0.5273430000000 1.0
C      1  0.5347690000000  0.4514590000000  0.3950050000000 1.0
C      1  0.5144940000000  0.5445570000000  0.3912600000000 1.0
C      1  0.4458770000000  0.5024780000000  0.4025890000000 1.0
C      1  0.4909580000000  0.4825550000000  0.6097150000000 1.0
C      1  0.5114820000000  0.5093620000000  0.6159150000000 1.0
C      1  0.4798040000000  0.5145550000000  0.6125100000000 1.0
C      1  0.5863280000000  0.4769900000000  0.4865460000000 1.0
C      1  0.4596650000000  0.5925540000000  0.4873860000000 1.0
C      1  0.4432470000000  0.4277470000000  0.4902870000000 1.0
C      1  0.6191500000000  0.4729500000000  0.5583960000000 1.0
C      1  0.4717570000000  0.5982260000000  0.5508790000000 1.0
C      1  0.4403580000000  0.4245430000000  0.5576060000000 1.0
C      1  0.4172070000000  0.4256570000000  0.5311090000000 1.0
C      1  0.6170900000000  0.4624550000000  0.5265390000000 1.0
C      1  0.4933650000000  0.6115460000000  0.5279020000000 1.0
C      1  0.5032010000000  0.5574150000000  0.4547800000000 1.0
C      1  0.4438360000000  0.4734180000000  0.4577020000000 1.0
C      1  0.5564880000000  0.4678010000000  0.4788760000000 1.0
C      1  0.5076760000000  0.6141980000000  0.4973450000000 1.0
C      1  0.3980240000000  0.4477500000000  0.5123580000000 1.0
C      1  0.5988560000000  0.4415420000000  0.5067900000000 1.0
C      1  0.5182550000000  0.5397690000000  0.5612420000000 1.0
C      1  0.4630370000000  0.4906760000000  0.5417070000000 1.0
C      1  0.5262440000000  0.4757230000000  0.5486710000000 1.0
C      1  0.4848250000000  0.6029700000000  0.4742790000000 1.0
C      1  0.4222500000000  0.4264270000000  0.4635920000000 1.0
C      1  0.6026340000000  0.4526630000000  0.4748180000000 1.0
C      1  0.5106520000000  0.5880930000000  0.4305620000000 1.0
C      1  0.4173720000000  0.4682960000000  0.4346780000000 1.0
C      1  0.5672060000000  0.4482270000000  0.4388790000000 1.0
C      1  0.4640630000000  0.4232470000000  0.4304210000000 1.0
C      1  0.5864080000000  0.4995240000000  0.4391620000000 1.0
C      1  0.4537100000000  0.5758890000000  0.4396620000000 1.0
C      1  0.4664600000000  0.5364930000000  0.4027210000000 1.0
C      1  0.4835180000000  0.4632910000000  0.3987580000000 1.0
C      1  0.5371600000000  0.5063140000000  0.4062350000000 1.0
C      1  0.5490480000000  0.4093480000000  0.5599180000000 1.0
C      1  0.5396380000000  0.5847200000000  0.5704310000000 1.0
C      1  0.3988890000000  0.5085080000000  0.5611660000000 1.0
C      1  0.5100970000000  0.4377900000000  0.4613580000000 1.0
C      1  0.5433760000000  0.5376590000000  0.4515010000000 1.0
C      1  0.4437460000000  0.5131080000000  0.4626100000000 1.0
C      1  0.4740750000000  0.4809350000000  0.3809440000000 1.0
C      1  0.4903250000000  0.5373930000000  0.3797590000000 1.0
C      1  0.4674810000000  0.5121040000000  0.3793000000000 1.0
C      1  0.5444710000000  0.3924060000000  0.4663100000000 1.0
C      1  0.5617040000000  0.5802340000000  0.4485620000000 1.0
C      1  0.3955840000000  0.5098080000000  0.4505380000000 1.0
C      1  0.5507700000000  0.5329970000000  0.5539260000000 1.0
C      1  0.4503480000000  0.5222700000000  0.5446500000000 1.0
C      1  0.5137220000000  0.4453920000000  0.5399800000000 1.0
C      1  0.4955650000000  0.4828020000000  0.4716410000000 1.0
C      1  0.5249080000000  0.5114120000000  0.4817710000000 1.0
C      1  0.4953290000000  0.5210300000000  0.4727540000000 1.0
C      1  0.5203970000000  0.3782410000000  0.5197820000000 1.0
C      1  0.5863070000000  0.5688480000000  0.5512130000000 1.0
C      1  0.3858430000000  0.5461780000000  0.5139810000000 1.0
END
