TITL C-3289333-7213-730 0.000613506588313707 125000 -627.639047748867 0 0 114 (C1) n - 1
REM
REM in /nfs/bkarasulu/CARBON/AIRSS/Generating-Clusters/AIREBO/with-SteepDescent/Higher-Symm/SD-CG/HFTN-CG
REM
REM
REM
REM
REM
REM ./C.cell (b20cbc046b6831c77cfcea5457e17084)
REM
REM compiler GCC version 9.2.1 20190827 (Red Hat 9.2.1-1)
REM options -cpp -mtune=generic -march=x86-64 -g -O0 -fpre-include=/usr/include/finclude/math-vector-fortran.h
REM seed -842719182 -171053521 1653042732 345873422 -1947181823 187140301 -1850570165 812820120 1650027119 1700264557 1365058966 1889421203 -561428627 435958149 -352097458 2088263659 493123387 -446202860 -401710868 1011763617 -767376678 -1394027631 -176840773 -1014704899 397473470 1381027199 1273319455 519228984 -401579772 -1862180772 2025529613 -1922333969 -169829693
REM
CELL 1.54180   50.00000   50.00000   50.00000   90.00000   90.00000   90.00000
LATT -1
SFAC C  
C      1  0.5170640000000  0.4726750000000  0.5175750000000 1.0
C      1  0.4835950000000  0.4671310000000  0.4819290000000 1.0
C      1  0.5154860000000  0.4615240000000  0.4854880000000 1.0
C      1  0.4891980000000  0.4621140000000  0.5322810000000 1.0
C      1  0.5499590000000  0.5448230000000  0.5572510000000 1.0
C      1  0.4577020000000  0.5490030000000  0.4450060000000 1.0
C      1  0.5563910000000  0.5443430000000  0.4413500000000 1.0
C      1  0.4431840000000  0.5450880000000  0.5729010000000 1.0
C      1  0.4716710000000  0.4685680000000  0.5895540000000 1.0
C      1  0.5266820000000  0.4793240000000  0.4126960000000 1.0
C      1  0.4992460000000  0.4706780000000  0.4158840000000 1.0
C      1  0.5267450000000  0.4726410000000  0.5886260000000 1.0
C      1  0.5267060000000  0.5520810000000  0.4464340000000 1.0
C      1  0.4716600000000  0.5346580000000  0.5469140000000 1.0
C      1  0.5234810000000  0.5282090000000  0.5438510000000 1.0
C      1  0.4841970000000  0.5327670000000  0.4577890000000 1.0
C      1  0.5486910000000  0.5942890000000  0.4853640000000 1.0
C      1  0.4271370000000  0.5821950000000  0.5003510000000 1.0
C      1  0.5674600000000  0.5800360000000  0.4943490000000 1.0
C      1  0.4461620000000  0.5685780000000  0.4779030000000 1.0
C      1  0.5837010000000  0.5067880000000  0.4669030000000 1.0
C      1  0.4253900000000  0.5129790000000  0.5287080000000 1.0
C      1  0.5818420000000  0.5209280000000  0.5302110000000 1.0
C      1  0.4178980000000  0.5167140000000  0.4665290000000 1.0
C      1  0.5118310000000  0.5741930000000  0.5416360000000 1.0
C      1  0.4752950000000  0.5925030000000  0.4633920000000 1.0
C      1  0.5039110000000  0.5840890000000  0.4595950000000 1.0
C      1  0.4843680000000  0.5789790000000  0.5443540000000 1.0
C      1  0.4792810000000  0.4935080000000  0.4160660000000 1.0
C      1  0.5109770000000  0.5008320000000  0.5842690000000 1.0
C      1  0.4782870000000  0.5004940000000  0.5870290000000 1.0
C      1  0.5285850000000  0.5101000000000  0.4135760000000 1.0
C      1  0.4487630000000  0.4646070000000  0.5653270000000 1.0
C      1  0.5469640000000  0.4663120000000  0.4288850000000 1.0
C      1  0.4475240000000  0.4607190000000  0.4364250000000 1.0
C      1  0.5508270000000  0.4627340000000  0.5690920000000 1.0
C      1  0.4855400000000  0.5309860000000  0.5777450000000 1.0
C      1  0.5121380000000  0.5374830000000  0.4204070000000 1.0
C      1  0.4875340000000  0.5196350000000  0.4273780000000 1.0
C      1  0.5173630000000  0.5312000000000  0.5752020000000 1.0
C      1  0.5999180000000  0.5270220000000  0.4845570000000 1.0
C      1  0.4164840000000  0.5376250000000  0.5145930000000 1.0
C      1  0.5868270000000  0.5354870000000  0.5069580000000 1.0
C      1  0.4030500000000  0.5332450000000  0.4908730000000 1.0
C      1  0.4862890000000  0.4510540000000  0.5643210000000 1.0
C      1  0.5138990000000  0.4474520000000  0.4545650000000 1.0
C      1  0.4934800000000  0.4502110000000  0.4351210000000 1.0
C      1  0.5146060000000  0.4478040000000  0.5748010000000 1.0
C      1  0.4147740000000  0.4655000000000  0.4738060000000 1.0
C      1  0.5888910000000  0.4530220000000  0.5211180000000 1.0
C      1  0.4132490000000  0.4641530000000  0.5233640000000 1.0
C      1  0.5820970000000  0.4564910000000  0.4699970000000 1.0
C      1  0.5158340000000  0.5500760000000  0.4768180000000 1.0
C      1  0.4693790000000  0.5495460000000  0.5191040000000 1.0
C      1  0.5354400000000  0.5375370000000  0.5167020000000 1.0
C      1  0.4862420000000  0.5426190000000  0.4902970000000 1.0
C      1  0.4101540000000  0.4893850000000  0.5132070000000 1.0
C      1  0.5898320000000  0.4799250000000  0.4815410000000 1.0
C      1  0.4104660000000  0.4902210000000  0.4852290000000 1.0
C      1  0.5865560000000  0.4791020000000  0.5090570000000 1.0
C      1  0.4770190000000  0.4858850000000  0.4458060000000 1.0
C      1  0.5201250000000  0.4897150000000  0.5534570000000 1.0
C      1  0.4711940000000  0.4889340000000  0.5558490000000 1.0
C      1  0.5316270000000  0.5005040000000  0.4460520000000 1.0
C      1  0.4791570000000  0.4970730000000  0.4862400000000 1.0
C      1  0.5337450000000  0.5035910000000  0.5144150000000 1.0
C      1  0.4821870000000  0.4919810000000  0.5176100000000 1.0
C      1  0.5224440000000  0.4947660000000  0.4850230000000 1.0
C      1  0.4507660000000  0.4733700000000  0.5334920000000 1.0
C      1  0.5478550000000  0.4750430000000  0.4617520000000 1.0
C      1  0.4504630000000  0.4796210000000  0.4634040000000 1.0
C      1  0.5448260000000  0.4729040000000  0.5372040000000 1.0
C      1  0.5567650000000  0.4490730000000  0.5160580000000 1.0
C      1  0.4441680000000  0.4514450000000  0.4815250000000 1.0
C      1  0.5529450000000  0.4481880000000  0.4820990000000 1.0
C      1  0.4402020000000  0.4481840000000  0.5142590000000 1.0
C      1  0.4364660000000  0.5574760000000  0.5150290000000 1.0
C      1  0.5442930000000  0.5344820000000  0.4784630000000 1.0
C      1  0.4549750000000  0.5407660000000  0.4837840000000 1.0
C      1  0.5622710000000  0.5504010000000  0.5002460000000 1.0
C      1  0.5750170000000  0.5344360000000  0.5536330000000 1.0
C      1  0.4365990000000  0.5307600000000  0.4417210000000 1.0
C      1  0.5613980000000  0.5169340000000  0.4433180000000 1.0
C      1  0.4400970000000  0.5232530000000  0.5529190000000 1.0
C      1  0.5047890000000  0.3959120000000  0.5277220000000 1.0
C      1  0.4879370000000  0.4053270000000  0.4730880000000 1.0
C      1  0.5140680000000  0.3979760000000  0.4678470000000 1.0
C      1  0.4798510000000  0.4053690000000  0.5285240000000 1.0
C      1  0.5529670000000  0.5036040000000  0.4794880000000 1.0
C      1  0.4491050000000  0.4980470000000  0.5125960000000 1.0
C      1  0.5655990000000  0.4963160000000  0.5239140000000 1.0
C      1  0.4478760000000  0.5090070000000  0.4803150000000 1.0
C      1  0.4518530000000  0.4233340000000  0.5340260000000 1.0
C      1  0.5393870000000  0.4201040000000  0.4685490000000 1.0
C      1  0.4619410000000  0.4270560000000  0.4661430000000 1.0
C      1  0.5425920000000  0.4274390000000  0.5331680000000 1.0
C      1  0.5243830000000  0.4138160000000  0.5184170000000 1.0
C      1  0.4856420000000  0.4352430000000  0.4891150000000 1.0
C      1  0.5191610000000  0.4285690000000  0.4930230000000 1.0
C      1  0.4780540000000  0.4364590000000  0.5185680000000 1.0
C      1  0.4571320000000  0.4336090000000  0.5628380000000 1.0
C      1  0.5400280000000  0.4408490000000  0.4428720000000 1.0
C      1  0.4670980000000  0.4412420000000  0.4392560000000 1.0
C      1  0.5376640000000  0.4346630000000  0.5593970000000 1.0
C      1  0.5050250000000  0.5697620000000  0.4286170000000 1.0
C      1  0.4718840000000  0.5615510000000  0.5677320000000 1.0
C      1  0.5247590000000  0.5625740000000  0.5640830000000 1.0
C      1  0.4729090000000  0.5727470000000  0.4377690000000 1.0
C      1  0.5211920000000  0.5664350000000  0.5157690000000 1.0
C      1  0.4649770000000  0.5911210000000  0.4921270000000 1.0
C      1  0.5209860000000  0.5814120000000  0.4864370000000 1.0
C      1  0.4705250000000  0.5822480000000  0.5184080000000 1.0
C      1  0.5013470000000  0.5036190000000  0.4613150000000 1.0
C      1  0.4947700000000  0.5099720000000  0.5432620000000 1.0
END
