TITL C-3289321-8710-664 0.000774659428981378 125000 -810.686072457838 0 0 143 (C1) n - 1
REM
REM in /nfs/bkarasulu/CARBON/AIRSS/Generating-Clusters/AIREBO/with-SteepDescent/Higher-Symm/SD-CG/HFTN-CG
REM
REM
REM
REM
REM
REM ./C.cell (b20cbc046b6831c77cfcea5457e17084)
REM
REM compiler GCC version 9.2.1 20190827 (Red Hat 9.2.1-1)
REM options -cpp -mtune=generic -march=x86-64 -g -O0 -fpre-include=/usr/include/finclude/math-vector-fortran.h
REM seed 1428503308 494683540 -1012567858 1117518255 1098741305 858993100 -1259496113 1373728930 -1890222819 -2003745084 1852563220 1732151182 -1615051537 373795812 391045888 -570201417 -1554362025 134309525 2130278080 326536631 1360147166 98029145 1587073821 1032254732 1565822764 -1609695772 -1606657052 1575347955 -78356635 -420928779 581076230 -428757384 297797571
REM
CELL 1.54180   50.00000   50.00000   50.00000   90.00000   90.00000   90.00000
LATT -1
SFAC C  
C      1  0.4433580000000  0.4820430000000  0.5919050000000 1.0
C      1  0.4961020000000  0.4370020000000  0.5909020000000 1.0
C      1  0.5451710000000  0.4777100000000  0.5803540000000 1.0
C      1  0.5399840000000  0.5408270000000  0.5858490000000 1.0
C      1  0.4682690000000  0.5446650000000  0.5893890000000 1.0
C      1  0.4477120000000  0.4813300000000  0.4164890000000 1.0
C      1  0.4985180000000  0.4360270000000  0.4076870000000 1.0
C      1  0.5551130000000  0.4795650000000  0.4075620000000 1.0
C      1  0.5415850000000  0.5489350000000  0.4100520000000 1.0
C      1  0.4753560000000  0.5447270000000  0.4177470000000 1.0
C      1  0.5700090000000  0.4696630000000  0.5365860000000 1.0
C      1  0.5544870000000  0.5634260000000  0.5413560000000 1.0
C      1  0.4544050000000  0.5747480000000  0.5395400000000 1.0
C      1  0.4144640000000  0.4818380000000  0.5423260000000 1.0
C      1  0.4920780000000  0.4109350000000  0.5423140000000 1.0
C      1  0.5799850000000  0.4648450000000  0.4576530000000 1.0
C      1  0.5602450000000  0.5711970000000  0.4582980000000 1.0
C      1  0.4516680000000  0.5837400000000  0.4594470000000 1.0
C      1  0.4117080000000  0.4814360000000  0.4598740000000 1.0
C      1  0.4912430000000  0.4076000000000  0.4582260000000 1.0
C      1  0.5494990000000  0.4632530000000  0.4839480000000 1.0
C      1  0.5563310000000  0.5337440000000  0.4809820000000 1.0
C      1  0.4744240000000  0.5635780000000  0.4853270000000 1.0
C      1  0.4384570000000  0.4991890000000  0.4848810000000 1.0
C      1  0.4877580000000  0.4411350000000  0.4850460000000 1.0
C      1  0.5434930000000  0.4547500000000  0.5109820000000 1.0
C      1  0.5532540000000  0.5387340000000  0.5104390000000 1.0
C      1  0.4862680000000  0.5633490000000  0.5123950000000 1.0
C      1  0.4495210000000  0.5054750000000  0.5164990000000 1.0
C      1  0.4846540000000  0.4485460000000  0.5156940000000 1.0
C      1  0.5155640000000  0.5903710000000  0.5148910000000 1.0
C      1  0.4141440000000  0.5455910000000  0.5192280000000 1.0
C      1  0.4386560000000  0.4442920000000  0.5139990000000 1.0
C      1  0.5372500000000  0.4156180000000  0.5125200000000 1.0
C      1  0.5974050000000  0.5151440000000  0.5158970000000 1.0
C      1  0.5163790000000  0.5849300000000  0.4856980000000 1.0
C      1  0.4177630000000  0.5475790000000  0.4891700000000 1.0
C      1  0.4360730000000  0.4385170000000  0.4848800000000 1.0
C      1  0.5421840000000  0.4127800000000  0.4826100000000 1.0
C      1  0.5927960000000  0.5118060000000  0.4855730000000 1.0
C      1  0.5164410000000  0.5192460000000  0.5386270000000 1.0
C      1  0.4926180000000  0.5364910000000  0.5260400000000 1.0
C      1  0.4769020000000  0.5082600000000  0.5366230000000 1.0
C      1  0.4878820000000  0.4772710000000  0.5279010000000 1.0
C      1  0.5183390000000  0.4898450000000  0.5307240000000 1.0
C      1  0.5187930000000  0.5045360000000  0.4643970000000 1.0
C      1  0.4910940000000  0.5143250000000  0.4776640000000 1.0
C      1  0.4816690000000  0.4935640000000  0.4558210000000 1.0
C      1  0.4949790000000  0.4653960000000  0.4686550000000 1.0
C      1  0.5257270000000  0.4742100000000  0.4701780000000 1.0
C      1  0.4952080000000  0.5487010000000  0.4424900000000 1.0
C      1  0.4351820000000  0.5057700000000  0.4313120000000 1.0
C      1  0.4704410000000  0.4244760000000  0.4150940000000 1.0
C      1  0.5574090000000  0.4493600000000  0.4165100000000 1.0
C      1  0.5688700000000  0.5397490000000  0.4156060000000 1.0
C      1  0.4823800000000  0.5704830000000  0.5849370000000 1.0
C      1  0.4219260000000  0.5045230000000  0.5861470000000 1.0
C      1  0.4701860000000  0.4240810000000  0.5812850000000 1.0
C      1  0.5499050000000  0.4499880000000  0.5827490000000 1.0
C      1  0.5684820000000  0.5381690000000  0.5883280000000 1.0
C      1  0.4544280000000  0.4988050000000  0.5585730000000 1.0
C      1  0.4904840000000  0.4695840000000  0.5609240000000 1.0
C      1  0.5361660000000  0.4673760000000  0.5389580000000 1.0
C      1  0.5429990000000  0.5313950000000  0.5400560000000 1.0
C      1  0.4778900000000  0.5523410000000  0.5496830000000 1.0
C      1  0.4517750000000  0.4898600000000  0.4553500000000 1.0
C      1  0.4848870000000  0.4583750000000  0.4378150000000 1.0
C      1  0.5308190000000  0.4734150000000  0.4382130000000 1.0
C      1  0.5387830000000  0.5262430000000  0.4585670000000 1.0
C      1  0.4792330000000  0.5401770000000  0.4668670000000 1.0
C      1  0.5825800000000  0.4478690000000  0.5136710000000 1.0
C      1  0.5783970000000  0.5686660000000  0.5165540000000 1.0
C      1  0.4617160000000  0.5949200000000  0.5131080000000 1.0
C      1  0.3997230000000  0.4963310000000  0.5153260000000 1.0
C      1  0.4734690000000  0.4017600000000  0.5153640000000 1.0
C      1  0.5850980000000  0.4452600000000  0.4850770000000 1.0
C      1  0.5797390000000  0.5656760000000  0.4856130000000 1.0
C      1  0.4643570000000  0.6021100000000  0.4852310000000 1.0
C      1  0.3985750000000  0.4974540000000  0.4869270000000 1.0
C      1  0.4746910000000  0.3999490000000  0.4870240000000 1.0
C      1  0.5401310000000  0.5633700000000  0.4819290000000 1.0
C      1  0.4424610000000  0.5689820000000  0.4874880000000 1.0
C      1  0.4255780000000  0.4682870000000  0.4854440000000 1.0
C      1  0.5106140000000  0.4163390000000  0.4830550000000 1.0
C      1  0.5746660000000  0.4835820000000  0.4840590000000 1.0
C      1  0.5386570000000  0.5691850000000  0.5144360000000 1.0
C      1  0.4323400000000  0.5695690000000  0.5183880000000 1.0
C      1  0.4339400000000  0.4763620000000  0.5173870000000 1.0
C      1  0.5063540000000  0.4240280000000  0.5159630000000 1.0
C      1  0.5841570000000  0.4875260000000  0.5151020000000 1.0
C      1  0.4209150000000  0.5187620000000  0.5296610000000 1.0
C      1  0.4607150000000  0.4306640000000  0.5282190000000 1.0
C      1  0.5577700000000  0.4314220000000  0.5303680000000 1.0
C      1  0.5817540000000  0.5371900000000  0.5289660000000 1.0
C      1  0.4892880000000  0.5916990000000  0.5302260000000 1.0
C      1  0.4172150000000  0.5221840000000  0.4743210000000 1.0
C      1  0.4599190000000  0.4269350000000  0.4725370000000 1.0
C      1  0.5570560000000  0.4345780000000  0.4690730000000 1.0
C      1  0.5853230000000  0.5364390000000  0.4682510000000 1.0
C      1  0.4900660000000  0.5883210000000  0.4691380000000 1.0
C      1  0.5482160000000  0.4379240000000  0.4399360000000 1.0
C      1  0.5735220000000  0.5260550000000  0.4390160000000 1.0
C      1  0.5104130000000  0.5784920000000  0.4467280000000 1.0
C      1  0.4225180000000  0.5278300000000  0.4440950000000 1.0
C      1  0.4599330000000  0.4273250000000  0.4398710000000 1.0
C      1  0.5481390000000  0.4345730000000  0.5582650000000 1.0
C      1  0.5845570000000  0.5349690000000  0.5627800000000 1.0
C      1  0.4850200000000  0.5923980000000  0.5607600000000 1.0
C      1  0.4208330000000  0.5187310000000  0.5628220000000 1.0
C      1  0.4587700000000  0.4340200000000  0.5588050000000 1.0
C      1  0.4854380000000  0.5183800000000  0.5916520000000 1.0
C      1  0.4769710000000  0.4856700000000  0.5877040000000 1.0
C      1  0.4998610000000  0.4638370000000  0.5990790000000 1.0
C      1  0.5165820000000  0.4909220000000  0.5870720000000 1.0
C      1  0.5189720000000  0.5237140000000  0.5942430000000 1.0
C      1  0.4905780000000  0.5156840000000  0.4086970000000 1.0
C      1  0.4814380000000  0.4823050000000  0.4134790000000 1.0
C      1  0.5119260000000  0.4674780000000  0.4105120000000 1.0
C      1  0.5264640000000  0.4981180000000  0.4079990000000 1.0
C      1  0.5210920000000  0.5302380000000  0.4020070000000 1.0
C      1  0.5614420000000  0.4888810000000  0.5610290000000 1.0
C      1  0.5339810000000  0.5601070000000  0.5663470000000 1.0
C      1  0.4463030000000  0.5622960000000  0.5703310000000 1.0
C      1  0.4262720000000  0.4713380000000  0.5645190000000 1.0
C      1  0.5061210000000  0.4190320000000  0.5645880000000 1.0
C      1  0.5750990000000  0.4798690000000  0.4350710000000 1.0
C      1  0.5406640000000  0.5755840000000  0.4310920000000 1.0
C      1  0.4579180000000  0.5622590000000  0.4412390000000 1.0
C      1  0.4236570000000  0.4684180000000  0.4369940000000 1.0
C      1  0.5042550000000  0.4149090000000  0.4337540000000 1.0
C      1  0.5153190000000  0.4437570000000  0.4422690000000 1.0
C      1  0.5506280000000  0.5009640000000  0.4407040000000 1.0
C      1  0.5268410000000  0.5490000000000  0.4470750000000 1.0
C      1  0.4498980000000  0.5344890000000  0.4547400000000 1.0
C      1  0.4528430000000  0.4575440000000  0.4478810000000 1.0
C      1  0.5174390000000  0.4491500000000  0.5594160000000 1.0
C      1  0.5622470000000  0.5154130000000  0.5560780000000 1.0
C      1  0.5062890000000  0.5661760000000  0.5622980000000 1.0
C      1  0.4507680000000  0.5324110000000  0.5547420000000 1.0
C      1  0.4581530000000  0.4650060000000  0.5591400000000 1.0
C      1  0.5063610000000  0.5045050000000  0.4347160000000 1.0
C      1  0.4990370000000  0.5082660000000  0.5632700000000 1.0
C      1  0.4911070000000  0.4976460000000  0.5008710000000 1.0
END
