TITL C-3289326-3776-365 0.000114844538968498 125000 -278.043124312941 0 0 50 (C1) n - 1
REM
REM in /nfs/bkarasulu/CARBON/AIRSS/Generating-Clusters/AIREBO/with-SteepDescent/Higher-Symm/SD-CG/HFTN-CG
REM
REM
REM
REM
REM
REM ./C.cell (b20cbc046b6831c77cfcea5457e17084)
REM
REM compiler GCC version 9.2.1 20190827 (Red Hat 9.2.1-1)
REM options -cpp -mtune=generic -march=x86-64 -g -O0 -fpre-include=/usr/include/finclude/math-vector-fortran.h
REM seed 152769562 -1936970187 -197348595 1745102846 491226318 1464254481 1439163883 -1325936176 1713316552 -238031069 810126475 1741053140 1812248213 -1560815588 -1795315982 -1051871736 1369003635 -1197708235 130162365 1904223523 459041972 -1225237224 -339039646 2145284319 1691930682 667617587 -1163094030 1879918281 1787160697 656477806 1129645987 -1050517509 175023701
REM
CELL 1.54180   50.00000   50.00000   50.00000   90.00000   90.00000   90.00000
LATT -1
SFAC C  
C      1  0.5265500000000  0.4377320000000  0.5156660000000 1.0
C      1  0.4881300000000  0.4475960000000  0.4872220000000 1.0
C      1  0.5194750000000  0.5605880000000  0.5108720000000 1.0
C      1  0.4977490000000  0.5618170000000  0.4775230000000 1.0
C      1  0.4976420000000  0.4463640000000  0.5174390000000 1.0
C      1  0.5202020000000  0.4381880000000  0.4858280000000 1.0
C      1  0.4872870000000  0.5595380000000  0.5094030000000 1.0
C      1  0.5291810000000  0.5622220000000  0.4831020000000 1.0
C      1  0.4638420000000  0.4531160000000  0.4560090000000 1.0
C      1  0.5440160000000  0.4523980000000  0.5581600000000 1.0
C      1  0.4541970000000  0.5610130000000  0.4606850000000 1.0
C      1  0.5308410000000  0.5540810000000  0.5584110000000 1.0
C      1  0.5366460000000  0.4478680000000  0.4396640000000 1.0
C      1  0.4617130000000  0.4384270000000  0.5389230000000 1.0
C      1  0.5394470000000  0.5425960000000  0.4410440000000 1.0
C      1  0.4592060000000  0.5581870000000  0.5378180000000 1.0
C      1  0.4811280000000  0.4725480000000  0.5315270000000 1.0
C      1  0.5283680000000  0.4897490000000  0.4603380000000 1.0
C      1  0.4752100000000  0.5285500000000  0.5163110000000 1.0
C      1  0.5149030000000  0.5156520000000  0.4703980000000 1.0
C      1  0.5194780000000  0.4832560000000  0.5310190000000 1.0
C      1  0.4835840000000  0.4793370000000  0.4787100000000 1.0
C      1  0.5182140000000  0.5116010000000  0.5444350000000 1.0
C      1  0.4795850000000  0.5330810000000  0.4768780000000 1.0
C      1  0.4517050000000  0.4838090000000  0.5272790000000 1.0
C      1  0.5496910000000  0.4788260000000  0.4811010000000 1.0
C      1  0.4494720000000  0.5092940000000  0.5171570000000 1.0
C      1  0.5440490000000  0.5143950000000  0.4875100000000 1.0
C      1  0.5484530000000  0.4831830000000  0.5127970000000 1.0
C      1  0.4525750000000  0.4872740000000  0.4803060000000 1.0
C      1  0.5404040000000  0.5153840000000  0.5202640000000 1.0
C      1  0.4507280000000  0.5187290000000  0.4855060000000 1.0
C      1  0.4819260000000  0.5486650000000  0.4473020000000 1.0
C      1  0.5080810000000  0.5344710000000  0.5555680000000 1.0
C      1  0.4908710000000  0.4642300000000  0.4510240000000 1.0
C      1  0.5147750000000  0.4600730000000  0.5515430000000 1.0
C      1  0.5115830000000  0.5370140000000  0.4493740000000 1.0
C      1  0.4838260000000  0.5425610000000  0.5453580000000 1.0
C      1  0.5167560000000  0.4703240000000  0.4436020000000 1.0
C      1  0.4865690000000  0.4497290000000  0.5550380000000 1.0
C      1  0.4475720000000  0.4548800000000  0.5192560000000 1.0
C      1  0.5394510000000  0.4505940000000  0.4699150000000 1.0
C      1  0.4546240000000  0.5619370000000  0.5082760000000 1.0
C      1  0.5446690000000  0.5423470000000  0.4711110000000 1.0
C      1  0.5462200000000  0.4538040000000  0.5277760000000 1.0
C      1  0.4547670000000  0.4539820000000  0.4887890000000 1.0
C      1  0.5353720000000  0.5467700000000  0.5290530000000 1.0
C      1  0.4446120000000  0.5504100000000  0.4847490000000 1.0
C      1  0.4959140000000  0.5130940000000  0.4961220000000 1.0
C      1  0.4987390000000  0.4847070000000  0.5068370000000 1.0
END
