TITL C-3289321-8710-593 0.000148782177009926 125000 -436.376080250167 0 0 76 (C1) n - 1
REM
REM in /nfs/bkarasulu/CARBON/AIRSS/Generating-Clusters/AIREBO/with-SteepDescent/Higher-Symm/SD-CG/HFTN-CG
REM
REM
REM
REM
REM
REM ./C.cell (b20cbc046b6831c77cfcea5457e17084)
REM
REM compiler GCC version 9.2.1 20190827 (Red Hat 9.2.1-1)
REM options -cpp -mtune=generic -march=x86-64 -g -O0 -fpre-include=/usr/include/finclude/math-vector-fortran.h
REM seed 705217217 1750947365 911358517 623741271 -644013211 1954084852 691353134 -952704242 1634515342 -1804224736 1573549710 -999058879 866064482 250938821 81472605 1190000419 -2019613226 1537550421 -1411466280 812008049 62001736 -107678033 -1506174063 130094593 989678859 1319160915 1787406421 -1715205675 674119479 -1451273143 2057844585 -1113662732 1090125651
REM
CELL 1.54180   50.00000   50.00000   50.00000   90.00000   90.00000   90.00000
LATT -1
SFAC C  
C      1  0.5323670000000  0.4268260000000  0.5211700000000 1.0
C      1  0.5310560000000  0.5552940000000  0.5533000000000 1.0
C      1  0.5308760000000  0.5188180000000  0.4259600000000 1.0
C      1  0.4701860000000  0.4271890000000  0.5221670000000 1.0
C      1  0.4706400000000  0.5560920000000  0.5535320000000 1.0
C      1  0.4697160000000  0.5184670000000  0.4270510000000 1.0
C      1  0.4219790000000  0.4755380000000  0.5098470000000 1.0
C      1  0.4252790000000  0.5202090000000  0.5119120000000 1.0
C      1  0.4283110000000  0.4990180000000  0.4859210000000 1.0
C      1  0.5765230000000  0.4651970000000  0.5201750000000 1.0
C      1  0.5758720000000  0.5331520000000  0.5218580000000 1.0
C      1  0.5761940000000  0.5031250000000  0.4602170000000 1.0
C      1  0.5126760000000  0.4983780000000  0.4681200000000 1.0
C      1  0.5112790000000  0.4727120000000  0.5205620000000 1.0
C      1  0.5136370000000  0.5284090000000  0.5129720000000 1.0
C      1  0.4823950000000  0.4967670000000  0.4710770000000 1.0
C      1  0.4810210000000  0.4765810000000  0.5182470000000 1.0
C      1  0.4830060000000  0.5281770000000  0.5126610000000 1.0
C      1  0.5732850000000  0.5411460000000  0.4894690000000 1.0
C      1  0.5741160000000  0.4719800000000  0.4717150000000 1.0
C      1  0.5731040000000  0.4892400000000  0.5421970000000 1.0
C      1  0.4311260000000  0.5477190000000  0.5006660000000 1.0
C      1  0.4289030000000  0.4766730000000  0.4617170000000 1.0
C      1  0.4305770000000  0.4805960000000  0.5361000000000 1.0
C      1  0.5263360000000  0.5039240000000  0.5573170000000 1.0
C      1  0.5269420000000  0.5500770000000  0.4676770000000 1.0
C      1  0.5275650000000  0.4420900000000  0.4693150000000 1.0
C      1  0.4725390000000  0.5039560000000  0.5619240000000 1.0
C      1  0.4730400000000  0.5523200000000  0.4675990000000 1.0
C      1  0.4741630000000  0.4458080000000  0.4724170000000 1.0
C      1  0.5236260000000  0.4651640000000  0.4911220000000 1.0
C      1  0.5235070000000  0.5017310000000  0.5280960000000 1.0
C      1  0.5232430000000  0.5255860000000  0.4830090000000 1.0
C      1  0.4718680000000  0.4738280000000  0.4889340000000 1.0
C      1  0.4724160000000  0.5044650000000  0.5292560000000 1.0
C      1  0.4733190000000  0.5236490000000  0.4834210000000 1.0
C      1  0.4517670000000  0.5304200000000  0.5625340000000 1.0
C      1  0.4517100000000  0.5387690000000  0.4457320000000 1.0
C      1  0.4528270000000  0.4298680000000  0.4938060000000 1.0
C      1  0.5482640000000  0.5283650000000  0.5650090000000 1.0
C      1  0.5482150000000  0.5430370000000  0.4425000000000 1.0
C      1  0.5490810000000  0.4343830000000  0.4929880000000 1.0
C      1  0.5691670000000  0.5166830000000  0.5435800000000 1.0
C      1  0.5690440000000  0.5299970000000  0.4642830000000 1.0
C      1  0.5700030000000  0.4562540000000  0.4945340000000 1.0
C      1  0.4413700000000  0.5097400000000  0.5375880000000 1.0
C      1  0.4422650000000  0.5285190000000  0.4768430000000 1.0
C      1  0.4410240000000  0.4612670000000  0.4880810000000 1.0
C      1  0.5279160000000  0.4512660000000  0.5382210000000 1.0
C      1  0.5281410000000  0.5554260000000  0.5234160000000 1.0
C      1  0.5278980000000  0.4927370000000  0.4409740000000 1.0
C      1  0.4724740000000  0.4525370000000  0.5380270000000 1.0
C      1  0.4743890000000  0.5575550000000  0.5237830000000 1.0
C      1  0.4733580000000  0.4917830000000  0.4403410000000 1.0
C      1  0.4840030000000  0.4490420000000  0.4454700000000 1.0
C      1  0.4844980000000  0.4796250000000  0.5723080000000 1.0
C      1  0.4851030000000  0.5737870000000  0.4830050000000 1.0
C      1  0.5153860000000  0.4466230000000  0.4437240000000 1.0
C      1  0.5161900000000  0.4798560000000  0.5706600000000 1.0
C      1  0.5168360000000  0.5734750000000  0.4820600000000 1.0
C      1  0.4441500000000  0.4606810000000  0.5491140000000 1.0
C      1  0.4467330000000  0.5664950000000  0.5120740000000 1.0
C      1  0.4449490000000  0.4782060000000  0.4394020000000 1.0
C      1  0.5558620000000  0.4615110000000  0.5448990000000 1.0
C      1  0.5561970000000  0.5566850000000  0.5122700000000 1.0
C      1  0.5558700000000  0.4823610000000  0.4464320000000 1.0
C      1  0.5139770000000  0.5317330000000  0.5678020000000 1.0
C      1  0.5137420000000  0.5435220000000  0.4391010000000 1.0
C      1  0.5161600000000  0.4214010000000  0.4928620000000 1.0
C      1  0.4852440000000  0.5326360000000  0.5722350000000 1.0
C      1  0.4846790000000  0.5466860000000  0.4369990000000 1.0
C      1  0.4871470000000  0.4248000000000  0.4935610000000 1.0
C      1  0.4997090000000  0.4537250000000  0.5563760000000 1.0
C      1  0.5012520000000  0.4753450000000  0.4324720000000 1.0
C      1  0.5018210000000  0.5717530000000  0.5125420000000 1.0
C      1  0.5311660000000  0.4967490000000  0.4961980000000 1.0
END
