TITL C-3289326-3776-7 -1.4510764314645e-07 125000 -43.4900496495236 0 0 8 (D(inf)h) n - 1
REM
REM in /nfs/bkarasulu/CARBON/AIRSS/Generating-Clusters/AIREBO/with-SteepDescent/Higher-Symm/SD-CG/HFTN-CG
REM
REM
REM
REM
REM
REM ./C.cell (b20cbc046b6831c77cfcea5457e17084)
REM
REM compiler GCC version 9.2.1 20190827 (Red Hat 9.2.1-1)
REM options -cpp -mtune=generic -march=x86-64 -g -O0 -fpre-include=/usr/include/finclude/math-vector-fortran.h
REM seed -821665800 -749957650 -1052692842 1006097340 25615995 -946246678 -694484842 -1628207747 -568250517 -1387359403 -1730813083 -727898274 -716245950 1901943336 1100468396 246032230 1924192605 1856859035 1930983044 -1815784509 1300333360 -147029257 1720012167 892380049 -651040311 243966266 -1975266134 -1597034240 -669611006 1389588699 -1372074150 -554738044 171433734
REM
CELL 1.54180   50.00000   50.00000   50.00000   90.00000   90.00000   90.00000
LATT -1
SFAC C  
C      1  0.4072180000000  0.5001880000000  0.5017560000000 1.0
C      1  0.5133150000000  0.5001880000000  0.5017560000000 1.0
C      1  0.5399450000000  0.5001880000000  0.5017560000000 1.0
C      1  0.5927820000000  0.5001880000000  0.5017560000000 1.0
C      1  0.4600550000000  0.5001880000000  0.5017560000000 1.0
C      1  0.4866850000000  0.5001880000000  0.5017560000000 1.0
C      1  0.5665750000000  0.5001880000000  0.5017560000000 1.0
C      1  0.4334250000000  0.5001880000000  0.5017560000000 1.0
END
