TITL C-3289333-7213-115 0.00147177622534298 125000 -1055.13816754761 0 0 193 (C1) n - 1
REM
REM in /nfs/bkarasulu/CARBON/AIRSS/Generating-Clusters/AIREBO/with-SteepDescent/Higher-Symm/SD-CG/HFTN-CG
REM
REM
REM
REM
REM
REM ./C.cell (b20cbc046b6831c77cfcea5457e17084)
REM
REM compiler GCC version 9.2.1 20190827 (Red Hat 9.2.1-1)
REM options -cpp -mtune=generic -march=x86-64 -g -O0 -fpre-include=/usr/include/finclude/math-vector-fortran.h
REM seed 1748251034 159825747 1005979453 182554207 1675622376 -147613704 230370101 1712272933 1741626114 -1443679580 -55486628 -1153214999 609924035 -262165540 1687455513 -1323975916 2061742349 -1469920742 -1685833022 1814538446 -1429996194 616905218 -1608399267 17604728 -652160711 1047477046 -408047752 397839239 -54176834 -1819031356 -1284269459 -456989571 1550494400
REM
CELL 1.54180   50.00000   50.00000   50.00000   90.00000   90.00000   90.00000
LATT -1
SFAC C  
C      1  0.5416990000000  0.5520970000000  0.5899000000000 1.0
C      1  0.4889450000000  0.5629910000000  0.5981390000000 1.0
C      1  0.4218010000000  0.5448320000000  0.5918980000000 1.0
C      1  0.4367960000000  0.4780130000000  0.5834610000000 1.0
C      1  0.4770240000000  0.4351710000000  0.5836110000000 1.0
C      1  0.5456410000000  0.4368910000000  0.5866070000000 1.0
C      1  0.5603320000000  0.5030910000000  0.5903330000000 1.0
C      1  0.5800060000000  0.4323960000000  0.4452090000000 1.0
C      1  0.6146020000000  0.5407190000000  0.4686150000000 1.0
C      1  0.5586440000000  0.5969250000000  0.4573950000000 1.0
C      1  0.4930400000000  0.6175350000000  0.4573490000000 1.0
C      1  0.4138110000000  0.5478080000000  0.4536600000000 1.0
C      1  0.4140450000000  0.4254470000000  0.4571760000000 1.0
C      1  0.4673760000000  0.3996630000000  0.4565280000000 1.0
C      1  0.4648240000000  0.5397710000000  0.4213020000000 1.0
C      1  0.4445290000000  0.4953520000000  0.4219660000000 1.0
C      1  0.4482430000000  0.4437310000000  0.4279800000000 1.0
C      1  0.5112910000000  0.4375420000000  0.4277500000000 1.0
C      1  0.5703860000000  0.4807050000000  0.4063340000000 1.0
C      1  0.5515130000000  0.5275270000000  0.4110610000000 1.0
C      1  0.5011460000000  0.5306280000000  0.3984990000000 1.0
C      1  0.5756000000000  0.5144070000000  0.4422380000000 1.0
C      1  0.5422520000000  0.5591180000000  0.4334290000000 1.0
C      1  0.4910370000000  0.5709950000000  0.4347960000000 1.0
C      1  0.4351460000000  0.5178670000000  0.4387010000000 1.0
C      1  0.4503650000000  0.4711690000000  0.4408340000000 1.0
C      1  0.4818600000000  0.4440380000000  0.4539660000000 1.0
C      1  0.5499780000000  0.4579260000000  0.4500850000000 1.0
C      1  0.5794810000000  0.5283790000000  0.4960560000000 1.0
C      1  0.5353020000000  0.5754490000000  0.4909720000000 1.0
C      1  0.4828880000000  0.5782850000000  0.4884770000000 1.0
C      1  0.4220670000000  0.5304080000000  0.4913180000000 1.0
C      1  0.4323260000000  0.4594370000000  0.4930550000000 1.0
C      1  0.5027040000000  0.4215390000000  0.4998350000000 1.0
C      1  0.5632640000000  0.4526280000000  0.4873580000000 1.0
C      1  0.5218140000000  0.5283200000000  0.5452490000000 1.0
C      1  0.4908040000000  0.5291490000000  0.5521780000000 1.0
C      1  0.4944300000000  0.5001210000000  0.5385060000000 1.0
C      1  0.4647010000000  0.4839470000000  0.5417860000000 1.0
C      1  0.5113180000000  0.5056960000000  0.5139960000000 1.0
C      1  0.5088080000000  0.4722990000000  0.5485060000000 1.0
C      1  0.5357840000000  0.4992940000000  0.5484990000000 1.0
C      1  0.5242000000000  0.4352590000000  0.5223860000000 1.0
C      1  0.5652440000000  0.4662260000000  0.5159130000000 1.0
C      1  0.5591550000000  0.5368210000000  0.5205990000000 1.0
C      1  0.5203420000000  0.5740160000000  0.5185050000000 1.0
C      1  0.4504050000000  0.5524120000000  0.5321610000000 1.0
C      1  0.4325990000000  0.5142530000000  0.5153640000000 1.0
C      1  0.4720850000000  0.4379550000000  0.5288070000000 1.0
C      1  0.5941300000000  0.4812510000000  0.4547420000000 1.0
C      1  0.5749310000000  0.5687940000000  0.4539750000000 1.0
C      1  0.5063970000000  0.6157690000000  0.4127810000000 1.0
C      1  0.4426640000000  0.5853280000000  0.4610160000000 1.0
C      1  0.3974870000000  0.5026490000000  0.4766670000000 1.0
C      1  0.4483610000000  0.3850470000000  0.4737010000000 1.0
C      1  0.5264320000000  0.4056070000000  0.4658550000000 1.0
C      1  0.5715700000000  0.5499670000000  0.4245590000000 1.0
C      1  0.5128470000000  0.5942510000000  0.4282310000000 1.0
C      1  0.4336470000000  0.5495570000000  0.4280810000000 1.0
C      1  0.4030680000000  0.4325720000000  0.4107680000000 1.0
C      1  0.4695580000000  0.4204710000000  0.4375000000000 1.0
C      1  0.5594500000000  0.4178980000000  0.4335990000000 1.0
C      1  0.5897760000000  0.4983440000000  0.4193040000000 1.0
C      1  0.5642070000000  0.4291370000000  0.5617290000000 1.0
C      1  0.5832410000000  0.5053920000000  0.5684130000000 1.0
C      1  0.5488960000000  0.5754440000000  0.5662350000000 1.0
C      1  0.4755690000000  0.5738810000000  0.5761740000000 1.0
C      1  0.4067590000000  0.5393710000000  0.5630180000000 1.0
C      1  0.4230150000000  0.4573360000000  0.5652390000000 1.0
C      1  0.4818830000000  0.4121550000000  0.5599310000000 1.0
C      1  0.5172820000000  0.3877940000000  0.4841230000000 1.0
C      1  0.5854130000000  0.4315410000000  0.4776560000000 1.0
C      1  0.6075600000000  0.5426860000000  0.5003240000000 1.0
C      1  0.5521020000000  0.6011350000000  0.4853950000000 1.0
C      1  0.4564390000000  0.5973500000000  0.4846890000000 1.0
C      1  0.3899740000000  0.5248000000000  0.5002440000000 1.0
C      1  0.4209860000000  0.4278680000000  0.4874480000000 1.0
C      1  0.4787260000000  0.4866690000000  0.4491000000000 1.0
C      1  0.5128310000000  0.5037340000000  0.4252140000000 1.0
C      1  0.5045420000000  0.4669050000000  0.4431110000000 1.0
C      1  0.5307210000000  0.4804480000000  0.4521770000000 1.0
C      1  0.5421850000000  0.5092510000000  0.4381810000000 1.0
C      1  0.5037160000000  0.5424170000000  0.4293880000000 1.0
C      1  0.4846550000000  0.5144560000000  0.4327430000000 1.0
C      1  0.4604080000000  0.4449130000000  0.4805160000000 1.0
C      1  0.5082640000000  0.4399390000000  0.4749520000000 1.0
C      1  0.5723080000000  0.4804480000000  0.4792440000000 1.0
C      1  0.5531650000000  0.5320560000000  0.4748310000000 1.0
C      1  0.5152440000000  0.5596050000000  0.4742680000000 1.0
C      1  0.4598400000000  0.5576520000000  0.4841970000000 1.0
C      1  0.4426890000000  0.5145650000000  0.4709270000000 1.0
C      1  0.5505100000000  0.4973440000000  0.3954120000000 1.0
C      1  0.5260470000000  0.5204120000000  0.3907700000000 1.0
C      1  0.4730930000000  0.5210860000000  0.3951810000000 1.0
C      1  0.4599580000000  0.4961050000000  0.3985190000000 1.0
C      1  0.4638420000000  0.4701500000000  0.3875710000000 1.0
C      1  0.4679890000000  0.4465230000000  0.4029030000000 1.0
C      1  0.4931530000000  0.4343230000000  0.4062620000000 1.0
C      1  0.5017670000000  0.4349250000000  0.5449260000000 1.0
C      1  0.5525900000000  0.4477470000000  0.5363320000000 1.0
C      1  0.5608280000000  0.5200180000000  0.5474410000000 1.0
C      1  0.5329730000000  0.5592950000000  0.5422950000000 1.0
C      1  0.4770950000000  0.5565280000000  0.5469730000000 1.0
C      1  0.4296790000000  0.5302780000000  0.5400730000000 1.0
C      1  0.4500560000000  0.4604090000000  0.5220790000000 1.0
C      1  0.5846740000000  0.5509640000000  0.5576920000000 1.0
C      1  0.5091360000000  0.5920390000000  0.5646510000000 1.0
C      1  0.4382450000000  0.5632250000000  0.5685950000000 1.0
C      1  0.4095110000000  0.4961460000000  0.5488040000000 1.0
C      1  0.4376320000000  0.4169480000000  0.5432110000000 1.0
C      1  0.5293450000000  0.3975100000000  0.5618230000000 1.0
C      1  0.5913050000000  0.4584260000000  0.5516680000000 1.0
C      1  0.4552690000000  0.5420720000000  0.5891060000000 1.0
C      1  0.4281670000000  0.5133940000000  0.5680860000000 1.0
C      1  0.4427060000000  0.4344950000000  0.5637570000000 1.0
C      1  0.5122130000000  0.4209830000000  0.5723590000000 1.0
C      1  0.5631890000000  0.4642290000000  0.5641190000000 1.0
C      1  0.5637320000000  0.5396010000000  0.5750850000000 1.0
C      1  0.5118920000000  0.5610120000000  0.5658600000000 1.0
C      1  0.4194280000000  0.4286870000000  0.5271110000000 1.0
C      1  0.5170830000000  0.3823400000000  0.5342120000000 1.0
C      1  0.5917570000000  0.4373810000000  0.5311880000000 1.0
C      1  0.6052430000000  0.5342610000000  0.5517270000000 1.0
C      1  0.5235320000000  0.6066350000000  0.5414060000000 1.0
C      1  0.4501390000000  0.5944060000000  0.5269250000000 1.0
C      1  0.3841420000000  0.4939890000000  0.5394410000000 1.0
C      1  0.4117520000000  0.4589330000000  0.5349110000000 1.0
C      1  0.4843270000000  0.3877160000000  0.5378480000000 1.0
C      1  0.5709100000000  0.4125470000000  0.5327100000000 1.0
C      1  0.6010330000000  0.5028120000000  0.5395060000000 1.0
C      1  0.5531270000000  0.5934850000000  0.5376970000000 1.0
C      1  0.4539000000000  0.5881730000000  0.5542100000000 1.0
C      1  0.3929190000000  0.5566100000000  0.5401200000000 1.0
C      1  0.4918590000000  0.4642290000000  0.5201490000000 1.0
C      1  0.5215040000000  0.4653490000000  0.5067870000000 1.0
C      1  0.5412250000000  0.4898550000000  0.5172740000000 1.0
C      1  0.5262440000000  0.5340340000000  0.5124450000000 1.0
C      1  0.4990430000000  0.5522980000000  0.5033130000000 1.0
C      1  0.4721560000000  0.5344230000000  0.5141030000000 1.0
C      1  0.4625990000000  0.5017880000000  0.5128900000000 1.0
C      1  0.4704420000000  0.6093200000000  0.5105600000000 1.0
C      1  0.3791290000000  0.5467060000000  0.5188150000000 1.0
C      1  0.3984480000000  0.4437170000000  0.5073710000000 1.0
C      1  0.4906870000000  0.3901970000000  0.5052360000000 1.0
C      1  0.5875000000000  0.4092880000000  0.5032120000000 1.0
C      1  0.6184440000000  0.5277140000000  0.5239710000000 1.0
C      1  0.5609310000000  0.6102840000000  0.5099240000000 1.0
C      1  0.3826810000000  0.4955190000000  0.5121780000000 1.0
C      1  0.4409400000000  0.4054290000000  0.4986940000000 1.0
C      1  0.5247780000000  0.3697230000000  0.5062500000000 1.0
C      1  0.5989230000000  0.4475690000000  0.5044370000000 1.0
C      1  0.5852680000000  0.5663410000000  0.5056540000000 1.0
C      1  0.4963130000000  0.6124670000000  0.5247430000000 1.0
C      1  0.4287540000000  0.5802850000000  0.5100290000000 1.0
C      1  0.5640640000000  0.5630500000000  0.4836000000000 1.0
C      1  0.4902620000000  0.5916730000000  0.4609990000000 1.0
C      1  0.4276180000000  0.5623760000000  0.4811180000000 1.0
C      1  0.4007420000000  0.4733520000000  0.4937700000000 1.0
C      1  0.4718520000000  0.4141680000000  0.4875400000000 1.0
C      1  0.5401380000000  0.4363520000000  0.4707300000000 1.0
C      1  0.5860830000000  0.5094400000000  0.4722470000000 1.0
C      1  0.5387080000000  0.4816170000000  0.5752440000000 1.0
C      1  0.5260190000000  0.5076200000000  0.5931480000000 1.0
C      1  0.5107640000000  0.5379380000000  0.5908170000000 1.0
C      1  0.4816370000000  0.5219130000000  0.5824420000000 1.0
C      1  0.4574500000000  0.5014500000000  0.5700330000000 1.0
C      1  0.4896170000000  0.4669610000000  0.5882670000000 1.0
C      1  0.5185170000000  0.4542490000000  0.5756500000000 1.0
C      1  0.5380280000000  0.5865020000000  0.4381180000000 1.0
C      1  0.4581610000000  0.5693040000000  0.4378670000000 1.0
C      1  0.4061920000000  0.5168340000000  0.4547800000000 1.0
C      1  0.4205250000000  0.4323410000000  0.4318800000000 1.0
C      1  0.5305720000000  0.4175300000000  0.4370250000000 1.0
C      1  0.5774190000000  0.4637500000000  0.4349590000000 1.0
C      1  0.5935340000000  0.5424000000000  0.4493870000000 1.0
C      1  0.5246500000000  0.4874110000000  0.4810770000000 1.0
C      1  0.5503490000000  0.5026480000000  0.4881400000000 1.0
C      1  0.5275170000000  0.5361940000000  0.4528790000000 1.0
C      1  0.4983400000000  0.5304310000000  0.4698830000000 1.0
C      1  0.4686310000000  0.5292700000000  0.4809250000000 1.0
C      1  0.4737850000000  0.4897070000000  0.4829680000000 1.0
C      1  0.4860110000000  0.4610860000000  0.4895880000000 1.0
C      1  0.4614840000000  0.4082050000000  0.5256610000000 1.0
C      1  0.5404550000000  0.4069370000000  0.5318590000000 1.0
C      1  0.5957610000000  0.4763890000000  0.5234070000000 1.0
C      1  0.5714390000000  0.5660400000000  0.5340380000000 1.0
C      1  0.4938720000000  0.5807130000000  0.5364190000000 1.0
C      1  0.4218170000000  0.5692400000000  0.5397100000000 1.0
C      1  0.4284710000000  0.4848270000000  0.5249800000000 1.0
C      1  0.4430390000000  0.4821510000000  0.4707960000000 1.0
C      1  0.4625790000000  0.4618670000000  0.5682700000000 1.0
C      1  0.5002140000000  0.5051280000000  0.4852390000000 1.0
C      1  0.4953950000000  0.4949090000000  0.5978550000000 1.0
END
