TITL C-3289333-7213-7 0.00366104413912907 125000 -582.070172061707 0 0 103 (C1) n - 1
REM
REM in /nfs/bkarasulu/CARBON/AIRSS/Generating-Clusters/AIREBO/with-SteepDescent/Higher-Symm/SD-CG/HFTN-CG
REM
REM
REM
REM
REM
REM ./C.cell (b20cbc046b6831c77cfcea5457e17084)
REM
REM compiler GCC version 9.2.1 20190827 (Red Hat 9.2.1-1)
REM options -cpp -mtune=generic -march=x86-64 -g -O0 -fpre-include=/usr/include/finclude/math-vector-fortran.h
REM seed 343447213 1202197449 446838008 -154920163 1268429322 1292214396 -1384734729 -374863454 -511905863 827585041 -1794319940 -1825067654 831586100 -1134882023 8350050 227644017 1647547261 1149179721 -1231065152 799983154 -1715334335 -279294435 1857355840 -729630127 975850980 -1625801980 430241754 562254887 -1602697586 -1363314528 1289578339 1083745381 -381590795
REM
CELL 1.54180   50.00000   50.00000   50.00000   90.00000   90.00000   90.00000
LATT -1
SFAC C  
C      1  0.5315900000000  0.4857760000000  0.5318940000000 1.0
C      1  0.5317290000000  0.5180080000000  0.5432080000000 1.0
C      1  0.5116760000000  0.5363840000000  0.5279920000000 1.0
C      1  0.4812110000000  0.5239680000000  0.5260690000000 1.0
C      1  0.4646980000000  0.5003230000000  0.5440920000000 1.0
C      1  0.4789800000000  0.4725770000000  0.5302930000000 1.0
C      1  0.5092660000000  0.4612770000000  0.5410710000000 1.0
C      1  0.5688830000000  0.4754620000000  0.5418430000000 1.0
C      1  0.5600330000000  0.5324570000000  0.5430680000000 1.0
C      1  0.5159370000000  0.5676230000000  0.5378710000000 1.0
C      1  0.4654660000000  0.5595070000000  0.5352530000000 1.0
C      1  0.4327940000000  0.5091840000000  0.5442850000000 1.0
C      1  0.4425920000000  0.4541810000000  0.5409630000000 1.0
C      1  0.4911060000000  0.4350310000000  0.5347540000000 1.0
C      1  0.4394460000000  0.4571560000000  0.5133660000000 1.0
C      1  0.4930520000000  0.4279790000000  0.5081850000000 1.0
C      1  0.5543160000000  0.4526290000000  0.5212530000000 1.0
C      1  0.5790400000000  0.5236420000000  0.5178060000000 1.0
C      1  0.5427750000000  0.5772790000000  0.5206110000000 1.0
C      1  0.4710200000000  0.5680220000000  0.5073670000000 1.0
C      1  0.4312800000000  0.5204730000000  0.5122480000000 1.0
C      1  0.4253480000000  0.5269790000000  0.4569400000000 1.0
C      1  0.4364550000000  0.4539470000000  0.4537130000000 1.0
C      1  0.4894640000000  0.4206900000000  0.4546140000000 1.0
C      1  0.5608020000000  0.4494310000000  0.4598930000000 1.0
C      1  0.5789580000000  0.5078640000000  0.4530590000000 1.0
C      1  0.5327250000000  0.5667830000000  0.4492380000000 1.0
C      1  0.4740270000000  0.5711660000000  0.4527540000000 1.0
C      1  0.5269990000000  0.4952860000000  0.5862680000000 1.0
C      1  0.5293120000000  0.5245770000000  0.5744980000000 1.0
C      1  0.5001120000000  0.5313620000000  0.5822040000000 1.0
C      1  0.4831970000000  0.5061420000000  0.5878040000000 1.0
C      1  0.4532630000000  0.4954320000000  0.5757470000000 1.0
C      1  0.4968240000000  0.4686640000000  0.5782660000000 1.0
C      1  0.5226160000000  0.4482910000000  0.5695240000000 1.0
C      1  0.4637610000000  0.5358390000000  0.4187540000000 1.0
C      1  0.4568140000000  0.5048910000000  0.4168120000000 1.0
C      1  0.4615300000000  0.4789690000000  0.4170130000000 1.0
C      1  0.5070820000000  0.4517710000000  0.4178690000000 1.0
C      1  0.5306820000000  0.4600390000000  0.4180700000000 1.0
C      1  0.5436380000000  0.5139780000000  0.4170910000000 1.0
C      1  0.5270020000000  0.5348700000000  0.4133900000000 1.0
C      1  0.4360840000000  0.5489490000000  0.4976530000000 1.0
C      1  0.4220440000000  0.4716710000000  0.4984970000000 1.0
C      1  0.4674660000000  0.4259640000000  0.4951940000000 1.0
C      1  0.5443320000000  0.4316300000000  0.5039130000000 1.0
C      1  0.5725890000000  0.4980450000000  0.4978000000000 1.0
C      1  0.5437440000000  0.5638440000000  0.4952090000000 1.0
C      1  0.4947460000000  0.5740610000000  0.4947720000000 1.0
C      1  0.4698120000000  0.4669640000000  0.5842350000000 1.0
C      1  0.5180560000000  0.4212600000000  0.5774700000000 1.0
C      1  0.5345530000000  0.4700530000000  0.5927460000000 1.0
C      1  0.5489170000000  0.5411630000000  0.5855340000000 1.0
C      1  0.4896290000000  0.5556020000000  0.5777810000000 1.0
C      1  0.4872870000000  0.4955970000000  0.6160910000000 1.0
C      1  0.4338810000000  0.5097250000000  0.5919350000000 1.0
C      1  0.5848420000000  0.4606260000000  0.4672620000000 1.0
C      1  0.5814210000000  0.5354200000000  0.4540890000000 1.0
C      1  0.5189020000000  0.5899850000000  0.4574490000000 1.0
C      1  0.4456060000000  0.5712490000000  0.4561820000000 1.0
C      1  0.4099870000000  0.5039620000000  0.4592620000000 1.0
C      1  0.4396270000000  0.4264510000000  0.4569880000000 1.0
C      1  0.5147770000000  0.4114110000000  0.4605400000000 1.0
C      1  0.5417770000000  0.4287710000000  0.4715190000000 1.0
C      1  0.5865810000000  0.4887500000000  0.4728900000000 1.0
C      1  0.5563100000000  0.5544800000000  0.4668360000000 1.0
C      1  0.4933960000000  0.5847290000000  0.4689640000000 1.0
C      1  0.4294340000000  0.5520270000000  0.4704430000000 1.0
C      1  0.4202760000000  0.4750560000000  0.4671020000000 1.0
C      1  0.4645730000000  0.4177390000000  0.4687940000000 1.0
C      1  0.4592930000000  0.5006370000000  0.4718730000000 1.0
C      1  0.4749620000000  0.4729210000000  0.4753080000000 1.0
C      1  0.5074140000000  0.4646490000000  0.4693960000000 1.0
C      1  0.5379200000000  0.4787850000000  0.4745280000000 1.0
C      1  0.5402500000000  0.5126840000000  0.4732720000000 1.0
C      1  0.5121150000000  0.5265140000000  0.4814610000000 1.0
C      1  0.4787560000000  0.5270520000000  0.4746280000000 1.0
C      1  0.5155800000000  0.5517310000000  0.4986430000000 1.0
C      1  0.4665570000000  0.5364720000000  0.5025030000000 1.0
C      1  0.4338240000000  0.4997670000000  0.4912390000000 1.0
C      1  0.4681670000000  0.4585280000000  0.5015310000000 1.0
C      1  0.5145760000000  0.4384300000000  0.4900270000000 1.0
C      1  0.5487940000000  0.4806790000000  0.5056720000000 1.0
C      1  0.5635150000000  0.5299130000000  0.4892410000000 1.0
C      1  0.4878940000000  0.5655460000000  0.5518300000000 1.0
C      1  0.4459730000000  0.5395810000000  0.5366300000000 1.0
C      1  0.4341760000000  0.4766750000000  0.5547680000000 1.0
C      1  0.4645550000000  0.4360690000000  0.5467300000000 1.0
C      1  0.5521080000000  0.4512120000000  0.5544750000000 1.0
C      1  0.5743300000000  0.5016040000000  0.5430800000000 1.0
C      1  0.5508780000000  0.5615770000000  0.5459940000000 1.0
C      1  0.4521960000000  0.5188620000000  0.4458860000000 1.0
C      1  0.4634630000000  0.4645080000000  0.4442550000000 1.0
C      1  0.4914600000000  0.4487520000000  0.4439250000000 1.0
C      1  0.5452740000000  0.4696270000000  0.4425630000000 1.0
C      1  0.5507530000000  0.5002510000000  0.4434160000000 1.0
C      1  0.5161460000000  0.5502510000000  0.4337830000000 1.0
C      1  0.4850480000000  0.5416430000000  0.4445560000000 1.0
C      1  0.5033040000000  0.4970340000000  0.5619410000000 1.0
C      1  0.4953490000000  0.5100250000000  0.4374500000000 1.0
C      1  0.5043230000000  0.4981500000000  0.4644050000000 1.0
C      1  0.5009640000000  0.4978930000000  0.5279920000000 1.0
C      1  0.5030180000000  0.4919510000000  0.4978120000000 1.0
END
