TITL C-3289324-3781-764 227.822752761464 125000 -637.613718049899 0 0 121 (C1) n - 1
REM
REM in /nfs/bkarasulu/CARBON/AIRSS/Generating-Clusters/AIREBO/with-SteepDescent/Higher-Symm/SD-CG/HFTN-CG
REM
REM
REM
REM
REM
REM ./C.cell (b20cbc046b6831c77cfcea5457e17084)
REM
REM compiler GCC version 9.2.1 20190827 (Red Hat 9.2.1-1)
REM options -cpp -mtune=generic -march=x86-64 -g -O0 -fpre-include=/usr/include/finclude/math-vector-fortran.h
REM seed 453785357 -110453718 -1271847006 876432581 -1949619222 -356813605 -2117089716 2092102877 -478588530 -480243877 1337322853 1013358686 -278932207 -1328211194 -1427728093 -2090787869 1654702045 -5074411 -1099583400 1626893694 143355226 527582517 -1966550476 165632138 870005184 1914841793 -1580815475 579822892 -1948524597 -912251200 60388020 2104493702 1293826766
REM
CELL 1.54180   50.00000   50.00000   50.00000   90.00000   90.00000   90.00000
LATT -1
SFAC C  
C      1  0.4643760000000  0.5716480000000  0.4858230000000 1.0
C      1  0.4699150000000  0.4202280000000  0.4862310000000 1.0
C      1  0.4665880000000  0.5257330000000  0.5842890000000 1.0
C      1  0.4689630000000  0.4734000000000  0.5843390000000 1.0
C      1  0.4468320000000  0.5414900000000  0.5621040000000 1.0
C      1  0.4494690000000  0.4605560000000  0.5601890000000 1.0
C      1  0.4874110000000  0.5829350000000  0.5442040000000 1.0
C      1  0.4919040000000  0.4203050000000  0.5434900000000 1.0
C      1  0.4557510000000  0.4694770000000  0.4748000000000 1.0
C      1  0.4559490000000  0.5330680000000  0.4780270000000 1.0
C      1  0.5517770000000  0.5332960000000  0.4471900000000 1.0
C      1  0.5509220000000  0.4677470000000  0.4410640000000 1.0
C      1  0.4882480000000  0.5515550000000  0.5195520000000 1.0
C      1  0.4889720000000  0.4537310000000  0.5192350000000 1.0
C      1  0.4993760000000  0.4712490000000  0.5713810000000 1.0
C      1  0.4969620000000  0.5279490000000  0.5745500000000 1.0
C      1  0.5346770000000  0.5823800000000  0.5364380000000 1.0
C      1  0.5362740000000  0.4207320000000  0.5262950000000 1.0
C      1  0.5499320000000  0.4722910000000  0.5694030000000 1.0
C      1  0.5371580000000  0.5294010000000  0.5685780000000 1.0
C      1  0.5188400000000  0.5664090000000  0.4244800000000 1.0
C      1  0.5253680000000  0.4462800000000  0.4190820000000 1.0
C      1  0.4502570000000  0.4501840000000  0.5286280000000 1.0
C      1  0.4449410000000  0.5514210000000  0.5310790000000 1.0
C      1  0.4942270000000  0.5752000000000  0.4699390000000 1.0
C      1  0.4965140000000  0.4208530000000  0.4650500000000 1.0
C      1  0.5165420000000  0.4753650000000  0.4178030000000 1.0
C      1  0.5101370000000  0.5425470000000  0.4158920000000 1.0
C      1  0.4590250000000  0.5677100000000  0.4524650000000 1.0
C      1  0.4595600000000  0.4321630000000  0.4556080000000 1.0
C      1  0.5428310000000  0.4506090000000  0.4803940000000 1.0
C      1  0.5514640000000  0.5581630000000  0.4923670000000 1.0
C      1  0.5189660000000  0.5708770000000  0.4512690000000 1.0
C      1  0.5178190000000  0.4316400000000  0.4443680000000 1.0
C      1  0.4788760000000  0.4712490000000  0.5465720000000 1.0
C      1  0.4777900000000  0.5364210000000  0.5481570000000 1.0
C      1  0.4841410000000  0.4524440000000  0.4674650000000 1.0
C      1  0.4819210000000  0.5443920000000  0.4624450000000 1.0
C      1  0.5136960000000  0.5320000000000  0.5147050000000 1.0
C      1  0.5151510000000  0.4753340000000  0.5171230000000 1.0
C      1  0.5083400000000  0.5351670000000  0.4817660000000 1.0
C      1  0.5045420000000  0.4692660000000  0.4858570000000 1.0
C      1  0.5306780000000  0.4306730000000  0.5010350000000 1.0
C      1  0.5327620000000  0.5751390000000  0.5090240000000 1.0
C      1  0.4102330000000  0.5465250000000  0.4971070000000 1.0
C      1  0.4243330000000  0.4651430000000  0.5183570000000 1.0
C      1  0.5052740000000  0.5737170000000  0.5003150000000 1.0
C      1  0.5010340000000  0.4311870000000  0.4967960000000 1.0
C      1  0.4616890000000  0.5243910000000  0.4147810000000 1.0
C      1  0.4694770000000  0.4603110000000  0.4164790000000 1.0
C      1  0.4512700000000  0.5509220000000  0.4278010000000 1.0
C      1  0.4522250000000  0.4394090000000  0.4299500000000 1.0
C      1  0.5719660000000  0.5470140000000  0.4676400000000 1.0
C      1  0.5702660000000  0.4519510000000  0.4606700000000 1.0
C      1  0.5716050000000  0.5299500000000  0.4956390000000 1.0
C      1  0.5711860000000  0.4669130000000  0.4905950000000 1.0
C      1  0.5189590000000  0.4293110000000  0.5485230000000 1.0
C      1  0.5131560000000  0.5740830000000  0.5538700000000 1.0
C      1  0.4112580000000  0.4792550000000  0.5391330000000 1.0
C      1  0.4165530000000  0.5428510000000  0.5233100000000 1.0
C      1  0.4632080000000  0.4709840000000  0.5052850000000 1.0
C      1  0.4621280000000  0.5359330000000  0.5076830000000 1.0
C      1  0.5175790000000  0.5527370000000  0.5724220000000 1.0
C      1  0.5229000000000  0.4518450000000  0.5664880000000 1.0
C      1  0.4221160000000  0.4731800000000  0.5645130000000 1.0
C      1  0.4202020000000  0.5241750000000  0.5688220000000 1.0
C      1  0.5961840000000  0.4663790000000  0.5394760000000 1.0
C      1  0.5940670000000  0.5289170000000  0.5431980000000 1.0
C      1  0.4866540000000  0.5289420000000  0.4330390000000 1.0
C      1  0.4934810000000  0.4623920000000  0.4366650000000 1.0
C      1  0.5414670000000  0.4697230000000  0.5365660000000 1.0
C      1  0.5384430000000  0.5253790000000  0.5368770000000 1.0
C      1  0.4258270000000  0.4689450000000  0.4909420000000 1.0
C      1  0.4233280000000  0.5322050000000  0.4779720000000 1.0
C      1  0.5322440000000  0.5487800000000  0.4678290000000 1.0
C      1  0.5211540000000  0.4631020000000  0.4568310000000 1.0
C      1  0.5697720000000  0.5292490000000  0.5277990000000 1.0
C      1  0.5722370000000  0.4663720000000  0.5224880000000 1.0
C      1  0.4649280000000  0.5763900000000  0.5195360000000 1.0
C      1  0.4689630000000  0.4259450000000  0.5197900000000 1.0
C      1  0.5553280000000  0.5022540000000  0.4099980000000 1.0
C      1  0.5816560000000  0.4905610000000  0.4091660000000 1.0
C      1  0.4763450000000  0.5039330000000  0.5387480000000 1.0
C      1  0.5500220000000  0.5183090000000  0.3881090000000 1.0
C      1  0.4892110000000  0.5076750000000  0.4827710000000 1.0
C      1  0.3869080000000  0.5033850000000  0.4948440000000 1.0
C      1  0.5771600000000  0.4994240000000  0.4533030000000 1.0
C      1  0.5449820000000  0.5012070000000  0.4424120000000 1.0
C      1  0.6022840000000  0.5006250000000  0.5841470000000 1.0
C      1  0.3797260000000  0.5028720000000  0.4434630000000 1.0
C      1  0.4497300000000  0.5027540000000  0.4711910000000 1.0
C      1  0.5252690000000  0.4993930000000  0.6056050000000 1.0
C      1  0.5694520000000  0.4935510000000  0.5513980000000 1.0
C      1  0.4523150000000  0.4913380000000  0.4337130000000 1.0
C      1  0.6184120000000  0.4980450000000  0.5213320000000 1.0
C      1  0.4786570000000  0.4954250000000  0.4548720000000 1.0
C      1  0.5126470000000  0.4958730000000  0.4516460000000 1.0
C      1  0.4167740000000  0.4988640000000  0.4792390000000 1.0
C      1  0.5209190000000  0.4977450000000  0.4845740000000 1.0
C      1  0.4336670000000  0.5073520000000  0.5075100000000 1.0
C      1  0.5470260000000  0.4985000000000  0.4930660000000 1.0
C      1  0.5112020000000  0.5005060000000  0.5778880000000 1.0
C      1  0.6090430000000  0.4986230000000  0.4982680000000 1.0
C      1  0.4096270000000  0.5132210000000  0.5384570000000 1.0
C      1  0.5257260000000  0.4964740000000  0.5494870000000 1.0
C      1  0.5800180000000  0.5056770000000  0.5949730000000 1.0
C      1  0.4517010000000  0.4998400000000  0.5726830000000 1.0
C      1  0.4049600000000  0.4950690000000  0.4500620000000 1.0
C      1  0.5946300000000  0.4937030000000  0.4333400000000 1.0
C      1  0.6032430000000  0.4973080000000  0.5517580000000 1.0
C      1  0.4636360000000  0.4918400000000  0.4050300000000 1.0
C      1  0.5060100000000  0.5044610000000  0.5264300000000 1.0
C      1  0.4423760000000  0.5041810000000  0.5402290000000 1.0
C      1  0.4206180000000  0.4965740000000  0.5837110000000 1.0
C      1  0.5109970000000  0.5088330000000  0.4202510000000 1.0
C      1  0.5622740000000  0.4987270000000  0.5195240000000 1.0
C      1  0.5505070000000  0.5026880000000  0.5847350000000 1.0
C      1  0.3831770000000  0.5076640000000  0.5193640000000 1.0
C      1  0.5797230000000  0.4991230000000  0.4837540000000 1.0
C      1  0.4673590000000  0.5025810000000  0.5069240000000 1.0
C      1  0.4251060000000  0.4844070000000  0.4342320000000 1.0
END
