TITL C-3289323-3850-686 0.000106325172408967 125000 -61.5847484367146 0 0 13 (C1) n - 1
REM
REM in /nfs/bkarasulu/CARBON/AIRSS/Generating-Clusters/AIREBO/with-SteepDescent/Higher-Symm/SD-CG/HFTN-CG
REM
REM
REM
REM
REM
REM ./C.cell (b20cbc046b6831c77cfcea5457e17084)
REM
REM compiler GCC version 9.2.1 20190827 (Red Hat 9.2.1-1)
REM options -cpp -mtune=generic -march=x86-64 -g -O0 -fpre-include=/usr/include/finclude/math-vector-fortran.h
REM seed -1650868875 -787985550 250981145 -25148292 1359405160 1617852032 -149943421 -256690348 -1340038735 -825232667 406999975 -472892679 250285393 1993994493 -1777426252 -1042237752 -205862221 -1683598171 1294167350 -1130091135 482717975 1016523578 -746574417 -703233798 -425630213 -1455080121 -496047283 -1672323958 -892688631 1402760571 1054820429 892032103 142588543
REM
CELL 1.54180   50.00000   50.00000   50.00000   90.00000   90.00000   90.00000
LATT -1
SFAC C  
C      1  0.4767830000000  0.4668340000000  0.5134700000000 1.0
C      1  0.4702860000000  0.4897500000000  0.5392610000000 1.0
C      1  0.4782530000000  0.5184080000000  0.5271160000000 1.0
C      1  0.4806410000000  0.5318110000000  0.4982400000000 1.0
C      1  0.4947710000000  0.5198730000000  0.4763380000000 1.0
C      1  0.4925460000000  0.4927790000000  0.4681970000000 1.0
C      1  0.4828190000000  0.4691570000000  0.4800640000000 1.0
C      1  0.5470580000000  0.5003530000000  0.4921160000000 1.0
C      1  0.4383970000000  0.5045640000000  0.4938930000000 1.0
C      1  0.5719540000000  0.5047000000000  0.4851690000000 1.0
C      1  0.4601640000000  0.4939160000000  0.5013700000000 1.0
C      1  0.4936060000000  0.4954540000000  0.5079940000000 1.0
C      1  0.5214580000000  0.4983640000000  0.4983030000000 1.0
END
