TITL C-3289332-8317-553 -0.00212339674701956 125000 -786.481284122189 0 0 159 (C1) n - 1
REM
REM in /nfs/bkarasulu/CARBON/AIRSS/Generating-Clusters/AIREBO/with-SteepDescent/Higher-Symm/SD-CG/HFTN-CG
REM
REM
REM
REM
REM
REM ./C.cell (b20cbc046b6831c77cfcea5457e17084)
REM
REM compiler GCC version 9.2.1 20190827 (Red Hat 9.2.1-1)
REM options -cpp -mtune=generic -march=x86-64 -g -O0 -fpre-include=/usr/include/finclude/math-vector-fortran.h
REM seed 1664161305 -1701783768 1433660795 1823135250 1976857929 841284984 1648163080 1569454441 -1618662384 299955704 -1111135632 496779822 -1518139990 -289425001 -1546265856 1557834566 1364055115 -1520812585 -888716470 1583585202 281476685 1477689083 -1647056901 -693193731 -875334579 -1981008717 -675279936 328588622 -31460047 -1854131794 -1030936317 1245827805 691416348
REM
CELL 1.54180   50.00000   50.00000   50.00000   90.00000   90.00000   90.00000
LATT -1
SFAC C  
C      1  0.5151770000000  0.5909530000000  0.4753510000000 1.0
C      1  0.5152680000000  0.5546830000000  0.5826070000000 1.0
C      1  0.5131620000000  0.4399150000000  0.5765530000000 1.0
C      1  0.5137430000000  0.4076150000000  0.4660600000000 1.0
C      1  0.5134320000000  0.5049510000000  0.4028330000000 1.0
C      1  0.4871900000000  0.4038260000000  0.4735810000000 1.0
C      1  0.4864080000000  0.4458350000000  0.5811150000000 1.0
C      1  0.4871520000000  0.5621110000000  0.5796870000000 1.0
C      1  0.4874860000000  0.5909790000000  0.4691510000000 1.0
C      1  0.4868110000000  0.4967360000000  0.4003700000000 1.0
C      1  0.4824330000000  0.4218090000000  0.4994710000000 1.0
C      1  0.4801420000000  0.4758050000000  0.4211280000000 1.0
C      1  0.4826120000000  0.5599570000000  0.4581640000000 1.0
C      1  0.4882250000000  0.5612010000000  0.5473980000000 1.0
C      1  0.4802650000000  0.4741660000000  0.5709330000000 1.0
C      1  0.5189570000000  0.5751230000000  0.5026960000000 1.0
C      1  0.5157420000000  0.5255940000000  0.4280540000000 1.0
C      1  0.5160380000000  0.4384050000000  0.4561590000000 1.0
C      1  0.5159250000000  0.4378460000000  0.5455440000000 1.0
C      1  0.5143860000000  0.5244520000000  0.5825500000000 1.0
C      1  0.4668510000000  0.5451840000000  0.5892220000000 1.0
C      1  0.4665930000000  0.4295740000000  0.5699490000000 1.0
C      1  0.4676050000000  0.4096250000000  0.4548240000000 1.0
C      1  0.4669890000000  0.5185700000000  0.4018030000000 1.0
C      1  0.4696250000000  0.6007940000000  0.4897360000000 1.0
C      1  0.5318640000000  0.4596310000000  0.5855700000000 1.0
C      1  0.5367320000000  0.5705180000000  0.5635470000000 1.0
C      1  0.5355330000000  0.5808370000000  0.4537160000000 1.0
C      1  0.5331290000000  0.4831100000000  0.4037710000000 1.0
C      1  0.5332320000000  0.4013890000000  0.4847500000000 1.0
C      1  0.5543140000000  0.4294570000000  0.5527780000000 1.0
C      1  0.5530090000000  0.4239900000000  0.4517340000000 1.0
C      1  0.5527080000000  0.5283190000000  0.4130770000000 1.0
C      1  0.5567710000000  0.5927120000000  0.4977530000000 1.0
C      1  0.5599550000000  0.5348480000000  0.5882640000000 1.0
C      1  0.4498540000000  0.5705180000000  0.5531490000000 1.0
C      1  0.4453450000000  0.5732980000000  0.4528160000000 1.0
C      1  0.4429280000000  0.4699660000000  0.4083070000000 1.0
C      1  0.4455700000000  0.4063510000000  0.4987100000000 1.0
C      1  0.4424610000000  0.4713900000000  0.5832230000000 1.0
C      1  0.5729610000000  0.4771590000000  0.4783290000000 1.0
C      1  0.5789190000000  0.5154260000000  0.4688480000000 1.0
C      1  0.5804670000000  0.5357770000000  0.5031850000000 1.0
C      1  0.5698080000000  0.5092240000000  0.5309900000000 1.0
C      1  0.5789610000000  0.4728000000000  0.5174650000000 1.0
C      1  0.4257210000000  0.5246340000000  0.4751790000000 1.0
C      1  0.4228270000000  0.4857720000000  0.4663740000000 1.0
C      1  0.4250890000000  0.4656190000000  0.5007880000000 1.0
C      1  0.4333930000000  0.4927370000000  0.5287770000000 1.0
C      1  0.4232930000000  0.5286400000000  0.5148500000000 1.0
C      1  0.5165080000000  0.4575840000000  0.4128030000000 1.0
C      1  0.5194810000000  0.5791780000000  0.4254270000000 1.0
C      1  0.5187390000000  0.5958720000000  0.5496780000000 1.0
C      1  0.5161180000000  0.4855750000000  0.5914030000000 1.0
C      1  0.5228470000000  0.3942150000000  0.5096730000000 1.0
C      1  0.4829020000000  0.5448150000000  0.4098440000000 1.0
C      1  0.4769960000000  0.4191940000000  0.4303790000000 1.0
C      1  0.4773820000000  0.4094860000000  0.5499180000000 1.0
C      1  0.4755480000000  0.5222680000000  0.6028810000000 1.0
C      1  0.4816940000000  0.6066160000000  0.5148580000000 1.0
C      1  0.4254550000000  0.5066110000000  0.4396330000000 1.0
C      1  0.4233560000000  0.5560440000000  0.4859360000000 1.0
C      1  0.4188980000000  0.5295170000000  0.5485650000000 1.0
C      1  0.4228130000000  0.4667620000000  0.5406100000000 1.0
C      1  0.4221470000000  0.4465380000000  0.4736290000000 1.0
C      1  0.5771070000000  0.4941160000000  0.4424040000000 1.0
C      1  0.5810610000000  0.4474290000000  0.4866820000000 1.0
C      1  0.5779570000000  0.4756860000000  0.5511300000000 1.0
C      1  0.5783320000000  0.5392880000000  0.5429520000000 1.0
C      1  0.5794870000000  0.5549190000000  0.4750900000000 1.0
C      1  0.4341960000000  0.5608810000000  0.5177980000000 1.0
C      1  0.4299130000000  0.5010380000000  0.5598940000000 1.0
C      1  0.4306210000000  0.4397510000000  0.5225440000000 1.0
C      1  0.4274010000000  0.4604710000000  0.4438000000000 1.0
C      1  0.4275230000000  0.5387330000000  0.4437520000000 1.0
C      1  0.5714770000000  0.4394990000000  0.5183260000000 1.0
C      1  0.5718480000000  0.5057920000000  0.5634810000000 1.0
C      1  0.5718810000000  0.5632230000000  0.5220530000000 1.0
C      1  0.5698630000000  0.5402010000000  0.4471160000000 1.0
C      1  0.5717280000000  0.4622760000000  0.4485020000000 1.0
C      1  0.4548470000000  0.4746190000000  0.4689220000000 1.0
C      1  0.4582940000000  0.5192510000000  0.4684050000000 1.0
C      1  0.4572630000000  0.5286480000000  0.5130860000000 1.0
C      1  0.4640420000000  0.5007150000000  0.5331300000000 1.0
C      1  0.4583140000000  0.4645560000000  0.5079540000000 1.0
C      1  0.5461910000000  0.5229500000000  0.4742090000000 1.0
C      1  0.5429750000000  0.4797850000000  0.4700580000000 1.0
C      1  0.5463350000000  0.4684840000000  0.5088550000000 1.0
C      1  0.5399550000000  0.4974360000000  0.5255000000000 1.0
C      1  0.5475650000000  0.5320930000000  0.5072370000000 1.0
C      1  0.5130590000000  0.6032070000000  0.5188360000000 1.0
C      1  0.5066160000000  0.5115110000000  0.6116900000000 1.0
C      1  0.5175140000000  0.4042130000000  0.5407820000000 1.0
C      1  0.5097700000000  0.4265350000000  0.4249110000000 1.0
C      1  0.5155340000000  0.5531040000000  0.4078940000000 1.0
C      1  0.4910250000000  0.3972980000000  0.5214180000000 1.0
C      1  0.4837650000000  0.4893140000000  0.6011740000000 1.0
C      1  0.4853330000000  0.5950210000000  0.5453520000000 1.0
C      1  0.4883090000000  0.5733980000000  0.4274510000000 1.0
C      1  0.4854940000000  0.4444110000000  0.4092100000000 1.0
C      1  0.5313890000000  0.4509350000000  0.4838350000000 1.0
C      1  0.5299570000000  0.5045300000000  0.4506890000000 1.0
C      1  0.5241020000000  0.5452020000000  0.4873840000000 1.0
C      1  0.5302410000000  0.5291940000000  0.5328480000000 1.0
C      1  0.5310000000000  0.4677490000000  0.5394850000000 1.0
C      1  0.4696720000000  0.5458370000000  0.4862960000000 1.0
C      1  0.4696250000000  0.4956710000000  0.4466690000000 1.0
C      1  0.4648480000000  0.4445280000000  0.4812450000000 1.0
C      1  0.4652470000000  0.4676520000000  0.5411090000000 1.0
C      1  0.4707370000000  0.5322020000000  0.5441120000000 1.0
C      1  0.5634330000000  0.5537850000000  0.5676920000000 1.0
C      1  0.5543510000000  0.4596690000000  0.5628540000000 1.0
C      1  0.5548330000000  0.4263030000000  0.4845740000000 1.0
C      1  0.5515160000000  0.4992250000000  0.4249150000000 1.0
C      1  0.5608970000000  0.5800260000000  0.4733750000000 1.0
C      1  0.4433770000000  0.4489810000000  0.5593010000000 1.0
C      1  0.4447710000000  0.5404870000000  0.5644450000000 1.0
C      1  0.4514790000000  0.5745300000000  0.4846110000000 1.0
C      1  0.4477690000000  0.4992610000000  0.4208430000000 1.0
C      1  0.4419820000000  0.4217120000000  0.4706060000000 1.0
C      1  0.4870750000000  0.5131960000000  0.5657090000000 1.0
C      1  0.4834970000000  0.4395510000000  0.5352340000000 1.0
C      1  0.4843550000000  0.4507270000000  0.4540910000000 1.0
C      1  0.4831460000000  0.5255720000000  0.4377450000000 1.0
C      1  0.4916710000000  0.5577580000000  0.5079240000000 1.0
C      1  0.5200390000000  0.4923690000000  0.5595650000000 1.0
C      1  0.5203350000000  0.5575490000000  0.5385720000000 1.0
C      1  0.5160250000000  0.5532260000000  0.4573890000000 1.0
C      1  0.5181420000000  0.4746100000000  0.4396810000000 1.0
C      1  0.5122880000000  0.4351590000000  0.5060090000000 1.0
C      1  0.3989080000000  0.5218500000000  0.4544360000000 1.0
C      1  0.4006690000000  0.5536790000000  0.5105960000000 1.0
C      1  0.3995250000000  0.5110400000000  0.5670040000000 1.0
C      1  0.3991590000000  0.4542450000000  0.5196380000000 1.0
C      1  0.3968830000000  0.4647320000000  0.4599620000000 1.0
C      1  0.5978810000000  0.4712840000000  0.4313210000000 1.0
C      1  0.6037840000000  0.4502380000000  0.5118190000000 1.0
C      1  0.5988860000000  0.4897180000000  0.5718970000000 1.0
C      1  0.6038270000000  0.5501900000000  0.5232710000000 1.0
C      1  0.6026060000000  0.5371110000000  0.4576400000000 1.0
C      1  0.5412850000000  0.4310050000000  0.5239240000000 1.0
C      1  0.5436020000000  0.4518830000000  0.4414820000000 1.0
C      1  0.5419160000000  0.5455060000000  0.4367340000000 1.0
C      1  0.5449930000000  0.5756180000000  0.5236610000000 1.0
C      1  0.5434370000000  0.5100900000000  0.5756840000000 1.0
C      1  0.4633950000000  0.5663980000000  0.5247460000000 1.0
C      1  0.4568840000000  0.5472690000000  0.4399040000000 1.0
C      1  0.4567060000000  0.4550950000000  0.4342270000000 1.0
C      1  0.4561840000000  0.4251410000000  0.5208330000000 1.0
C      1  0.4573940000000  0.4981890000000  0.5729920000000 1.0
C      1  0.5072430000000  0.4647160000000  0.5153510000000 1.0
C      1  0.5067110000000  0.5116940000000  0.4744570000000 1.0
C      1  0.5018310000000  0.5254230000000  0.5052060000000 1.0
C      1  0.4952500000000  0.4814130000000  0.4638880000000 1.0
C      1  0.5035550000000  0.5108880000000  0.5360130000000 1.0
C      1  0.5817660000000  0.5018970000000  0.4999730000000 1.0
C      1  0.4215370000000  0.4993400000000  0.4975730000000 1.0
C      1  0.4844970000000  0.4760130000000  0.4956920000000 1.0
C      1  0.5148490000000  0.4904340000000  0.4975200000000 1.0
END
