TITL C-3289327-5623-758 0.00241353827470035 125000 -260.240392251744 0 0 47 (C1) n - 1
REM
REM in /nfs/bkarasulu/CARBON/AIRSS/Generating-Clusters/AIREBO/with-SteepDescent/Higher-Symm/SD-CG/HFTN-CG
REM
REM
REM
REM
REM
REM ./C.cell (b20cbc046b6831c77cfcea5457e17084)
REM
REM compiler GCC version 9.2.1 20190827 (Red Hat 9.2.1-1)
REM options -cpp -mtune=generic -march=x86-64 -g -O0 -fpre-include=/usr/include/finclude/math-vector-fortran.h
REM seed -266786539 -1702889855 1350427237 -1074252826 1944705883 1098261356 -1363126536 -1240998601 -1168074062 -1055428894 1865643944 1900244584 -431461659 -1039794343 -162692240 -846432673 643450757 502931984 -375338219 129007195 -383667683 -440727297 1566529485 903771032 -1350052741 337190542 1846104740 -682578005 -416151156 178228692 1866552770 -526329772 -861008924
REM
CELL 1.54180   50.00000   50.00000   50.00000   90.00000   90.00000   90.00000
LATT -1
SFAC C  
C      1  0.5481190000000  0.4410230000000  0.4846400000000 1.0
C      1  0.4235820000000  0.4845270000000  0.4874620000000 1.0
C      1  0.5288880000000  0.5731280000000  0.4851680000000 1.0
C      1  0.5482350000000  0.4399240000000  0.5120840000000 1.0
C      1  0.4226970000000  0.4864170000000  0.5148770000000 1.0
C      1  0.5274230000000  0.5740750000000  0.5126160000000 1.0
C      1  0.5142900000000  0.5531390000000  0.5252630000000 1.0
C      1  0.5374730000000  0.4627130000000  0.5238670000000 1.0
C      1  0.4474700000000  0.4865660000000  0.5274230000000 1.0
C      1  0.5167850000000  0.5513510000000  0.4728900000000 1.0
C      1  0.5376250000000  0.4647840000000  0.4748710000000 1.0
C      1  0.4491910000000  0.4844350000000  0.4764650000000 1.0
C      1  0.4849560000000  0.4565440000000  0.5299940000000 1.0
C      1  0.4710890000000  0.5348760000000  0.5337160000000 1.0
C      1  0.5457950000000  0.5093740000000  0.5327930000000 1.0
C      1  0.4866670000000  0.4548380000000  0.4662760000000 1.0
C      1  0.4706510000000  0.5353570000000  0.4710040000000 1.0
C      1  0.5499720000000  0.5108280000000  0.4814740000000 1.0
C      1  0.5084570000000  0.5359780000000  0.5661960000000 1.0
C      1  0.5265840000000  0.4751880000000  0.5648360000000 1.0
C      1  0.4667340000000  0.4878080000000  0.5665480000000 1.0
C      1  0.5027000000000  0.5341980000000  0.4322590000000 1.0
C      1  0.5283730000000  0.4847150000000  0.4416280000000 1.0
C      1  0.4636780000000  0.4882500000000  0.4365310000000 1.0
C      1  0.4600880000000  0.4687990000000  0.5455970000000 1.0
C      1  0.4950340000000  0.5509790000000  0.5456300000000 1.0
C      1  0.5461830000000  0.4800380000000  0.5443520000000 1.0
C      1  0.4609300000000  0.4673970000000  0.4566430000000 1.0
C      1  0.4949500000000  0.5488190000000  0.4556290000000 1.0
C      1  0.5503810000000  0.4888990000000  0.4632330000000 1.0
C      1  0.5120690000000  0.4606710000000  0.4445380000000 1.0
C      1  0.4737900000000  0.5104500000000  0.4480730000000 1.0
C      1  0.5125510000000  0.5083940000000  0.4396840000000 1.0
C      1  0.5020320000000  0.4752590000000  0.5526730000000 1.0
C      1  0.4786410000000  0.5097260000000  0.5553180000000 1.0
C      1  0.5201380000000  0.5140510000000  0.5546100000000 1.0
C      1  0.4692470000000  0.5055380000000  0.4872870000000 1.0
C      1  0.5221070000000  0.5236260000000  0.4849510000000 1.0
C      1  0.5084230000000  0.4738540000000  0.4823040000000 1.0
C      1  0.4692150000000  0.5054640000000  0.5167590000000 1.0
C      1  0.5202860000000  0.5242890000000  0.5159590000000 1.0
C      1  0.5098000000000  0.4729390000000  0.5135570000000 1.0
C      1  0.4866280000000  0.4442840000000  0.4983220000000 1.0
C      1  0.5633780000000  0.5136620000000  0.5055780000000 1.0
C      1  0.4606740000000  0.5416180000000  0.5022330000000 1.0
C      1  0.5001040000000  0.5009400000000  0.5302510000000 1.0
C      1  0.4988380000000  0.5044230000000  0.4705590000000 1.0
END
