TITL C-3289328-6581-455 0.00071902232933457 125000 -664.115886121679 0 0 123 (C1) n - 1
REM
REM in /nfs/bkarasulu/CARBON/AIRSS/Generating-Clusters/AIREBO/with-SteepDescent/Higher-Symm/SD-CG/HFTN-CG
REM
REM
REM
REM
REM
REM ./C.cell (b20cbc046b6831c77cfcea5457e17084)
REM
REM compiler GCC version 9.2.1 20190827 (Red Hat 9.2.1-1)
REM options -cpp -mtune=generic -march=x86-64 -g -O0 -fpre-include=/usr/include/finclude/math-vector-fortran.h
REM seed 1493604906 322259995 1424554121 1289848694 -923019501 -1831359378 -1144509622 1051597702 1383079909 -1704672776 -1854661811 -1219790563 756878054 -1350773943 1737367177 -1737753130 -1316630411 -184234784 2010675112 -307407280 -1073285319 -497687764 1534137055 916294950 -37334787 -595644747 -300114671 697341774 -1786392817 2079703308 -1649370634 -104145965 -971632356
REM
CELL 1.54180   50.00000   50.00000   50.00000   90.00000   90.00000   90.00000
LATT -1
SFAC C  
C      1  0.5388740000000  0.4476910000000  0.5373860000000 1.0
C      1  0.4627390000000  0.4456610000000  0.4572280000000 1.0
C      1  0.5414500000000  0.5511210000000  0.5454140000000 1.0
C      1  0.4576780000000  0.5465170000000  0.4524860000000 1.0
C      1  0.4762740000000  0.4497230000000  0.5537260000000 1.0
C      1  0.5398220000000  0.4406500000000  0.4541570000000 1.0
C      1  0.4503770000000  0.5604380000000  0.5330200000000 1.0
C      1  0.5455820000000  0.5525560000000  0.4611190000000 1.0
C      1  0.4248570000000  0.5145190000000  0.4381110000000 1.0
C      1  0.5785340000000  0.5128430000000  0.5560720000000 1.0
C      1  0.4240150000000  0.4836310000000  0.4371690000000 1.0
C      1  0.5768270000000  0.4821700000000  0.5562410000000 1.0
C      1  0.5662180000000  0.5110660000000  0.4473760000000 1.0
C      1  0.4224220000000  0.5151420000000  0.5528150000000 1.0
C      1  0.5737340000000  0.4831720000000  0.4425250000000 1.0
C      1  0.4316150000000  0.4835170000000  0.5512280000000 1.0
C      1  0.5541920000000  0.4434550000000  0.4254160000000 1.0
C      1  0.4489850000000  0.4485030000000  0.5591090000000 1.0
C      1  0.5624230000000  0.5485220000000  0.4331050000000 1.0
C      1  0.4423770000000  0.5579200000000  0.5600980000000 1.0
C      1  0.4476150000000  0.4438150000000  0.4282490000000 1.0
C      1  0.5590990000000  0.4467590000000  0.5603780000000 1.0
C      1  0.4453940000000  0.5563270000000  0.4226310000000 1.0
C      1  0.5637090000000  0.5489450000000  0.5641620000000 1.0
C      1  0.4393480000000  0.4352120000000  0.5074940000000 1.0
C      1  0.5613460000000  0.4464200000000  0.4777720000000 1.0
C      1  0.4312290000000  0.5541750000000  0.5129920000000 1.0
C      1  0.5696980000000  0.5537120000000  0.4851560000000 1.0
C      1  0.5584140000000  0.4390770000000  0.5109210000000 1.0
C      1  0.4369350000000  0.4452490000000  0.4794070000000 1.0
C      1  0.5669390000000  0.5617520000000  0.5123080000000 1.0
C      1  0.4393020000000  0.5555470000000  0.4797100000000 1.0
C      1  0.4715050000000  0.5180620000000  0.5546490000000 1.0
C      1  0.5324410000000  0.5151960000000  0.4485950000000 1.0
C      1  0.4638880000000  0.4876190000000  0.5508610000000 1.0
C      1  0.5179160000000  0.4855890000000  0.4513410000000 1.0
C      1  0.5285650000000  0.5146840000000  0.5544470000000 1.0
C      1  0.4743400000000  0.5176860000000  0.4594120000000 1.0
C      1  0.5190540000000  0.4867550000000  0.5477280000000 1.0
C      1  0.4779860000000  0.4867630000000  0.4529630000000 1.0
C      1  0.4600500000000  0.3922250000000  0.4925840000000 1.0
C      1  0.5355390000000  0.4143230000000  0.5156590000000 1.0
C      1  0.4543320000000  0.5841560000000  0.4905940000000 1.0
C      1  0.5451720000000  0.5793950000000  0.5138110000000 1.0
C      1  0.5293970000000  0.4124050000000  0.4871240000000 1.0
C      1  0.4580650000000  0.4127870000000  0.5122430000000 1.0
C      1  0.5330440000000  0.5828810000000  0.4834550000000 1.0
C      1  0.4701410000000  0.5897270000000  0.5147620000000 1.0
C      1  0.5201320000000  0.5857690000000  0.5304640000000 1.0
C      1  0.4762500000000  0.5785840000000  0.4665310000000 1.0
C      1  0.5108820000000  0.4097770000000  0.5303210000000 1.0
C      1  0.4812730000000  0.3947980000000  0.4748370000000 1.0
C      1  0.4954300000000  0.5996660000000  0.5284230000000 1.0
C      1  0.5060420000000  0.5949770000000  0.4664230000000 1.0
C      1  0.4838270000000  0.4186900000000  0.5246390000000 1.0
C      1  0.5124230000000  0.3939610000000  0.4717990000000 1.0
C      1  0.5195770000000  0.4444170000000  0.4812150000000 1.0
C      1  0.4851610000000  0.4511330000000  0.5209290000000 1.0
C      1  0.5301540000000  0.5499180000000  0.4913160000000 1.0
C      1  0.4830880000000  0.5595910000000  0.5237590000000 1.0
C      1  0.4757520000000  0.4461140000000  0.4886410000000 1.0
C      1  0.5169180000000  0.4496240000000  0.5135190000000 1.0
C      1  0.4808050000000  0.5544410000000  0.4902250000000 1.0
C      1  0.5164210000000  0.5529260000000  0.5224580000000 1.0
C      1  0.5555440000000  0.5165220000000  0.4859170000000 1.0
C      1  0.4466590000000  0.5176460000000  0.5181150000000 1.0
C      1  0.5491670000000  0.4844410000000  0.4863090000000 1.0
C      1  0.4465270000000  0.4843500000000  0.5150920000000 1.0
C      1  0.4450550000000  0.5121340000000  0.4865550000000 1.0
C      1  0.5471880000000  0.5172150000000  0.5193510000000 1.0
C      1  0.4530150000000  0.4814430000000  0.4836270000000 1.0
C      1  0.5559630000000  0.4849790000000  0.5172250000000 1.0
C      1  0.4899420000000  0.5370790000000  0.5734630000000 1.0
C      1  0.5149490000000  0.5442380000000  0.4512420000000 1.0
C      1  0.4880780000000  0.4655580000000  0.5738140000000 1.0
C      1  0.5180290000000  0.4578470000000  0.4342190000000 1.0
C      1  0.5134520000000  0.5428580000000  0.5609620000000 1.0
C      1  0.4910880000000  0.5529270000000  0.4519230000000 1.0
C      1  0.5145850000000  0.4726730000000  0.5718870000000 1.0
C      1  0.4873500000000  0.4590370000000  0.4375630000000 1.0
C      1  0.5773580000000  0.4564960000000  0.5337380000000 1.0
C      1  0.4182020000000  0.4653800000000  0.4593740000000 1.0
C      1  0.5790350000000  0.5404850000000  0.5359670000000 1.0
C      1  0.4216890000000  0.5324150000000  0.4619600000000 1.0
C      1  0.4302550000000  0.4537880000000  0.5346000000000 1.0
C      1  0.5790240000000  0.4671480000000  0.4664030000000 1.0
C      1  0.4126800000000  0.5358960000000  0.5276850000000 1.0
C      1  0.5825670000000  0.5383520000000  0.4576730000000 1.0
C      1  0.4824910000000  0.4771810000000  0.4819020000000 1.0
C      1  0.5234870000000  0.4800370000000  0.5196230000000 1.0
C      1  0.4777020000000  0.5203890000000  0.4931530000000 1.0
C      1  0.5151280000000  0.5189580000000  0.5234960000000 1.0
C      1  0.5218540000000  0.4783310000000  0.4797940000000 1.0
C      1  0.4799950000000  0.4841830000000  0.5211060000000 1.0
C      1  0.5222720000000  0.5184600000000  0.4809000000000 1.0
C      1  0.4735010000000  0.5277350000000  0.5260950000000 1.0
C      1  0.5612980000000  0.4692080000000  0.5807080000000 1.0
C      1  0.4422450000000  0.4702410000000  0.4194570000000 1.0
C      1  0.5641630000000  0.5241940000000  0.5815200000000 1.0
C      1  0.4445230000000  0.5262940000000  0.4206190000000 1.0
C      1  0.4446360000000  0.4626520000000  0.5827140000000 1.0
C      1  0.5585650000000  0.4706970000000  0.4220300000000 1.0
C      1  0.4377760000000  0.5318880000000  0.5710630000000 1.0
C      1  0.5510740000000  0.5384900000000  0.4106850000000 1.0
C      1  0.4143570000000  0.5076820000000  0.5144310000000 1.0
C      1  0.5891930000000  0.5195440000000  0.4834940000000 1.0
C      1  0.4137090000000  0.4751990000000  0.5170470000000 1.0
C      1  0.5830090000000  0.4877780000000  0.4880830000000 1.0
C      1  0.5811230000000  0.5156900000000  0.5163100000000 1.0
C      1  0.4111950000000  0.5125740000000  0.4827150000000 1.0
C      1  0.5898620000000  0.4829420000000  0.5190040000000 1.0
C      1  0.4200880000000  0.4809460000000  0.4855790000000 1.0
C      1  0.4701510000000  0.4827090000000  0.4202110000000 1.0
C      1  0.5367310000000  0.4820400000000  0.5888060000000 1.0
C      1  0.4697280000000  0.5142400000000  0.4257270000000 1.0
C      1  0.5385880000000  0.5107850000000  0.5847390000000 1.0
C      1  0.5314690000000  0.4860620000000  0.4206310000000 1.0
C      1  0.4665580000000  0.4885630000000  0.5847630000000 1.0
C      1  0.5335850000000  0.5174800000000  0.4145780000000 1.0
C      1  0.4631920000000  0.5208470000000  0.5871120000000 1.0
C      1  0.4933090000000  0.4248400000000  0.4720990000000 1.0
C      1  0.5030270000000  0.5788560000000  0.4951310000000 1.0
C      1  0.5025690000000  0.4980770000000  0.4997380000000 1.0
END
