TITL C-3289323-3850-777 -0.00153985416811316 125000 -533.144679599115 0 0 96 (C1) n - 1
REM
REM in /nfs/bkarasulu/CARBON/AIRSS/Generating-Clusters/AIREBO/with-SteepDescent/Higher-Symm/SD-CG/HFTN-CG
REM
REM
REM
REM
REM
REM ./C.cell (b20cbc046b6831c77cfcea5457e17084)
REM
REM compiler GCC version 9.2.1 20190827 (Red Hat 9.2.1-1)
REM options -cpp -mtune=generic -march=x86-64 -g -O0 -fpre-include=/usr/include/finclude/math-vector-fortran.h
REM seed 1343631807 876290454 1646904456 1097588221 2117236476 -1719166408 -1623807579 1332356334 1995092974 2138022026 2121733910 1263105937 -1740055095 -1882969893 -1353361337 -770159664 -358980153 -789855692 -846671592 1439067580 1523056829 -25044129 -1770360202 -677158810 1616997421 421539163 -1919392912 874185997 510657998 147459773 -240657208 1874002659 -1790826146
REM
CELL 1.54180   50.00000   50.00000   50.00000   90.00000   90.00000   90.00000
LATT -1
SFAC C  
C      1  0.5298040000000  0.5542300000000  0.5012530000000 1.0
C      1  0.4802910000000  0.5568040000000  0.5085650000000 1.0
C      1  0.4452750000000  0.5144340000000  0.4962760000000 1.0
C      1  0.4572280000000  0.4738340000000  0.4875240000000 1.0
C      1  0.5006410000000  0.4513410000000  0.4862480000000 1.0
C      1  0.5428490000000  0.4654070000000  0.5031820000000 1.0
C      1  0.5574740000000  0.5124030000000  0.4980130000000 1.0
C      1  0.5225730000000  0.4353990000000  0.5576740000000 1.0
C      1  0.5698200000000  0.4837040000000  0.5581470000000 1.0
C      1  0.5657030000000  0.5410440000000  0.5506000000000 1.0
C      1  0.5120960000000  0.5677090000000  0.5526810000000 1.0
C      1  0.4576850000000  0.5563770000000  0.5548710000000 1.0
C      1  0.4260970000000  0.4986250000000  0.5527910000000 1.0
C      1  0.4726100000000  0.4247630000000  0.5467650000000 1.0
C      1  0.5786430000000  0.4712970000000  0.5299130000000 1.0
C      1  0.5779370000000  0.5464220000000  0.5255080000000 1.0
C      1  0.5154880000000  0.5858380000000  0.5314660000000 1.0
C      1  0.4467280000000  0.5654910000000  0.5309260000000 1.0
C      1  0.4157670000000  0.4950430000000  0.5264050000000 1.0
C      1  0.4575370000000  0.4278060000000  0.5236810000000 1.0
C      1  0.5192290000000  0.4248320000000  0.5287740000000 1.0
C      1  0.4911160000000  0.5871330000000  0.5122490000000 1.0
C      1  0.4325460000000  0.5428050000000  0.5100590000000 1.0
C      1  0.4323020000000  0.4712210000000  0.5086490000000 1.0
C      1  0.4757330000000  0.4305130000000  0.4964070000000 1.0
C      1  0.5412450000000  0.4346600000000  0.5075600000000 1.0
C      1  0.5840210000000  0.4936400000000  0.5064390000000 1.0
C      1  0.5603200000000  0.5653270000000  0.5072430000000 1.0
C      1  0.4932100000000  0.4481690000000  0.5501350000000 1.0
C      1  0.5428050000000  0.4677520000000  0.5471310000000 1.0
C      1  0.5557830000000  0.5111300000000  0.5504700000000 1.0
C      1  0.5336590000000  0.5440590000000  0.5534670000000 1.0
C      1  0.4875160000000  0.5468660000000  0.5534510000000 1.0
C      1  0.4480140000000  0.5182740000000  0.5489720000000 1.0
C      1  0.4564340000000  0.4662470000000  0.5454730000000 1.0
C      1  0.5218960000000  0.5424350000000  0.4715900000000 1.0
C      1  0.4897920000000  0.5416660000000  0.4603720000000 1.0
C      1  0.4500450000000  0.5050830000000  0.4638890000000 1.0
C      1  0.4617200000000  0.4743630000000  0.4547040000000 1.0
C      1  0.4862040000000  0.4505980000000  0.4554690000000 1.0
C      1  0.5258550000000  0.4610560000000  0.4655680000000 1.0
C      1  0.5415850000000  0.5149430000000  0.4678270000000 1.0
C      1  0.5564990000000  0.5434490000000  0.4294020000000 1.0
C      1  0.5140730000000  0.5649140000000  0.4297140000000 1.0
C      1  0.4459810000000  0.5403150000000  0.4455630000000 1.0
C      1  0.4261580000000  0.4765760000000  0.4323590000000 1.0
C      1  0.4606950000000  0.4375390000000  0.4277340000000 1.0
C      1  0.5213180000000  0.4362640000000  0.4346410000000 1.0
C      1  0.5652120000000  0.4739510000000  0.4386250000000 1.0
C      1  0.5148070000000  0.4686240000000  0.4342990000000 1.0
C      1  0.5375900000000  0.4921910000000  0.4434170000000 1.0
C      1  0.5287660000000  0.5410170000000  0.4234660000000 1.0
C      1  0.4883560000000  0.5262770000000  0.4366580000000 1.0
C      1  0.4610210000000  0.5133620000000  0.4331640000000 1.0
C      1  0.4569740000000  0.4831550000000  0.4222020000000 1.0
C      1  0.4831640000000  0.4621330000000  0.4236210000000 1.0
C      1  0.4903520000000  0.5324700000000  0.5243740000000 1.0
C      1  0.4652470000000  0.5118200000000  0.5236920000000 1.0
C      1  0.4768150000000  0.4803940000000  0.5296060000000 1.0
C      1  0.5009200000000  0.4596520000000  0.5192280000000 1.0
C      1  0.5253010000000  0.4829890000000  0.5233460000000 1.0
C      1  0.5403770000000  0.5107710000000  0.5231880000000 1.0
C      1  0.5215580000000  0.5355270000000  0.5233850000000 1.0
C      1  0.5657570000000  0.4745240000000  0.4888040000000 1.0
C      1  0.5645500000000  0.5415110000000  0.4861240000000 1.0
C      1  0.5091900000000  0.5759360000000  0.4881790000000 1.0
C      1  0.4578850000000  0.5522410000000  0.4930230000000 1.0
C      1  0.4207900000000  0.4926300000000  0.4869520000000 1.0
C      1  0.4538730000000  0.4423700000000  0.4773470000000 1.0
C      1  0.5205470000000  0.4235400000000  0.4855550000000 1.0
C      1  0.5222220000000  0.5204050000000  0.5700390000000 1.0
C      1  0.4957550000000  0.5221030000000  0.5696650000000 1.0
C      1  0.4574860000000  0.5317080000000  0.5753220000000 1.0
C      1  0.4478870000000  0.4823040000000  0.5661700000000 1.0
C      1  0.4884210000000  0.4723120000000  0.5735930000000 1.0
C      1  0.5213980000000  0.4664900000000  0.5715300000000 1.0
C      1  0.5394790000000  0.4950600000000  0.5756130000000 1.0
C      1  0.5403660000000  0.5877280000000  0.5203560000000 1.0
C      1  0.4586870000000  0.5881150000000  0.5205050000000 1.0
C      1  0.4101030000000  0.5193000000000  0.5145910000000 1.0
C      1  0.4406300000000  0.4497880000000  0.5282320000000 1.0
C      1  0.4969510000000  0.4151690000000  0.5166910000000 1.0
C      1  0.5606710000000  0.4442020000000  0.5317730000000 1.0
C      1  0.5915490000000  0.5253870000000  0.5143160000000 1.0
C      1  0.4482410000000  0.4355860000000  0.4521200000000 1.0
C      1  0.5081820000000  0.4247330000000  0.4574800000000 1.0
C      1  0.5546220000000  0.4633340000000  0.4650420000000 1.0
C      1  0.5626830000000  0.5388330000000  0.4562080000000 1.0
C      1  0.5146330000000  0.5725130000000  0.4574490000000 1.0
C      1  0.4632770000000  0.5495620000000  0.4666480000000 1.0
C      1  0.4218920000000  0.4884000000000  0.4567540000000 1.0
C      1  0.5153770000000  0.5128720000000  0.4327440000000 1.0
C      1  0.4896280000000  0.4833790000000  0.4832010000000 1.0
C      1  0.4729740000000  0.5011480000000  0.5750320000000 1.0
C      1  0.5018370000000  0.4967320000000  0.4594900000000 1.0
C      1  0.4979580000000  0.4982640000000  0.5098670000000 1.0
END
