TITL C-3289325-7307-687 -0.00116425480721077 125000 -568.229961255604 0 0 105 (C1) n - 1
REM
REM in /nfs/bkarasulu/CARBON/AIRSS/Generating-Clusters/AIREBO/with-SteepDescent/Higher-Symm/SD-CG/HFTN-CG
REM
REM
REM
REM
REM
REM ./C.cell (b20cbc046b6831c77cfcea5457e17084)
REM
REM compiler GCC version 9.2.1 20190827 (Red Hat 9.2.1-1)
REM options -cpp -mtune=generic -march=x86-64 -g -O0 -fpre-include=/usr/include/finclude/math-vector-fortran.h
REM seed 1046758702 780033995 -1719639013 1681286602 1872357327 -982281682 -25152376 1268191108 1827354902 -1262404842 -2072119470 -302277193 2140454671 -1666390534 1114379203 630088106 685538230 379800675 -552053078 1423419233 -1955879817 1965350116 2128769700 -990254036 -1145772231 493177931 -2057941830 -490926940 -599592206 1503464332 1858841635 940187616 -1388958219
REM
CELL 1.54180   50.00000   50.00000   50.00000   90.00000   90.00000   90.00000
LATT -1
SFAC C  
C      1  0.5293860000000  0.5344540000000  0.5004430000000 1.0
C      1  0.5169550000000  0.4578560000000  0.5018270000000 1.0
C      1  0.4559000000000  0.5090560000000  0.5003350000000 1.0
C      1  0.4807470000000  0.5043270000000  0.4695490000000 1.0
C      1  0.5114890000000  0.5175230000000  0.4692210000000 1.0
C      1  0.5101800000000  0.4779440000000  0.4686670000000 1.0
C      1  0.5690040000000  0.4616740000000  0.4849810000000 1.0
C      1  0.4336870000000  0.4611020000000  0.4885120000000 1.0
C      1  0.4994300000000  0.5794690000000  0.4879810000000 1.0
C      1  0.4863770000000  0.5555920000000  0.5633440000000 1.0
C      1  0.5612900000000  0.4787490000000  0.5601470000000 1.0
C      1  0.4467640000000  0.4566100000000  0.5660240000000 1.0
C      1  0.4409900000000  0.5084950000000  0.5717220000000 1.0
C      1  0.5374810000000  0.5409060000000  0.5673000000000 1.0
C      1  0.5240180000000  0.4402300000000  0.5511910000000 1.0
C      1  0.5413830000000  0.5572380000000  0.4551190000000 1.0
C      1  0.5299690000000  0.4357010000000  0.4534450000000 1.0
C      1  0.4324940000000  0.5067570000000  0.4531040000000 1.0
C      1  0.4911480000000  0.5283160000000  0.5630770000000 1.0
C      1  0.5289790000000  0.4902290000000  0.5624990000000 1.0
C      1  0.4742870000000  0.4758340000000  0.5604410000000 1.0
C      1  0.5990660000000  0.4980230000000  0.4612250000000 1.0
C      1  0.4510250000000  0.4161360000000  0.4666630000000 1.0
C      1  0.4524170000000  0.5860200000000  0.4644050000000 1.0
C      1  0.4675640000000  0.5880560000000  0.4914980000000 1.0
C      1  0.5950550000000  0.4822070000000  0.4870770000000 1.0
C      1  0.4409490000000  0.4289960000000  0.4927850000000 1.0
C      1  0.4563990000000  0.4633850000000  0.4633030000000 1.0
C      1  0.4906750000000  0.5583580000000  0.4628010000000 1.0
C      1  0.5538220000000  0.4811720000000  0.4616080000000 1.0
C      1  0.4949080000000  0.4724150000000  0.5213990000000 1.0
C      1  0.4767480000000  0.5164970000000  0.5261940000000 1.0
C      1  0.5248540000000  0.5115600000000  0.5251980000000 1.0
C      1  0.3991420000000  0.4599560000000  0.4884990000000 1.0
C      1  0.5160030000000  0.6096460000000  0.4887140000000 1.0
C      1  0.5856380000000  0.4314470000000  0.4880320000000 1.0
C      1  0.6013520000000  0.4831190000000  0.5207970000000 1.0
C      1  0.4394510000000  0.4262170000000  0.5269090000000 1.0
C      1  0.4660590000000  0.5891000000000  0.5259250000000 1.0
C      1  0.4345770000000  0.4945390000000  0.4823680000000 1.0
C      1  0.5276860000000  0.5611430000000  0.4832480000000 1.0
C      1  0.5388300000000  0.4462880000000  0.4819510000000 1.0
C      1  0.5723800000000  0.4971370000000  0.4411770000000 1.0
C      1  0.4644680000000  0.4383570000000  0.4451940000000 1.0
C      1  0.4657730000000  0.5631910000000  0.4433990000000 1.0
C      1  0.5788400000000  0.4718950000000  0.5388920000000 1.0
C      1  0.4307570000000  0.4490560000000  0.5440820000000 1.0
C      1  0.4870590000000  0.5802490000000  0.5467800000000 1.0
C      1  0.5142840000000  0.5421410000000  0.4497640000000 1.0
C      1  0.5293920000000  0.4666730000000  0.4472750000000 1.0
C      1  0.4600590000000  0.4917590000000  0.4500880000000 1.0
C      1  0.4765500000000  0.5351620000000  0.4770590000000 1.0
C      1  0.5394200000000  0.5040700000000  0.4756020000000 1.0
C      1  0.4841610000000  0.4640230000000  0.4769750000000 1.0
C      1  0.5566170000000  0.4629430000000  0.5166250000000 1.0
C      1  0.4382970000000  0.4716310000000  0.5205240000000 1.0
C      1  0.5044510000000  0.5688320000000  0.5198870000000 1.0
C      1  0.5392670000000  0.4349250000000  0.5255350000000 1.0
C      1  0.4226840000000  0.5019190000000  0.5228750000000 1.0
C      1  0.5375860000000  0.5690890000000  0.5234220000000 1.0
C      1  0.4693140000000  0.5057260000000  0.5563090000000 1.0
C      1  0.5192580000000  0.5192260000000  0.5568730000000 1.0
C      1  0.5064440000000  0.4693350000000  0.5515050000000 1.0
C      1  0.4968850000000  0.5244460000000  0.4999730000000 1.0
C      1  0.5208520000000  0.4914460000000  0.4980590000000 1.0
C      1  0.4810170000000  0.4879290000000  0.4986010000000 1.0
C      1  0.5526170000000  0.4963820000000  0.5217760000000 1.0
C      1  0.4675240000000  0.4581970000000  0.5319040000000 1.0
C      1  0.4775150000000  0.5487040000000  0.5249610000000 1.0
C      1  0.4456940000000  0.5397280000000  0.4897540000000 1.0
C      1  0.5605290000000  0.5258580000000  0.4897920000000 1.0
C      1  0.4930250000000  0.4353650000000  0.4929840000000 1.0
C      1  0.5243220000000  0.3997840000000  0.4826370000000 1.0
C      1  0.4003540000000  0.5299110000000  0.4770260000000 1.0
C      1  0.5777700000000  0.5669840000000  0.4821260000000 1.0
C      1  0.5690180000000  0.5538840000000  0.4591940000000 1.0
C      1  0.5143590000000  0.4123490000000  0.4582460000000 1.0
C      1  0.4187790000000  0.5315390000000  0.4545020000000 1.0
C      1  0.5366340000000  0.5898620000000  0.4978290000000 1.0
C      1  0.5582960000000  0.4258760000000  0.4988510000000 1.0
C      1  0.4054800000000  0.4878700000000  0.4972090000000 1.0
C      1  0.5642650000000  0.5543010000000  0.5080640000000 1.0
C      1  0.5196800000000  0.4173460000000  0.5039950000000 1.0
C      1  0.4162260000000  0.5261050000000  0.4998610000000 1.0
C      1  0.5186900000000  0.4910080000000  0.4270800000000 1.0
C      1  0.4849730000000  0.4897880000000  0.4283990000000 1.0
C      1  0.5007450000000  0.5198590000000  0.4283590000000 1.0
C      1  0.5513130000000  0.5508730000000  0.5456590000000 1.0
C      1  0.4982620000000  0.4238510000000  0.5581320000000 1.0
C      1  0.4330610000000  0.5190680000000  0.5459510000000 1.0
C      1  0.5479890000000  0.4936420000000  0.4206210000000 1.0
C      1  0.4713530000000  0.4627720000000  0.4249490000000 1.0
C      1  0.4838970000000  0.5448560000000  0.4238960000000 1.0
C      1  0.5621310000000  0.5281260000000  0.5296590000000 1.0
C      1  0.4752810000000  0.4320700000000  0.5522390000000 1.0
C      1  0.4473430000000  0.5406240000000  0.5384460000000 1.0
C      1  0.4848550000000  0.4195300000000  0.4640150000000 1.0
C      1  0.4381030000000  0.5552850000000  0.4604800000000 1.0
C      1  0.5778390000000  0.5245770000000  0.4605390000000 1.0
C      1  0.4315970000000  0.5037480000000  0.5963690000000 1.0
C      1  0.5389820000000  0.5478640000000  0.5935610000000 1.0
C      1  0.5389980000000  0.4591080000000  0.5719220000000 1.0
C      1  0.5798800000000  0.5034400000000  0.5056440000000 1.0
C      1  0.4679400000000  0.4328780000000  0.5098950000000 1.0
C      1  0.4546890000000  0.5634880000000  0.5074710000000 1.0
END
