TITL C-3289321-8710-509 -2092.89019004304 125000 -583.004360948915 0 0 105 (C1) n - 1
REM
REM in /nfs/bkarasulu/CARBON/AIRSS/Generating-Clusters/AIREBO/with-SteepDescent/Higher-Symm/SD-CG/HFTN-CG
REM
REM
REM
REM
REM
REM ./C.cell (b20cbc046b6831c77cfcea5457e17084)
REM
REM compiler GCC version 9.2.1 20190827 (Red Hat 9.2.1-1)
REM options -cpp -mtune=generic -march=x86-64 -g -O0 -fpre-include=/usr/include/finclude/math-vector-fortran.h
REM seed -770987121 1602181981 1059409101 -759915631 259686697 -1577338593 443431185 -1339820093 -3494863 1198979382 -40605985 1616236106 -1657222863 -1649402512 -635402025 1999035829 2146222863 2022151341 -1931480849 -1091388206 1736584188 1004653620 604390929 1111650651 -1753237344 -894426513 -1641758691 494054618 -311378814 -1740668349 -804340816 474039814 1755525112
REM
CELL 1.54180   50.00000   50.00000   50.00000   90.00000   90.00000   90.00000
LATT -1
SFAC C  
C      1  0.4550560000000  0.5625580000000  0.5232040000000 1.0
C      1  0.4573010000000  0.4849390000000  0.4306470000000 1.0
C      1  0.4575070000000  0.4535380000000  0.5755330000000 1.0
C      1  0.5384030000000  0.5809630000000  0.4944560000000 1.0
C      1  0.5532730000000  0.4775100000000  0.4291240000000 1.0
C      1  0.5482790000000  0.4438830000000  0.5502370000000 1.0
C      1  0.4491220000000  0.4245890000000  0.4986760000000 1.0
C      1  0.4633960000000  0.5185490000000  0.4296710000000 1.0
C      1  0.4486970000000  0.5413310000000  0.5490500000000 1.0
C      1  0.5490960000000  0.4324920000000  0.5176330000000 1.0
C      1  0.5546450000000  0.5112510000000  0.4349210000000 1.0
C      1  0.5518180000000  0.5380370000000  0.5660720000000 1.0
C      1  0.5145410000000  0.4442770000000  0.5021270000000 1.0
C      1  0.5155840000000  0.5260240000000  0.5545100000000 1.0
C      1  0.5228210000000  0.5463820000000  0.4630540000000 1.0
C      1  0.4842450000000  0.4436440000000  0.4987120000000 1.0
C      1  0.4852350000000  0.5262530000000  0.5545460000000 1.0
C      1  0.4922730000000  0.5353880000000  0.4555470000000 1.0
C      1  0.5110350000000  0.5523660000000  0.4936210000000 1.0
C      1  0.5168530000000  0.4754820000000  0.5533900000000 1.0
C      1  0.5208140000000  0.4704730000000  0.4512600000000 1.0
C      1  0.4806540000000  0.5524760000000  0.4943370000000 1.0
C      1  0.4859670000000  0.4725640000000  0.5553670000000 1.0
C      1  0.4865300000000  0.4720300000000  0.4549310000000 1.0
C      1  0.4313500000000  0.4717710000000  0.4914920000000 1.0
C      1  0.4383390000000  0.5166800000000  0.5280100000000 1.0
C      1  0.4332230000000  0.5209980000000  0.4702630000000 1.0
C      1  0.5662710000000  0.4691170000000  0.5114800000000 1.0
C      1  0.5648340000000  0.5200280000000  0.5259210000000 1.0
C      1  0.5697310000000  0.5082100000000  0.4736500000000 1.0
C      1  0.4300530000000  0.5334160000000  0.4995970000000 1.0
C      1  0.4347330000000  0.4845060000000  0.5167450000000 1.0
C      1  0.4363190000000  0.4918050000000  0.4668790000000 1.0
C      1  0.5682200000000  0.5328330000000  0.4967030000000 1.0
C      1  0.5745030000000  0.4884800000000  0.5328340000000 1.0
C      1  0.5720440000000  0.4773420000000  0.4796120000000 1.0
C      1  0.5508570000000  0.4769060000000  0.5540100000000 1.0
C      1  0.5552060000000  0.5605110000000  0.4817660000000 1.0
C      1  0.5531170000000  0.4616060000000  0.4581660000000 1.0
C      1  0.4463800000000  0.4843230000000  0.5684000000000 1.0
C      1  0.4305780000000  0.5659020000000  0.5012550000000 1.0
C      1  0.4444530000000  0.4620420000000  0.4525860000000 1.0
C      1  0.5630320000000  0.5087470000000  0.5579470000000 1.0
C      1  0.5600040000000  0.4454030000000  0.4879340000000 1.0
C      1  0.5538460000000  0.5347530000000  0.4595100000000 1.0
C      1  0.4371910000000  0.5106340000000  0.5614490000000 1.0
C      1  0.4363440000000  0.4435530000000  0.4806010000000 1.0
C      1  0.4499050000000  0.5361010000000  0.4565710000000 1.0
C      1  0.4885830000000  0.5682900000000  0.5233250000000 1.0
C      1  0.4910530000000  0.4886080000000  0.4287810000000 1.0
C      1  0.4768620000000  0.4410290000000  0.5504420000000 1.0
C      1  0.5222890000000  0.5681960000000  0.5215430000000 1.0
C      1  0.5230170000000  0.4908110000000  0.4240980000000 1.0
C      1  0.5046960000000  0.4271540000000  0.5521540000000 1.0
C      1  0.4641690000000  0.4353790000000  0.5236920000000 1.0
C      1  0.4972640000000  0.5208460000000  0.4277030000000 1.0
C      1  0.4790270000000  0.5574130000000  0.5541110000000 1.0
C      1  0.5180740000000  0.4218400000000  0.5266230000000 1.0
C      1  0.5286840000000  0.5226710000000  0.4162390000000 1.0
C      1  0.5324310000000  0.5542040000000  0.5456750000000 1.0
C      1  0.5170380000000  0.5936290000000  0.4781530000000 1.0
C      1  0.5334160000000  0.4521250000000  0.4182520000000 1.0
C      1  0.5247720000000  0.4386760000000  0.5683090000000 1.0
C      1  0.4586380000000  0.5854160000000  0.4982810000000 1.0
C      1  0.4707140000000  0.4557010000000  0.4195720000000 1.0
C      1  0.4866300000000  0.4580520000000  0.5925610000000 1.0
C      1  0.5320720000000  0.4086690000000  0.4995560000000 1.0
C      1  0.5181000000000  0.5522330000000  0.4144070000000 1.0
C      1  0.5261080000000  0.5477460000000  0.5859140000000 1.0
C      1  0.4663760000000  0.3999830000000  0.4880520000000 1.0
C      1  0.4711260000000  0.5461020000000  0.4111240000000 1.0
C      1  0.4800500000000  0.5403130000000  0.5977150000000 1.0
C      1  0.5256970000000  0.4793640000000  0.4808190000000 1.0
C      1  0.5234280000000  0.4880320000000  0.5272530000000 1.0
C      1  0.5350180000000  0.5345000000000  0.5042450000000 1.0
C      1  0.4670680000000  0.4871240000000  0.4736890000000 1.0
C      1  0.4645210000000  0.4813440000000  0.5328350000000 1.0
C      1  0.4634240000000  0.5286250000000  0.4993880000000 1.0
C      1  0.5394370000000  0.5078120000000  0.4847170000000 1.0
C      1  0.5336820000000  0.5169520000000  0.5315300000000 1.0
C      1  0.5348490000000  0.4685980000000  0.5082950000000 1.0
C      1  0.4778390000000  0.5152340000000  0.4760170000000 1.0
C      1  0.4722280000000  0.5136480000000  0.5286160000000 1.0
C      1  0.4702260000000  0.4721240000000  0.5031220000000 1.0
C      1  0.4705130000000  0.5560940000000  0.4406300000000 1.0
C      1  0.4790720000000  0.4268980000000  0.4724630000000 1.0
C      1  0.4769680000000  0.5172930000000  0.5828100000000 1.0
C      1  0.5208270000000  0.5662930000000  0.4384620000000 1.0
C      1  0.5211250000000  0.4269370000000  0.4730490000000 1.0
C      1  0.5260610000000  0.5137900000000  0.5840260000000 1.0
C      1  0.4730320000000  0.4436920000000  0.4508500000000 1.0
C      1  0.4691700000000  0.5701970000000  0.4697530000000 1.0
C      1  0.4748550000000  0.4880010000000  0.5835510000000 1.0
C      1  0.5200000000000  0.4368810000000  0.4460550000000 1.0
C      1  0.5213850000000  0.5923930000000  0.4497160000000 1.0
C      1  0.5259680000000  0.4864390000000  0.5836290000000 1.0
C      1  0.4942170000000  0.5537180000000  0.3987990000000 1.0
C      1  0.5002780000000  0.4503750000000  0.4220140000000 1.0
C      1  0.4905420000000  0.5903270000000  0.4869060000000 1.0
C      1  0.5151860000000  0.4573100000000  0.5887370000000 1.0
C      1  0.5000390000000  0.4047850000000  0.4877240000000 1.0
C      1  0.4986010000000  0.5578040000000  0.5823000000000 1.0
C      1  0.5069270000000  0.5137400000000  0.4856480000000 1.0
C      1  0.4990660000000  0.4806540000000  0.4960380000000 1.0
C      1  0.4990340000000  0.5052710000000  0.5160250000000 1.0
END
