TITL C-3289329-2751-157 -0.00207302724120324 125000 -282.120365755099 0 0 64 (C1) n - 1
REM
REM in /nfs/bkarasulu/CARBON/AIRSS/Generating-Clusters/AIREBO/with-SteepDescent/Higher-Symm/SD-CG/HFTN-CG
REM
REM
REM
REM
REM
REM ./C.cell (b20cbc046b6831c77cfcea5457e17084)
REM
REM compiler GCC version 9.2.1 20190827 (Red Hat 9.2.1-1)
REM options -cpp -mtune=generic -march=x86-64 -g -O0 -fpre-include=/usr/include/finclude/math-vector-fortran.h
REM seed -376453342 1012651334 -48196320 1378010486 1416813768 -1161106699 -614647259 -1521720271 -1411357817 -272460658 -944866053 -1079043059 1936987955 917209348 536650975 947327429 1642389330 -89391312 -1530701712 -1947444357 -1278908534 -1511549470 -405999086 2120380641 1495208755 1195757159 1634306500 1511725212 592993021 438958361 -1987973664 1599127192 -452271677
REM
CELL 1.54180   50.00000   50.00000   50.00000   90.00000   90.00000   90.00000
LATT -1
SFAC C  
C      1  0.5142280000000  0.5400650000000  0.5039490000000 1.0
C      1  0.5349300000000  0.5004130000000  0.5129700000000 1.0
C      1  0.5020900000000  0.5156270000000  0.5370110000000 1.0
C      1  0.5121360000000  0.4641470000000  0.4972610000000 1.0
C      1  0.4838610000000  0.5383740000000  0.4973180000000 1.0
C      1  0.4833750000000  0.4673710000000  0.5003400000000 1.0
C      1  0.5370740000000  0.4926090000000  0.4853010000000 1.0
C      1  0.4656300000000  0.5072880000000  0.4807790000000 1.0
C      1  0.4659630000000  0.5029910000000  0.5139280000000 1.0
C      1  0.5005630000000  0.4845830000000  0.4648850000000 1.0
C      1  0.4934940000000  0.5178390000000  0.4644000000000 1.0
C      1  0.4952840000000  0.4853780000000  0.5346500000000 1.0
C      1  0.4673140000000  0.4996010000000  0.5477410000000 1.0
C      1  0.4983210000000  0.5487280000000  0.4684260000000 1.0
C      1  0.5458660000000  0.4610040000000  0.4942590000000 1.0
C      1  0.4687550000000  0.5013660000000  0.4477660000000 1.0
C      1  0.5292340000000  0.4982380000000  0.4526990000000 1.0
C      1  0.5340150000000  0.5083430000000  0.5461740000000 1.0
C      1  0.4918080000000  0.4519410000000  0.5294490000000 1.0
C      1  0.5058290000000  0.5495700000000  0.5354990000000 1.0
C      1  0.5060520000000  0.4510470000000  0.4664780000000 1.0
C      1  0.5471610000000  0.5319930000000  0.5099360000000 1.0
C      1  0.4507500000000  0.4731710000000  0.5079630000000 1.0
C      1  0.4504520000000  0.5358180000000  0.4913890000000 1.0
C      1  0.4275960000000  0.4896380000000  0.4758790000000 1.0
C      1  0.5000230000000  0.4641020000000  0.4356610000000 1.0
C      1  0.4734950000000  0.4211770000000  0.4903900000000 1.0
C      1  0.4343600000000  0.5055830000000  0.5261970000000 1.0
C      1  0.5639300000000  0.5003380000000  0.5321060000000 1.0
C      1  0.5617500000000  0.5009680000000  0.4623490000000 1.0
C      1  0.4980200000000  0.5365050000000  0.5659140000000 1.0
C      1  0.5020200000000  0.4624580000000  0.5601430000000 1.0
C      1  0.5043730000000  0.5327940000000  0.4269530000000 1.0
C      1  0.4612250000000  0.5662420000000  0.5021270000000 1.0
C      1  0.5344520000000  0.4305560000000  0.5042220000000 1.0
C      1  0.5400950000000  0.5632560000000  0.4985470000000 1.0
C      1  0.4185950000000  0.4830280000000  0.5142480000000 1.0
C      1  0.4809970000000  0.5234380000000  0.4268950000000 1.0
C      1  0.5150050000000  0.4235720000000  0.4844240000000 1.0
C      1  0.4265320000000  0.5119460000000  0.4875510000000 1.0
C      1  0.5720550000000  0.4751420000000  0.4777960000000 1.0
C      1  0.5792810000000  0.5237090000000  0.5174260000000 1.0
C      1  0.4763310000000  0.4785950000000  0.5689720000000 1.0
C      1  0.5203470000000  0.5177700000000  0.5758510000000 1.0
C      1  0.5245590000000  0.4804070000000  0.4271770000000 1.0
C      1  0.5215340000000  0.5757330000000  0.5204850000000 1.0
C      1  0.4863170000000  0.4231040000000  0.5122830000000 1.0
C      1  0.4783800000000  0.5717650000000  0.4763800000000 1.0
C      1  0.4507090000000  0.4672320000000  0.4744700000000 1.0
C      1  0.4688420000000  0.4701470000000  0.4458070000000 1.0
C      1  0.4731480000000  0.4432910000000  0.4701560000000 1.0
C      1  0.4478520000000  0.5366180000000  0.5253720000000 1.0
C      1  0.5542330000000  0.4682440000000  0.5264210000000 1.0
C      1  0.5488740000000  0.5294910000000  0.4756730000000 1.0
C      1  0.4683010000000  0.5307730000000  0.5520560000000 1.0
C      1  0.5327180000000  0.4745930000000  0.5519760000000 1.0
C      1  0.5270070000000  0.5300230000000  0.4464560000000 1.0
C      1  0.4728820000000  0.5584080000000  0.5327840000000 1.0
C      1  0.5258710000000  0.4485710000000  0.5311850000000 1.0
C      1  0.5287670000000  0.5553690000000  0.4681730000000 1.0
C      1  0.5397580000000  0.4512060000000  0.4619790000000 1.0
C      1  0.4581060000000  0.4523600000000  0.5339790000000 1.0
C      1  0.4402850000000  0.5502980000000  0.4651850000000 1.0
C      1  0.5384020000000  0.5417150000000  0.5413250000000 1.0
END
