TITL C-3289329-2751-340 0.00172647513845517 125000 -255.48839491705 0 0 49 (C1) n - 1
REM
REM in /nfs/bkarasulu/CARBON/AIRSS/Generating-Clusters/AIREBO/with-SteepDescent/Higher-Symm/SD-CG/HFTN-CG
REM
REM
REM
REM
REM
REM ./C.cell (b20cbc046b6831c77cfcea5457e17084)
REM
REM compiler GCC version 9.2.1 20190827 (Red Hat 9.2.1-1)
REM options -cpp -mtune=generic -march=x86-64 -g -O0 -fpre-include=/usr/include/finclude/math-vector-fortran.h
REM seed 2064352064 1449094514 771285476 1255546738 172963619 -2054265802 -468407944 -649703651 104019856 -1228519308 -504445006 2051820690 -126114707 1881208136 734597105 -1574213520 1012632742 635675293 -820834209 283626816 -642398851 -1031190479 124812133 -1654249306 2008616538 2131628009 -970914906 -975436279 962751456 1259101384 -1069419002 -2010073094 -1115259347
REM
CELL 1.54180   50.00000   50.00000   50.00000   90.00000   90.00000   90.00000
LATT -1
SFAC C  
C      1  0.4579460000000  0.4850780000000  0.5127570000000 1.0
C      1  0.4727820000000  0.4838380000000  0.4435070000000 1.0
C      1  0.5408350000000  0.4887800000000  0.4661800000000 1.0
C      1  0.5509120000000  0.4903470000000  0.5254190000000 1.0
C      1  0.4846670000000  0.4747580000000  0.5443790000000 1.0
C      1  0.5620130000000  0.5129790000000  0.5084330000000 1.0
C      1  0.5208920000000  0.5092860000000  0.4550910000000 1.0
C      1  0.4611900000000  0.5032080000000  0.4643020000000 1.0
C      1  0.4671540000000  0.5149520000000  0.5214960000000 1.0
C      1  0.5087900000000  0.5288110000000  0.5440410000000 1.0
C      1  0.5389530000000  0.5261840000000  0.5701540000000 1.0
C      1  0.4371110000000  0.5208250000000  0.5595530000000 1.0
C      1  0.4238050000000  0.5388370000000  0.4615910000000 1.0
C      1  0.5003830000000  0.5280870000000  0.4162940000000 1.0
C      1  0.5747530000000  0.5334500000000  0.4665020000000 1.0
C      1  0.4609260000000  0.4864140000000  0.5835830000000 1.0
C      1  0.5543300000000  0.4433630000000  0.5543210000000 1.0
C      1  0.5852020000000  0.4713650000000  0.4727500000000 1.0
C      1  0.4998220000000  0.4642740000000  0.4215160000000 1.0
C      1  0.4268230000000  0.4695090000000  0.4746460000000 1.0
C      1  0.5516550000000  0.4627580000000  0.5081780000000 1.0
C      1  0.5127590000000  0.4766770000000  0.5529490000000 1.0
C      1  0.4458100000000  0.4679000000000  0.5379540000000 1.0
C      1  0.4491330000000  0.4672770000000  0.4321540000000 1.0
C      1  0.5189410000000  0.4650180000000  0.4692080000000 1.0
C      1  0.4440590000000  0.5279130000000  0.5046140000000 1.0
C      1  0.4858870000000  0.5258870000000  0.5631240000000 1.0
C      1  0.5576490000000  0.5406890000000  0.5243480000000 1.0
C      1  0.5246690000000  0.5321080000000  0.4769780000000 1.0
C      1  0.4750710000000  0.5322660000000  0.4590670000000 1.0
C      1  0.5390170000000  0.5421240000000  0.5436090000000 1.0
C      1  0.4599230000000  0.5360400000000  0.5715080000000 1.0
C      1  0.4407150000000  0.5249080000000  0.4779910000000 1.0
C      1  0.4990710000000  0.5333300000000  0.4462980000000 1.0
C      1  0.5509100000000  0.5353580000000  0.4853200000000 1.0
C      1  0.4596990000000  0.4633470000000  0.5635940000000 1.0
C      1  0.5410160000000  0.4655910000000  0.5465610000000 1.0
C      1  0.5569730000000  0.4642890000000  0.4815080000000 1.0
C      1  0.4982960000000  0.4640740000000  0.4524540000000 1.0
C      1  0.4302950000000  0.4576820000000  0.4498670000000 1.0
C      1  0.4649680000000  0.5012520000000  0.5525420000000 1.0
C      1  0.5294090000000  0.5034660000000  0.5467040000000 1.0
C      1  0.5701630000000  0.5015810000000  0.4774370000000 1.0
C      1  0.4452480000000  0.4859750000000  0.4857530000000 1.0
C      1  0.5011390000000  0.4970580000000  0.4301840000000 1.0
C      1  0.4932630000000  0.5288000000000  0.5180650000000 1.0
C      1  0.4817000000000  0.4636910000000  0.5154840000000 1.0
C      1  0.4897130000000  0.4432270000000  0.5022840000000 1.0
C      1  0.5048140000000  0.5363740000000  0.4955820000000 1.0
END
