TITL C-3289333-7213-759 -0.00196484312826054 125000 -651.041356720399 0 0 125 (C1) n - 1
REM
REM in /nfs/bkarasulu/CARBON/AIRSS/Generating-Clusters/AIREBO/with-SteepDescent/Higher-Symm/SD-CG/HFTN-CG
REM
REM
REM
REM
REM
REM ./C.cell (b20cbc046b6831c77cfcea5457e17084)
REM
REM compiler GCC version 9.2.1 20190827 (Red Hat 9.2.1-1)
REM options -cpp -mtune=generic -march=x86-64 -g -O0 -fpre-include=/usr/include/finclude/math-vector-fortran.h
REM seed -491237615 526072123 1528883885 -2066097841 -251808847 -1530144799 896708656 -1383390711 -2101756795 -186763593 1926432671 -588842608 -1928480912 -1905748032 -543792355 515156923 -1334966523 1495273878 -365379893 1638543961 1805881725 -94972981 -929039655 -783291404 -1317161160 -1963933053 -114096837 1708156068 2049043611 492437224 1184399857 -2106378418 738017391
REM
CELL 1.54180   50.00000   50.00000   50.00000   90.00000   90.00000   90.00000
LATT -1
SFAC C  
C      1  0.5654650000000  0.5152350000000  0.5822550000000 1.0
C      1  0.4226610000000  0.4810570000000  0.5688600000000 1.0
C      1  0.4304630000000  0.5216390000000  0.4271900000000 1.0
C      1  0.5774180000000  0.4830540000000  0.4330050000000 1.0
C      1  0.5436890000000  0.5823570000000  0.4985990000000 1.0
C      1  0.4960480000000  0.4127040000000  0.5495650000000 1.0
C      1  0.4553140000000  0.5902450000000  0.4940960000000 1.0
C      1  0.5050650000000  0.4121520000000  0.4508580000000 1.0
C      1  0.5131200000000  0.5465920000000  0.5239900000000 1.0
C      1  0.4866160000000  0.4606320000000  0.5044460000000 1.0
C      1  0.4990000000000  0.5444650000000  0.4867370000000 1.0
C      1  0.5210570000000  0.4532560000000  0.4857380000000 1.0
C      1  0.4980660000000  0.5343640000000  0.4544620000000 1.0
C      1  0.5416710000000  0.4648480000000  0.5040250000000 1.0
C      1  0.4940980000000  0.5234840000000  0.5386520000000 1.0
C      1  0.4591890000000  0.4716200000000  0.4952850000000 1.0
C      1  0.5271340000000  0.5041840000000  0.5566680000000 1.0
C      1  0.4337070000000  0.4967770000000  0.5293320000000 1.0
C      1  0.4647770000000  0.5034540000000  0.4364970000000 1.0
C      1  0.5555000000000  0.4959670000000  0.4729470000000 1.0
C      1  0.4829950000000  0.5888800000000  0.5132700000000 1.0
C      1  0.4895480000000  0.4078230000000  0.4760470000000 1.0
C      1  0.5224340000000  0.5862100000000  0.4798890000000 1.0
C      1  0.5127250000000  0.4143210000000  0.5199800000000 1.0
C      1  0.5957410000000  0.5138130000000  0.5095590000000 1.0
C      1  0.4931650000000  0.4893100000000  0.5984420000000 1.0
C      1  0.4016030000000  0.5178090000000  0.4952650000000 1.0
C      1  0.5034260000000  0.4816970000000  0.4070680000000 1.0
C      1  0.5713900000000  0.4805060000000  0.4987660000000 1.0
C      1  0.4997460000000  0.5178490000000  0.5715040000000 1.0
C      1  0.4266370000000  0.4782330000000  0.5016390000000 1.0
C      1  0.4947490000000  0.5157240000000  0.4259730000000 1.0
C      1  0.5313640000000  0.5527790000000  0.5830700000000 1.0
C      1  0.4247970000000  0.4375310000000  0.5275280000000 1.0
C      1  0.4764430000000  0.5504040000000  0.4336700000000 1.0
C      1  0.5783330000000  0.4439030000000  0.4693520000000 1.0
C      1  0.4456320000000  0.5461600000000  0.4360230000000 1.0
C      1  0.5791340000000  0.4537810000000  0.4427020000000 1.0
C      1  0.5591980000000  0.5438050000000  0.5805850000000 1.0
C      1  0.4314780000000  0.4530500000000  0.5527290000000 1.0
C      1  0.4939890000000  0.4648400000000  0.5673800000000 1.0
C      1  0.4381300000000  0.5381150000000  0.4924480000000 1.0
C      1  0.5053440000000  0.4587630000000  0.4394760000000 1.0
C      1  0.5638090000000  0.5365430000000  0.5050260000000 1.0
C      1  0.4932670000000  0.4618750000000  0.4711070000000 1.0
C      1  0.5317760000000  0.5432210000000  0.4957530000000 1.0
C      1  0.5007600000000  0.4639980000000  0.5352110000000 1.0
C      1  0.4699950000000  0.5402360000000  0.5041700000000 1.0
C      1  0.4616490000000  0.4986470000000  0.4759890000000 1.0
C      1  0.5172470000000  0.5078600000000  0.4637970000000 1.0
C      1  0.5385030000000  0.4939950000000  0.5170410000000 1.0
C      1  0.4752760000000  0.4964840000000  0.5300980000000 1.0
C      1  0.5140430000000  0.5330730000000  0.5946550000000 1.0
C      1  0.4097670000000  0.4533640000000  0.5103120000000 1.0
C      1  0.4869120000000  0.5400030000000  0.4055560000000 1.0
C      1  0.5915560000000  0.4606570000000  0.4867220000000 1.0
C      1  0.4366630000000  0.5700820000000  0.5028800000000 1.0
C      1  0.4948670000000  0.4310480000000  0.4329980000000 1.0
C      1  0.5659580000000  0.5670480000000  0.4903590000000 1.0
C      1  0.5032570000000  0.4329660000000  0.5678220000000 1.0
C      1  0.5422280000000  0.5491060000000  0.4639210000000 1.0
C      1  0.5288710000000  0.4532260000000  0.5448830000000 1.0
C      1  0.4558660000000  0.5496360000000  0.5312550000000 1.0
C      1  0.4683060000000  0.4465060000000  0.4585780000000 1.0
C      1  0.4555030000000  0.4716530000000  0.5363940000000 1.0
C      1  0.4591060000000  0.5268290000000  0.4605380000000 1.0
C      1  0.5300410000000  0.4763400000000  0.4650830000000 1.0
C      1  0.5362580000000  0.5246250000000  0.5316770000000 1.0
C      1  0.4649190000000  0.4219040000000  0.4769010000000 1.0
C      1  0.5315980000000  0.5774920000000  0.4535210000000 1.0
C      1  0.5384060000000  0.4319010000000  0.5264070000000 1.0
C      1  0.4699760000000  0.5753070000000  0.5403910000000 1.0
C      1  0.5082960000000  0.5776340000000  0.5326550000000 1.0
C      1  0.4844610000000  0.4323720000000  0.5170860000000 1.0
C      1  0.4905230000000  0.5749020000000  0.4831850000000 1.0
C      1  0.5194590000000  0.4204610000000  0.4872220000000 1.0
C      1  0.5298000000000  0.4516950000000  0.5786670000000 1.0
C      1  0.4230340000000  0.5503000000000  0.5272750000000 1.0
C      1  0.4685470000000  0.4518240000000  0.4257450000000 1.0
C      1  0.5750420000000  0.5434090000000  0.4674510000000 1.0
C      1  0.4692270000000  0.4420380000000  0.5459130000000 1.0
C      1  0.4630840000000  0.5595200000000  0.4702100000000 1.0
C      1  0.5409750000000  0.4470100000000  0.4517920000000 1.0
C      1  0.5497780000000  0.5553620000000  0.5370650000000 1.0
C      1  0.4905170000000  0.4913560000000  0.4683620000000 1.0
C      1  0.5263170000000  0.5124820000000  0.4944050000000 1.0
C      1  0.5073230000000  0.4903010000000  0.5213690000000 1.0
C      1  0.4634500000000  0.5100520000000  0.5053410000000 1.0
C      1  0.4302860000000  0.4713770000000  0.4684970000000 1.0
C      1  0.5276770000000  0.5249070000000  0.4295830000000 1.0
C      1  0.5690760000000  0.4722980000000  0.5316160000000 1.0
C      1  0.4674360000000  0.5279470000000  0.5675950000000 1.0
C      1  0.5156260000000  0.5562080000000  0.4351810000000 1.0
C      1  0.5665930000000  0.4434200000000  0.5127560000000 1.0
C      1  0.4875790000000  0.5523450000000  0.5554110000000 1.0
C      1  0.4411570000000  0.4438730000000  0.4874390000000 1.0
C      1  0.4331980000000  0.4988600000000  0.4486520000000 1.0
C      1  0.5490450000000  0.5005040000000  0.4398430000000 1.0
C      1  0.5606140000000  0.5003760000000  0.5520560000000 1.0
C      1  0.4464220000000  0.5021750000000  0.5604310000000 1.0
C      1  0.5524030000000  0.4287330000000  0.4854670000000 1.0
C      1  0.5152090000000  0.5677960000000  0.5645640000000 1.0
C      1  0.4520510000000  0.4259110000000  0.5142000000000 1.0
C      1  0.4917100000000  0.5765160000000  0.4492350000000 1.0
C      1  0.4569810000000  0.4523400000000  0.5739970000000 1.0
C      1  0.4301750000000  0.5541640000000  0.4635480000000 1.0
C      1  0.5541150000000  0.4520260000000  0.4235410000000 1.0
C      1  0.5716490000000  0.5516620000000  0.5558980000000 1.0
C      1  0.4394210000000  0.4526540000000  0.4428160000000 1.0
C      1  0.5601510000000  0.5326450000000  0.4397710000000 1.0
C      1  0.5541970000000  0.4684770000000  0.5619570000000 1.0
C      1  0.4361580000000  0.5339770000000  0.5541180000000 1.0
C      1  0.4141010000000  0.5206170000000  0.5198930000000 1.0
C      1  0.4775330000000  0.4797180000000  0.4175330000000 1.0
C      1  0.5797210000000  0.5159130000000  0.4825360000000 1.0
C      1  0.5183460000000  0.4836660000000  0.5804700000000 1.0
C      1  0.4644050000000  0.4086930000000  0.5412480000000 1.0
C      1  0.4631330000000  0.5922520000000  0.4609730000000 1.0
C      1  0.5365850000000  0.4144140000000  0.4584610000000 1.0
C      1  0.5380600000000  0.5777540000000  0.5252610000000 1.0
C      1  0.4191430000000  0.5227120000000  0.4686860000000 1.0
C      1  0.5311440000000  0.4751600000000  0.4251760000000 1.0
C      1  0.5760980000000  0.5254770000000  0.5347450000000 1.0
C      1  0.4668860000000  0.4818500000000  0.5789930000000 1.0
C      1  0.4946950000000  0.5061250000000  0.4966320000000 1.0
END
