TITL C-3289324-3781-300 -0.00089251126847102 125000 -1007.14504194192 0 0 182 (C1) n - 1
REM
REM in /nfs/bkarasulu/CARBON/AIRSS/Generating-Clusters/AIREBO/with-SteepDescent/Higher-Symm/SD-CG/HFTN-CG
REM
REM
REM
REM
REM
REM ./C.cell (b20cbc046b6831c77cfcea5457e17084)
REM
REM compiler GCC version 9.2.1 20190827 (Red Hat 9.2.1-1)
REM options -cpp -mtune=generic -march=x86-64 -g -O0 -fpre-include=/usr/include/finclude/math-vector-fortran.h
REM seed 358570985 174348460 -2005456820 98129792 552668891 -329651065 -1872742689 1516184903 1173147334 -449294641 -2064865623 432968782 10367228 -1257827346 -1062896712 -1672576003 -466506786 1307469450 193053682 -747461326 -1373584434 872637074 -240242267 1633401429 -445192210 -1840581632 84583642 1847584144 506441304 1895613795 2139068405 -343337630 -220467132
REM
CELL 1.54180   50.00000   50.00000   50.00000   90.00000   90.00000   90.00000
LATT -1
SFAC C  
C      1  0.5313960000000  0.4814000000000  0.5956920000000 1.0
C      1  0.4347470000000  0.4721410000000  0.5640800000000 1.0
C      1  0.4187810000000  0.4822050000000  0.4560290000000 1.0
C      1  0.5210080000000  0.4902250000000  0.4037630000000 1.0
C      1  0.5777110000000  0.4827830000000  0.5007870000000 1.0
C      1  0.5313710000000  0.5149160000000  0.5879710000000 1.0
C      1  0.4250110000000  0.5388730000000  0.5550410000000 1.0
C      1  0.4291460000000  0.5145840000000  0.4551450000000 1.0
C      1  0.5115910000000  0.5165730000000  0.4181760000000 1.0
C      1  0.5805460000000  0.5166100000000  0.4986050000000 1.0
C      1  0.4163050000000  0.4959140000000  0.5734420000000 1.0
C      1  0.3940610000000  0.4993120000000  0.4440830000000 1.0
C      1  0.5473900000000  0.4960580000000  0.3848900000000 1.0
C      1  0.6033380000000  0.4886480000000  0.4792230000000 1.0
C      1  0.5488250000000  0.4870280000000  0.6243580000000 1.0
C      1  0.4148440000000  0.5204100000000  0.5766100000000 1.0
C      1  0.3978560000000  0.5263870000000  0.4481440000000 1.0
C      1  0.5568330000000  0.5226110000000  0.3857240000000 1.0
C      1  0.6067950000000  0.5157780000000  0.4761630000000 1.0
C      1  0.5421780000000  0.5127680000000  0.6179590000000 1.0
C      1  0.5154620000000  0.4705070000000  0.5677000000000 1.0
C      1  0.4474170000000  0.4646510000000  0.5334140000000 1.0
C      1  0.4490730000000  0.4805320000000  0.4491140000000 1.0
C      1  0.5377740000000  0.4773690000000  0.4305940000000 1.0
C      1  0.5512840000000  0.4715000000000  0.5189640000000 1.0
C      1  0.5061730000000  0.5257340000000  0.5735540000000 1.0
C      1  0.4369760000000  0.5303900000000  0.5247740000000 1.0
C      1  0.4695810000000  0.5337810000000  0.4492150000000 1.0
C      1  0.5374610000000  0.5286370000000  0.4319400000000 1.0
C      1  0.5538500000000  0.5281670000000  0.5157380000000 1.0
C      1  0.4115580000000  0.4571650000000  0.4694270000000 1.0
C      1  0.5055850000000  0.4667910000000  0.3938330000000 1.0
C      1  0.5622690000000  0.4715940000000  0.4725940000000 1.0
C      1  0.5580200000000  0.4616330000000  0.5881410000000 1.0
C      1  0.4396710000000  0.4536540000000  0.5864670000000 1.0
C      1  0.4420760000000  0.5251190000000  0.4802700000000 1.0
C      1  0.4998300000000  0.5379840000000  0.3995240000000 1.0
C      1  0.5606660000000  0.5325810000000  0.4761010000000 1.0
C      1  0.5438190000000  0.5391740000000  0.5734280000000 1.0
C      1  0.4566250000000  0.5449480000000  0.5563240000000 1.0
C      1  0.5970900000000  0.4730590000000  0.5259420000000 1.0
C      1  0.5056070000000  0.4708650000000  0.6145490000000 1.0
C      1  0.4166860000000  0.4790350000000  0.5357370000000 1.0
C      1  0.4544260000000  0.4687310000000  0.4199550000000 1.0
C      1  0.5594020000000  0.4808000000000  0.4075500000000 1.0
C      1  0.5970670000000  0.5278820000000  0.5254850000000 1.0
C      1  0.4833980000000  0.5288570000000  0.5960690000000 1.0
C      1  0.4048980000000  0.5352590000000  0.5277790000000 1.0
C      1  0.4485300000000  0.5179500000000  0.4315810000000 1.0
C      1  0.5629000000000  0.5285190000000  0.4127920000000 1.0
C      1  0.4729090000000  0.5090060000000  0.6175000000000 1.0
C      1  0.3912520000000  0.5095420000000  0.5109880000000 1.0
C      1  0.4572510000000  0.5151860000000  0.4052690000000 1.0
C      1  0.5879590000000  0.5137300000000  0.4239420000000 1.0
C      1  0.5887990000000  0.5144490000000  0.5515460000000 1.0
C      1  0.4770330000000  0.4815400000000  0.6159490000000 1.0
C      1  0.4016790000000  0.4840320000000  0.5132280000000 1.0
C      1  0.4591410000000  0.4888760000000  0.3971710000000 1.0
C      1  0.5852790000000  0.4848530000000  0.4192300000000 1.0
C      1  0.5906970000000  0.4869780000000  0.5522810000000 1.0
C      1  0.5919850000000  0.4588110000000  0.4307980000000 1.0
C      1  0.5785090000000  0.4677220000000  0.5714800000000 1.0
C      1  0.4585650000000  0.4602530000000  0.6047860000000 1.0
C      1  0.4009400000000  0.4603880000000  0.4973880000000 1.0
C      1  0.4784210000000  0.4655200000000  0.3884910000000 1.0
C      1  0.5957850000000  0.5431750000000  0.4297640000000 1.0
C      1  0.5724040000000  0.5341250000000  0.5673380000000 1.0
C      1  0.4588270000000  0.5363790000000  0.6260570000000 1.0
C      1  0.3833520000000  0.5331840000000  0.4946860000000 1.0
C      1  0.4716980000000  0.5384170000000  0.3970810000000 1.0
C      1  0.4626860000000  0.4183060000000  0.5043310000000 1.0
C      1  0.4909450000000  0.4141720000000  0.4692310000000 1.0
C      1  0.5222850000000  0.4045900000000  0.4783190000000 1.0
C      1  0.5181300000000  0.4091810000000  0.5117790000000 1.0
C      1  0.4989170000000  0.4011810000000  0.5386690000000 1.0
C      1  0.4640990000000  0.6033990000000  0.5126360000000 1.0
C      1  0.4943030000000  0.5822810000000  0.4712660000000 1.0
C      1  0.5278450000000  0.5858780000000  0.4677870000000 1.0
C      1  0.5386800000000  0.5868280000000  0.5148040000000 1.0
C      1  0.4878800000000  0.5935680000000  0.5333050000000 1.0
C      1  0.5524260000000  0.4351230000000  0.5909760000000 1.0
C      1  0.4322670000000  0.4274550000000  0.5795960000000 1.0
C      1  0.4018420000000  0.4318820000000  0.4488750000000 1.0
C      1  0.5167340000000  0.4437890000000  0.4031200000000 1.0
C      1  0.5888890000000  0.4120080000000  0.4890710000000 1.0
C      1  0.5341060000000  0.5678530000000  0.5889090000000 1.0
C      1  0.4060090000000  0.5945360000000  0.5330950000000 1.0
C      1  0.4112860000000  0.5824210000000  0.4470290000000 1.0
C      1  0.5147170000000  0.5608960000000  0.3973330000000 1.0
C      1  0.6063530000000  0.5724760000000  0.4861570000000 1.0
C      1  0.5475050000000  0.5944870000000  0.4901630000000 1.0
C      1  0.5099350000000  0.6015010000000  0.5457980000000 1.0
C      1  0.4515800000000  0.6053080000000  0.5442510000000 1.0
C      1  0.4770650000000  0.6047030000000  0.4820770000000 1.0
C      1  0.5280190000000  0.6052320000000  0.4397500000000 1.0
C      1  0.5284500000000  0.3786670000000  0.5008800000000 1.0
C      1  0.5289700000000  0.3861420000000  0.5425220000000 1.0
C      1  0.4614510000000  0.4011330000000  0.5256810000000 1.0
C      1  0.4684320000000  0.3977190000000  0.4707980000000 1.0
C      1  0.5165350000000  0.3937250000000  0.4466020000000 1.0
C      1  0.5245570000000  0.5338180000000  0.5274100000000 1.0
C      1  0.4708860000000  0.5168670000000  0.5572890000000 1.0
C      1  0.4540250000000  0.5137070000000  0.5072640000000 1.0
C      1  0.4899050000000  0.5086640000000  0.4392170000000 1.0
C      1  0.5396510000000  0.5183180000000  0.4598650000000 1.0
C      1  0.5325680000000  0.4602450000000  0.5430000000000 1.0
C      1  0.4862470000000  0.4868570000000  0.5617030000000 1.0
C      1  0.4537960000000  0.4822200000000  0.5049810000000 1.0
C      1  0.4823200000000  0.4772770000000  0.4499020000000 1.0
C      1  0.5372670000000  0.4878590000000  0.4615410000000 1.0
C      1  0.5265320000000  0.5761870000000  0.4220750000000 1.0
C      1  0.5756150000000  0.5660870000000  0.4916970000000 1.0
C      1  0.5212000000000  0.5593560000000  0.5580010000000 1.0
C      1  0.4341280000000  0.5823170000000  0.5280970000000 1.0
C      1  0.4376160000000  0.5756900000000  0.4603340000000 1.0
C      1  0.5183470000000  0.4402170000000  0.4344920000000 1.0
C      1  0.5608340000000  0.4272430000000  0.4942190000000 1.0
C      1  0.5328640000000  0.4228110000000  0.5701720000000 1.0
C      1  0.4417800000000  0.4182300000000  0.5557830000000 1.0
C      1  0.4337300000000  0.4325350000000  0.4606550000000 1.0
C      1  0.5552920000000  0.4053410000000  0.4688090000000 1.0
C      1  0.5490350000000  0.4023620000000  0.5531150000000 1.0
C      1  0.4721540000000  0.4110480000000  0.5561030000000 1.0
C      1  0.4413230000000  0.4123820000000  0.4811360000000 1.0
C      1  0.5032680000000  0.4127870000000  0.4312150000000 1.0
C      1  0.5747700000000  0.5948620000000  0.4761120000000 1.0
C      1  0.5384080000000  0.5872800000000  0.5485540000000 1.0
C      1  0.4611980000000  0.5978270000000  0.5683350000000 1.0
C      1  0.4424530000000  0.5943550000000  0.4883390000000 1.0
C      1  0.4999490000000  0.5864480000000  0.4395210000000 1.0
C      1  0.4644090000000  0.4427620000000  0.4060540000000 1.0
C      1  0.5731160000000  0.4382380000000  0.4385050000000 1.0
C      1  0.5839350000000  0.4484130000000  0.5448800000000 1.0
C      1  0.4871150000000  0.4457270000000  0.6016680000000 1.0
C      1  0.4052100000000  0.4379500000000  0.5129550000000 1.0
C      1  0.4600350000000  0.5619320000000  0.4074060000000 1.0
C      1  0.5785870000000  0.5651340000000  0.4360430000000 1.0
C      1  0.5866670000000  0.5537540000000  0.5457340000000 1.0
C      1  0.4693780000000  0.5557240000000  0.6030230000000 1.0
C      1  0.4002210000000  0.5596610000000  0.5018170000000 1.0
C      1  0.4824330000000  0.5253220000000  0.5129850000000 1.0
C      1  0.4820160000000  0.5236010000000  0.4790270000000 1.0
C      1  0.5110820000000  0.5143830000000  0.4752810000000 1.0
C      1  0.5279570000000  0.5134750000000  0.5020520000000 1.0
C      1  0.5002530000000  0.5179060000000  0.5409820000000 1.0
C      1  0.4802970000000  0.4610260000000  0.5404150000000 1.0
C      1  0.4666820000000  0.4932670000000  0.4755110000000 1.0
C      1  0.5142750000000  0.4809590000000  0.4832890000000 1.0
C      1  0.5244020000000  0.4849900000000  0.5127470000000 1.0
C      1  0.5030990000000  0.4850270000000  0.5326390000000 1.0
C      1  0.4326340000000  0.5571960000000  0.5091330000000 1.0
C      1  0.4569760000000  0.5615330000000  0.4408660000000 1.0
C      1  0.5473870000000  0.5584350000000  0.4342730000000 1.0
C      1  0.5688340000000  0.5554380000000  0.5175110000000 1.0
C      1  0.4884010000000  0.5534440000000  0.5649940000000 1.0
C      1  0.4335450000000  0.4336430000000  0.5312800000000 1.0
C      1  0.4587860000000  0.4355320000000  0.4447700000000 1.0
C      1  0.5466100000000  0.4509350000000  0.4500740000000 1.0
C      1  0.5623740000000  0.4405430000000  0.5204430000000 1.0
C      1  0.5084170000000  0.4409780000000  0.5769710000000 1.0
C      1  0.4693200000000  0.5746680000000  0.5813880000000 1.0
C      1  0.4130850000000  0.5886160000000  0.4942830000000 1.0
C      1  0.4754870000000  0.5831270000000  0.4247690000000 1.0
C      1  0.5836080000000  0.5899970000000  0.4493990000000 1.0
C      1  0.5672080000000  0.5792750000000  0.5412410000000 1.0
C      1  0.4840340000000  0.4188800000000  0.5822840000000 1.0
C      1  0.4231690000000  0.4133960000000  0.5060120000000 1.0
C      1  0.4770110000000  0.4209120000000  0.4228230000000 1.0
C      1  0.5703720000000  0.4107180000000  0.4465920000000 1.0
C      1  0.5707720000000  0.4173350000000  0.5431150000000 1.0
C      1  0.4494030000000  0.5555220000000  0.4822750000000 1.0
C      1  0.4815270000000  0.5574010000000  0.4847500000000 1.0
C      1  0.5528800000000  0.5628920000000  0.4665730000000 1.0
C      1  0.5167310000000  0.5637310000000  0.5245760000000 1.0
C      1  0.4645880000000  0.5688440000000  0.5349890000000 1.0
C      1  0.4854940000000  0.4358420000000  0.5022380000000 1.0
C      1  0.4904020000000  0.4443930000000  0.4536330000000 1.0
C      1  0.5327040000000  0.4369520000000  0.4777710000000 1.0
C      1  0.5254990000000  0.4305530000000  0.5378110000000 1.0
C      1  0.4936020000000  0.4339900000000  0.5314570000000 1.0
C      1  0.4876080000000  0.5576890000000  0.5159510000000 1.0
C      1  0.5049120000000  0.4517540000000  0.4829350000000 1.0
END
