TITL C-3289331-6719-136 -1.04507398121891e-06 125000 -164.786013362685 0 0 33 (S4) n - 1
REM
REM in /nfs/bkarasulu/CARBON/AIRSS/Generating-Clusters/AIREBO/with-SteepDescent/Higher-Symm/SD-CG/HFTN-CG
REM
REM
REM
REM
REM
REM ./C.cell (b20cbc046b6831c77cfcea5457e17084)
REM
REM compiler GCC version 9.2.1 20190827 (Red Hat 9.2.1-1)
REM options -cpp -mtune=generic -march=x86-64 -g -O0 -fpre-include=/usr/include/finclude/math-vector-fortran.h
REM seed -1441999462 779983621 646673944 1921602841 1361806319 -408480117 -1388352126 -585165928 -789098468 -713925577 79429259 -1365568128 113760089 -611203011 -1779230536 -152451665 -770008693 -139982735 -1584393999 71415876 -335752616 -1379743982 -43599165 2012249153 -1083995619 -523463517 -719287841 -165224662 -511738700 -1251714918 -519932720 -1835725504 -98622406
REM
CELL 1.54180   50.00000   50.00000   50.00000   90.00000   90.00000   90.00000
LATT -1
SFAC C  
C      1  0.4754540000000  0.5309580000000  0.4416060000000 1.0
C      1  0.5252070000000  0.5608550000000  0.5267550000000 1.0
C      1  0.4999660000000  0.4687890000000  0.5655640000000 1.0
C      1  0.4099870000000  0.5336190000000  0.5416730000000 1.0
C      1  0.6024760000000  0.4722890000000  0.5045780000000 1.0
C      1  0.4115420000000  0.4508990000000  0.4997640000000 1.0
C      1  0.5698550000000  0.5138940000000  0.4283800000000 1.0
C      1  0.5017050000000  0.4349340000000  0.4682480000000 1.0
C      1  0.5716380000000  0.4807860000000  0.5108650000000 1.0
C      1  0.4297270000000  0.4776410000000  0.5038590000000 1.0
C      1  0.5614010000000  0.5068470000000  0.4590620000000 1.0
C      1  0.4815520000000  0.4560610000000  0.4827600000000 1.0
C      1  0.5029570000000  0.5196720000000  0.4549970000000 1.0
C      1  0.4978800000000  0.5433770000000  0.5234630000000 1.0
C      1  0.5199430000000  0.4764260000000  0.5409540000000 1.0
C      1  0.4395660000000  0.5302620000000  0.5283870000000 1.0
C      1  0.5926810000000  0.5105700000000  0.4506720000000 1.0
C      1  0.4705190000000  0.4278800000000  0.4706460000000 1.0
C      1  0.5030550000000  0.5335230000000  0.4254890000000 1.0
C      1  0.4976010000000  0.5724270000000  0.5382490000000 1.0
C      1  0.5311580000000  0.4617050000000  0.5677900000000 1.0
C      1  0.4291900000000  0.5591990000000  0.5392310000000 1.0
C      1  0.5917450000000  0.4715440000000  0.5348000000000 1.0
C      1  0.3971880000000  0.4790580000000  0.5052510000000 1.0
C      1  0.5475040000000  0.4892060000000  0.5024990000000 1.0
C      1  0.4537600000000  0.4896440000000  0.5051560000000 1.0
C      1  0.5425790000000  0.5017280000000  0.4775790000000 1.0
C      1  0.4776650000000  0.4790870000000  0.4951220000000 1.0
C      1  0.5153940000000  0.5079440000000  0.4751440000000 1.0
C      1  0.4856090000000  0.5215940000000  0.5149180000000 1.0
C      1  0.5236650000000  0.4869110000000  0.5169890000000 1.0
C      1  0.4584900000000  0.5149580000000  0.5169410000000 1.0
C      1  0.5005830000000  0.4988840000000  0.5005430000000 1.0
END
