TITL C-3289331-6719-182 -0.000689557913262249 125000 -213.121960086325 0 0 42 (C1) n - 1
REM
REM in /nfs/bkarasulu/CARBON/AIRSS/Generating-Clusters/AIREBO/with-SteepDescent/Higher-Symm/SD-CG/HFTN-CG
REM
REM
REM
REM
REM
REM ./C.cell (b20cbc046b6831c77cfcea5457e17084)
REM
REM compiler GCC version 9.2.1 20190827 (Red Hat 9.2.1-1)
REM options -cpp -mtune=generic -march=x86-64 -g -O0 -fpre-include=/usr/include/finclude/math-vector-fortran.h
REM seed -985248099 2092625378 -154130053 1566257364 811611832 1300296421 -1867365566 1130238051 1596611183 2017436781 777463151 670109154 1357214970 -1781115234 -1052733306 -1887410310 2052039566 1098503725 1461831391 1639232757 2123066601 -1931068449 676053560 1234903569 2131227129 684571748 -1279269460 -812087679 -2021277250 318477447 564999753 147939823 -1399750786
REM
CELL 1.54180   50.00000   50.00000   50.00000   90.00000   90.00000   90.00000
LATT -1
SFAC C  
C      1  0.5174490000000  0.5349320000000  0.4324670000000 1.0
C      1  0.4880120000000  0.4587250000000  0.5705890000000 1.0
C      1  0.4670030000000  0.5225810000000  0.4337500000000 1.0
C      1  0.5370920000000  0.4800750000000  0.5670080000000 1.0
C      1  0.5421020000000  0.4705290000000  0.4680310000000 1.0
C      1  0.4551340000000  0.5300260000000  0.5309740000000 1.0
C      1  0.5291060000000  0.4964630000000  0.4777540000000 1.0
C      1  0.4673930000000  0.5034310000000  0.5219500000000 1.0
C      1  0.4545940000000  0.4971860000000  0.4416760000000 1.0
C      1  0.5439410000000  0.5104590000000  0.5555470000000 1.0
C      1  0.5276280000000  0.4968470000000  0.5088230000000 1.0
C      1  0.4679650000000  0.5023220000000  0.4909220000000 1.0
C      1  0.4779900000000  0.4619430000000  0.4623190000000 1.0
C      1  0.5251380000000  0.5323680000000  0.5364200000000 1.0
C      1  0.5248650000000  0.4577130000000  0.4498200000000 1.0
C      1  0.4701590000000  0.5431280000000  0.5497590000000 1.0
C      1  0.5363550000000  0.5233920000000  0.4657730000000 1.0
C      1  0.4623820000000  0.4761180000000  0.5345320000000 1.0
C      1  0.4947890000000  0.5257630000000  0.4510650000000 1.0
C      1  0.5083600000000  0.4709190000000  0.5514810000000 1.0
C      1  0.4924630000000  0.5289450000000  0.5661480000000 1.0
C      1  0.5117010000000  0.4767870000000  0.4320690000000 1.0
C      1  0.5054620000000  0.5387650000000  0.5094330000000 1.0
C      1  0.4948130000000  0.4595470000000  0.4927860000000 1.0
C      1  0.5549600000000  0.4578530000000  0.4891900000000 1.0
C      1  0.4442950000000  0.5437650000000  0.5093280000000 1.0
C      1  0.5041280000000  0.4435550000000  0.4642620000000 1.0
C      1  0.4994030000000  0.5531560000000  0.5398940000000 1.0
C      1  0.5379440000000  0.4482170000000  0.5154990000000 1.0
C      1  0.4639160000000  0.5521510000000  0.4842080000000 1.0
C      1  0.5091880000000  0.4544860000000  0.5217050000000 1.0
C      1  0.4925390000000  0.5442550000000  0.4795610000000 1.0
C      1  0.5107290000000  0.5049990000000  0.5506290000000 1.0
C      1  0.4873020000000  0.4920030000000  0.4493900000000 1.0
C      1  0.4964770000000  0.4909900000000  0.4821190000000 1.0
C      1  0.4990140000000  0.5079020000000  0.5188510000000 1.0
C      1  0.5545820000000  0.5072630000000  0.5263880000000 1.0
C      1  0.4433250000000  0.4970290000000  0.4679370000000 1.0
C      1  0.4773410000000  0.4564400000000  0.5308900000000 1.0
C      1  0.5240370000000  0.5446960000000  0.4706520000000 1.0
C      1  0.4445970000000  0.5255210000000  0.4824550000000 1.0
C      1  0.5543240000000  0.4767540000000  0.5159470000000 1.0
END
