TITL C-3289322-3858-258 0.00267129545540102 125000 -577.531694686012 0 0 110 (C1) n - 1
REM
REM in /nfs/bkarasulu/CARBON/AIRSS/Generating-Clusters/AIREBO/with-SteepDescent/Higher-Symm/SD-CG/HFTN-CG
REM
REM
REM
REM
REM
REM ./C.cell (b20cbc046b6831c77cfcea5457e17084)
REM
REM compiler GCC version 9.2.1 20190827 (Red Hat 9.2.1-1)
REM options -cpp -mtune=generic -march=x86-64 -g -O0 -fpre-include=/usr/include/finclude/math-vector-fortran.h
REM seed -1912444763 961443096 796791862 44963786 1643982175 -1092241424 1275147181 1060756385 1559160922 -608136482 -1676839931 287585853 -1153042058 -1455950444 1142054460 1220966213 -1944059262 -293190405 -1339837760 -1038163010 27327333 -1443476735 47379921 1296410803 1476298594 1593104885 2013817244 404328109 -962035824 -159518148 1186090340 316179255 -1358392196
REM
CELL 1.54180   50.00000   50.00000   50.00000   90.00000   90.00000   90.00000
LATT -1
SFAC C  
C      1  0.4216890000000  0.4950160000000  0.4394200000000 1.0
C      1  0.5738810000000  0.4929000000000  0.5660280000000 1.0
C      1  0.4208530000000  0.4958210000000  0.5537320000000 1.0
C      1  0.5786000000000  0.4969390000000  0.4374420000000 1.0
C      1  0.5720390000000  0.4266610000000  0.4928600000000 1.0
C      1  0.4336490000000  0.4247310000000  0.5138900000000 1.0
C      1  0.5625830000000  0.4277380000000  0.5165530000000 1.0
C      1  0.4269410000000  0.4232750000000  0.4893080000000 1.0
C      1  0.5267220000000  0.4906890000000  0.4825080000000 1.0
C      1  0.4772070000000  0.4854610000000  0.5142630000000 1.0
C      1  0.5248610000000  0.4978090000000  0.5159870000000 1.0
C      1  0.4687080000000  0.4976110000000  0.4836090000000 1.0
C      1  0.5142260000000  0.5221470000000  0.4792270000000 1.0
C      1  0.4888990000000  0.5173700000000  0.5187310000000 1.0
C      1  0.5191310000000  0.5303980000000  0.5101510000000 1.0
C      1  0.4839790000000  0.5255040000000  0.4756850000000 1.0
C      1  0.5522290000000  0.5724780000000  0.5359250000000 1.0
C      1  0.4515480000000  0.5750820000000  0.4722040000000 1.0
C      1  0.5333830000000  0.5760560000000  0.4627960000000 1.0
C      1  0.4738270000000  0.5656440000000  0.5283540000000 1.0
C      1  0.4894580000000  0.4270560000000  0.5538470000000 1.0
C      1  0.5130920000000  0.4227760000000  0.4479780000000 1.0
C      1  0.4855530000000  0.4179460000000  0.4401180000000 1.0
C      1  0.5180870000000  0.4254530000000  0.5529340000000 1.0
C      1  0.5524220000000  0.5568980000000  0.4547110000000 1.0
C      1  0.4450940000000  0.5667620000000  0.5267010000000 1.0
C      1  0.5703340000000  0.5547300000000  0.5516730000000 1.0
C      1  0.4441640000000  0.5539900000000  0.4958350000000 1.0
C      1  0.5213250000000  0.5673410000000  0.5434140000000 1.0
C      1  0.4796520000000  0.5727700000000  0.4590790000000 1.0
C      1  0.5104530000000  0.5750230000000  0.4441900000000 1.0
C      1  0.4909850000000  0.5652540000000  0.5506480000000 1.0
C      1  0.5297780000000  0.5322910000000  0.5926550000000 1.0
C      1  0.4644850000000  0.5348860000000  0.4206990000000 1.0
C      1  0.5338880000000  0.5211650000000  0.3988880000000 1.0
C      1  0.4534500000000  0.5255130000000  0.5824970000000 1.0
C      1  0.4525850000000  0.5320210000000  0.4713060000000 1.0
C      1  0.5471620000000  0.5333780000000  0.5425920000000 1.0
C      1  0.4657210000000  0.5280340000000  0.5412140000000 1.0
C      1  0.5351470000000  0.5276530000000  0.4531520000000 1.0
C      1  0.4493210000000  0.4773500000000  0.5987910000000 1.0
C      1  0.5415200000000  0.4643840000000  0.4066430000000 1.0
C      1  0.4695670000000  0.4878480000000  0.4064660000000 1.0
C      1  0.5245400000000  0.4846740000000  0.5990130000000 1.0
C      1  0.5681880000000  0.5432420000000  0.4341760000000 1.0
C      1  0.4291550000000  0.5561450000000  0.5462690000000 1.0
C      1  0.5797080000000  0.5434120000000  0.5767330000000 1.0
C      1  0.4189700000000  0.5432700000000  0.4352480000000 1.0
C      1  0.4365950000000  0.4740200000000  0.4832610000000 1.0
C      1  0.5613810000000  0.4819760000000  0.5167960000000 1.0
C      1  0.4361590000000  0.4762260000000  0.5123120000000 1.0
C      1  0.5647500000000  0.4792220000000  0.4871090000000 1.0
C      1  0.4080040000000  0.5249340000000  0.5071960000000 1.0
C      1  0.5918520000000  0.5455860000000  0.4911130000000 1.0
C      1  0.4079270000000  0.5139680000000  0.4837500000000 1.0
C      1  0.6037340000000  0.5186540000000  0.4975170000000 1.0
C      1  0.4807490000000  0.5160580000000  0.4065620000000 1.0
C      1  0.5117110000000  0.5117190000000  0.6013230000000 1.0
C      1  0.4848120000000  0.5158450000000  0.5888630000000 1.0
C      1  0.5076800000000  0.5254810000000  0.4070540000000 1.0
C      1  0.4810110000000  0.5535430000000  0.4334410000000 1.0
C      1  0.5208120000000  0.5416340000000  0.5628660000000 1.0
C      1  0.4875730000000  0.5364760000000  0.5649620000000 1.0
C      1  0.5123060000000  0.5429940000000  0.4329290000000 1.0
C      1  0.4809190000000  0.4518730000000  0.5102540000000 1.0
C      1  0.5315270000000  0.4571480000000  0.4854420000000 1.0
C      1  0.4715450000000  0.4441170000000  0.4804200000000 1.0
C      1  0.5149740000000  0.4475860000000  0.5109030000000 1.0
C      1  0.4604550000000  0.4643980000000  0.4296420000000 1.0
C      1  0.5423990000000  0.4646440000000  0.5779390000000 1.0
C      1  0.4520380000000  0.4644130000000  0.5697200000000 1.0
C      1  0.5513180000000  0.4559570000000  0.4368410000000 1.0
C      1  0.5307630000000  0.5583890000000  0.5135780000000 1.0
C      1  0.4949480000000  0.5570830000000  0.4819380000000 1.0
C      1  0.5217090000000  0.5701780000000  0.4876780000000 1.0
C      1  0.4833910000000  0.5479860000000  0.5086580000000 1.0
C      1  0.4496010000000  0.4498550000000  0.5233960000000 1.0
C      1  0.5627100000000  0.4491640000000  0.4744790000000 1.0
C      1  0.4393770000000  0.4446960000000  0.4709320000000 1.0
C      1  0.5458440000000  0.4534380000000  0.5240820000000 1.0
C      1  0.5535340000000  0.5136970000000  0.5214030000000 1.0
C      1  0.4362680000000  0.5040930000000  0.4754760000000 1.0
C      1  0.5555610000000  0.5072040000000  0.4710810000000 1.0
C      1  0.4500820000000  0.5020050000000  0.5263720000000 1.0
C      1  0.5322050000000  0.4951390000000  0.5675840000000 1.0
C      1  0.4623370000000  0.4973870000000  0.4376580000000 1.0
C      1  0.5347580000000  0.4869240000000  0.4288560000000 1.0
C      1  0.4719840000000  0.4903460000000  0.5780670000000 1.0
C      1  0.4405340000000  0.5232980000000  0.4407120000000 1.0
C      1  0.5546750000000  0.5200880000000  0.5729750000000 1.0
C      1  0.4350410000000  0.5249200000000  0.5555400000000 1.0
C      1  0.5520690000000  0.5145720000000  0.4255500000000 1.0
C      1  0.5715690000000  0.4748380000000  0.4540200000000 1.0
C      1  0.4349610000000  0.4706550000000  0.5459640000000 1.0
C      1  0.5591810000000  0.4720140000000  0.5492640000000 1.0
C      1  0.4340320000000  0.4705520000000  0.4494980000000 1.0
C      1  0.4816250000000  0.4535720000000  0.5660100000000 1.0
C      1  0.5194590000000  0.4532490000000  0.4428520000000 1.0
C      1  0.4845090000000  0.4506580000000  0.4493590000000 1.0
C      1  0.5157650000000  0.4587460000000  0.5594630000000 1.0
C      1  0.5303270000000  0.4266700000000  0.4705790000000 1.0
C      1  0.4788420000000  0.4235420000000  0.5289560000000 1.0
C      1  0.5259490000000  0.4194450000000  0.5265340000000 1.0
C      1  0.4666650000000  0.4171490000000  0.4618950000000 1.0
C      1  0.4842560000000  0.4818730000000  0.5473480000000 1.0
C      1  0.5125020000000  0.4838120000000  0.4534450000000 1.0
C      1  0.4821800000000  0.4836430000000  0.4582970000000 1.0
C      1  0.5144180000000  0.4883910000000  0.5426760000000 1.0
C      1  0.5696690000000  0.5202400000000  0.4957670000000 1.0
C      1  0.4357090000000  0.5293670000000  0.5177050000000 1.0
END
