TITL C-3289325-7307-228 -0.00225025777146371 125000 -438.697489240786 0 0 78 (C1) n - 1
REM
REM in /nfs/bkarasulu/CARBON/AIRSS/Generating-Clusters/AIREBO/with-SteepDescent/Higher-Symm/SD-CG/HFTN-CG
REM
REM
REM
REM
REM
REM ./C.cell (b20cbc046b6831c77cfcea5457e17084)
REM
REM compiler GCC version 9.2.1 20190827 (Red Hat 9.2.1-1)
REM options -cpp -mtune=generic -march=x86-64 -g -O0 -fpre-include=/usr/include/finclude/math-vector-fortran.h
REM seed -306351485 -728090406 -1539198651 944663204 1962778157 29257570 -927017647 -886563172 414733306 -1868666688 -1586747220 152682726 -1383673905 -139858976 1183364465 -1138682503 -26506179 789037599 1997920011 -981809533 203026031 -793220256 -1215843838 -1320004699 262972150 -497803443 970167465 2064492917 519935071 -972361447 -1487155086 621197286 -316883681
REM
CELL 1.54180   50.00000   50.00000   50.00000   90.00000   90.00000   90.00000
LATT -1
SFAC C  
C      1  0.5557340000000  0.4545150000000  0.5065860000000 1.0
C      1  0.5692810000000  0.5188300000000  0.4717340000000 1.0
C      1  0.5539290000000  0.5193440000000  0.5344150000000 1.0
C      1  0.4651060000000  0.4570390000000  0.4433420000000 1.0
C      1  0.4675610000000  0.5717180000000  0.4937690000000 1.0
C      1  0.4661140000000  0.4867090000000  0.5649210000000 1.0
C      1  0.5650180000000  0.4961290000000  0.5555200000000 1.0
C      1  0.5587640000000  0.4517210000000  0.4532910000000 1.0
C      1  0.5651510000000  0.5498920000000  0.4718190000000 1.0
C      1  0.5762560000000  0.4927170000000  0.4741090000000 1.0
C      1  0.5756700000000  0.5156660000000  0.5110560000000 1.0
C      1  0.5748620000000  0.4824420000000  0.5037430000000 1.0
C      1  0.4594480000000  0.4364220000000  0.5575690000000 1.0
C      1  0.4765420000000  0.4980060000000  0.4248130000000 1.0
C      1  0.4722700000000  0.5747680000000  0.5425410000000 1.0
C      1  0.4826450000000  0.4965110000000  0.5188080000000 1.0
C      1  0.4819540000000  0.4866730000000  0.4911520000000 1.0
C      1  0.4868670000000  0.5096980000000  0.4721260000000 1.0
C      1  0.5595360000000  0.4794080000000  0.4550770000000 1.0
C      1  0.5636180000000  0.5428660000000  0.5026350000000 1.0
C      1  0.5628720000000  0.4732660000000  0.5342090000000 1.0
C      1  0.5404390000000  0.5567010000000  0.4580160000000 1.0
C      1  0.5415060000000  0.5084660000000  0.5705460000000 1.0
C      1  0.5379340000000  0.4371180000000  0.4659480000000 1.0
C      1  0.4737910000000  0.4562040000000  0.5733440000000 1.0
C      1  0.4754500000000  0.4699740000000  0.4187810000000 1.0
C      1  0.4774940000000  0.5861950000000  0.5167950000000 1.0
C      1  0.4343200000000  0.4981920000000  0.4596270000000 1.0
C      1  0.4242920000000  0.5375400000000  0.5170930000000 1.0
C      1  0.4314290000000  0.4515850000000  0.5319460000000 1.0
C      1  0.4974730000000  0.5418360000000  0.4447950000000 1.0
C      1  0.5010250000000  0.5339270000000  0.5588020000000 1.0
C      1  0.5060390000000  0.4381600000000  0.5022760000000 1.0
C      1  0.4375730000000  0.4695460000000  0.5578510000000 1.0
C      1  0.4399560000000  0.4699060000000  0.4500660000000 1.0
C      1  0.4436250000000  0.5577150000000  0.4977110000000 1.0
C      1  0.5374210000000  0.5050770000000  0.4520600000000 1.0
C      1  0.5330110000000  0.5416580000000  0.5089740000000 1.0
C      1  0.5330280000000  0.4629540000000  0.5381490000000 1.0
C      1  0.5194840000000  0.4563370000000  0.4271720000000 1.0
C      1  0.5172500000000  0.5679540000000  0.5022810000000 1.0
C      1  0.5216240000000  0.4653490000000  0.5688560000000 1.0
C      1  0.5356580000000  0.4403810000000  0.4939370000000 1.0
C      1  0.5260910000000  0.5358010000000  0.4440670000000 1.0
C      1  0.5295690000000  0.5319970000000  0.5546130000000 1.0
C      1  0.5006980000000  0.4498090000000  0.5788860000000 1.0
C      1  0.4991470000000  0.4589190000000  0.4080950000000 1.0
C      1  0.5049830000000  0.5939830000000  0.5138400000000 1.0
C      1  0.4464520000000  0.5207960000000  0.4433080000000 1.0
C      1  0.4280930000000  0.5238310000000  0.5411410000000 1.0
C      1  0.4489410000000  0.4415460000000  0.5045740000000 1.0
C      1  0.4797170000000  0.5475770000000  0.5463780000000 1.0
C      1  0.4801900000000  0.4353540000000  0.5109730000000 1.0
C      1  0.4761260000000  0.5292150000000  0.4315920000000 1.0
C      1  0.4675810000000  0.5315820000000  0.5207530000000 1.0
C      1  0.4706610000000  0.4574420000000  0.5335980000000 1.0
C      1  0.4969470000000  0.4988730000000  0.4469110000000 1.0
C      1  0.4999030000000  0.4650820000000  0.5353620000000 1.0
C      1  0.5196960000000  0.4780110000000  0.4527550000000 1.0
C      1  0.4935090000000  0.5446110000000  0.5091730000000 1.0
C      1  0.4557950000000  0.5047370000000  0.5379980000000 1.0
C      1  0.4582740000000  0.4631900000000  0.4852290000000 1.0
C      1  0.4619720000000  0.5254420000000  0.4688090000000 1.0
C      1  0.4919950000000  0.5056350000000  0.5731140000000 1.0
C      1  0.4864910000000  0.4484790000000  0.4610600000000 1.0
C      1  0.4904470000000  0.5599660000000  0.4727300000000 1.0
C      1  0.5217990000000  0.5730580000000  0.4713910000000 1.0
C      1  0.5207400000000  0.4914280000000  0.5782250000000 1.0
C      1  0.5137490000000  0.4386000000000  0.4509130000000 1.0
C      1  0.5246860000000  0.5109320000000  0.5209840000000 1.0
C      1  0.5194030000000  0.4786110000000  0.5110090000000 1.0
C      1  0.5364980000000  0.5235470000000  0.4806020000000 1.0
C      1  0.4462870000000  0.5229150000000  0.4956750000000 1.0
C      1  0.4473070000000  0.4784490000000  0.5203860000000 1.0
C      1  0.4408450000000  0.4893520000000  0.4906550000000 1.0
C      1  0.5070250000000  0.4655510000000  0.4821370000000 1.0
C      1  0.5052830000000  0.5309160000000  0.4823460000000 1.0
C      1  0.5040830000000  0.4976510000000  0.5424610000000 1.0
END
