TITL C-3289331-6719-572 0.000289202557749567 125000 -515.439117836501 0 0 101 (C1) n - 1
REM
REM in /nfs/bkarasulu/CARBON/AIRSS/Generating-Clusters/AIREBO/with-SteepDescent/Higher-Symm/SD-CG/HFTN-CG
REM
REM
REM
REM
REM
REM ./C.cell (b20cbc046b6831c77cfcea5457e17084)
REM
REM compiler GCC version 9.2.1 20190827 (Red Hat 9.2.1-1)
REM options -cpp -mtune=generic -march=x86-64 -g -O0 -fpre-include=/usr/include/finclude/math-vector-fortran.h
REM seed -1972818728 -1681341635 1462577378 -1008380418 1466132539 -686926990 -50158446 -1487484959 -1368824366 1123684938 -1838006544 -1325128501 1874235217 -1182836761 -449773121 146686244 787203230 2068850448 -1441029896 -1395645893 20602706 -1597535888 -302275648 441179640 -1142221407 -750433562 -1912214879 1126258184 408258736 -681366014 1282532533 667739152 -945795639
REM
CELL 1.54180   50.00000   50.00000   50.00000   90.00000   90.00000   90.00000
LATT -1
SFAC C  
C      1  0.4631000000000  0.4948620000000  0.5843870000000 1.0
C      1  0.4788490000000  0.5239590000000  0.5922200000000 1.0
C      1  0.4976830000000  0.5399750000000  0.6033940000000 1.0
C      1  0.5215230000000  0.5339980000000  0.5885750000000 1.0
C      1  0.5334400000000  0.5073170000000  0.5931060000000 1.0
C      1  0.5157620000000  0.4858340000000  0.6019480000000 1.0
C      1  0.4886880000000  0.4721020000000  0.5866000000000 1.0
C      1  0.4380730000000  0.4657210000000  0.5436110000000 1.0
C      1  0.4359680000000  0.5171230000000  0.5388270000000 1.0
C      1  0.4709740000000  0.5609780000000  0.5460670000000 1.0
C      1  0.5360610000000  0.5551100000000  0.5441840000000 1.0
C      1  0.5726340000000  0.4989340000000  0.5531720000000 1.0
C      1  0.5437990000000  0.4532430000000  0.5395400000000 1.0
C      1  0.4891520000000  0.4296670000000  0.5484600000000 1.0
C      1  0.4282830000000  0.4969180000000  0.5052230000000 1.0
C      1  0.4503950000000  0.5504640000000  0.5131450000000 1.0
C      1  0.5103290000000  0.5634940000000  0.5147720000000 1.0
C      1  0.5608920000000  0.5304950000000  0.5174220000000 1.0
C      1  0.5609240000000  0.4743500000000  0.5090890000000 1.0
C      1  0.5239480000000  0.4300850000000  0.5137440000000 1.0
C      1  0.4678340000000  0.4377090000000  0.5156340000000 1.0
C      1  0.4772570000000  0.5708550000000  0.5176750000000 1.0
C      1  0.5440070000000  0.5590010000000  0.5133630000000 1.0
C      1  0.5752300000000  0.5024620000000  0.5217980000000 1.0
C      1  0.5545900000000  0.4407190000000  0.5107810000000 1.0
C      1  0.4943930000000  0.4213390000000  0.5166530000000 1.0
C      1  0.4279460000000  0.4678770000000  0.5184730000000 1.0
C      1  0.4267530000000  0.5306720000000  0.5090360000000 1.0
C      1  0.5188570000000  0.4690730000000  0.5465310000000 1.0
C      1  0.4928570000000  0.4571520000000  0.5573340000000 1.0
C      1  0.4674910000000  0.4774070000000  0.5488100000000 1.0
C      1  0.4596720000000  0.5090160000000  0.5536610000000 1.0
C      1  0.4798990000000  0.5332430000000  0.5501590000000 1.0
C      1  0.5136780000000  0.5325010000000  0.5562030000000 1.0
C      1  0.5515920000000  0.4999440000000  0.5695380000000 1.0
C      1  0.5175340000000  0.5916990000000  0.5311480000000 1.0
C      1  0.5775990000000  0.5527540000000  0.5338070000000 1.0
C      1  0.5936410000000  0.4658270000000  0.5054800000000 1.0
C      1  0.5410770000000  0.4108950000000  0.5334510000000 1.0
C      1  0.4469250000000  0.4205970000000  0.5302800000000 1.0
C      1  0.3965210000000  0.4970640000000  0.5074160000000 1.0
C      1  0.4391930000000  0.5768300000000  0.5280250000000 1.0
C      1  0.5104190000000  0.4607320000000  0.4263220000000 1.0
C      1  0.4820300000000  0.4772700000000  0.4357970000000 1.0
C      1  0.4593760000000  0.5015460000000  0.4368730000000 1.0
C      1  0.4807430000000  0.5212820000000  0.4240350000000 1.0
C      1  0.5026870000000  0.5386860000000  0.4409250000000 1.0
C      1  0.5409640000000  0.5104880000000  0.4238300000000 1.0
C      1  0.5206750000000  0.4894000000000  0.4363340000000 1.0
C      1  0.5677120000000  0.5024520000000  0.4292180000000 1.0
C      1  0.5345700000000  0.4458530000000  0.4194540000000 1.0
C      1  0.4820130000000  0.4437500000000  0.4304670000000 1.0
C      1  0.4382230000000  0.4767640000000  0.4271290000000 1.0
C      1  0.4350650000000  0.5238510000000  0.4292590000000 1.0
C      1  0.4735870000000  0.5529380000000  0.4302770000000 1.0
C      1  0.5307940000000  0.5371580000000  0.4261610000000 1.0
C      1  0.4783230000000  0.5260970000000  0.4850390000000 1.0
C      1  0.5049930000000  0.5345730000000  0.4710850000000 1.0
C      1  0.5274250000000  0.5162140000000  0.4794720000000 1.0
C      1  0.5257230000000  0.4884320000000  0.4665970000000 1.0
C      1  0.5082550000000  0.4663030000000  0.4794220000000 1.0
C      1  0.4806130000000  0.4661700000000  0.4679060000000 1.0
C      1  0.4621670000000  0.5031770000000  0.4707680000000 1.0
C      1  0.4929130000000  0.4293640000000  0.4582100000000 1.0
C      1  0.4485170000000  0.4678290000000  0.4554350000000 1.0
C      1  0.4251560000000  0.5422000000000  0.4549110000000 1.0
C      1  0.4833850000000  0.5732200000000  0.4551660000000 1.0
C      1  0.5390840000000  0.5523690000000  0.4536220000000 1.0
C      1  0.5763710000000  0.5059740000000  0.4614970000000 1.0
C      1  0.5489150000000  0.4489150000000  0.4494640000000 1.0
C      1  0.4522870000000  0.5571710000000  0.4551130000000 1.0
C      1  0.5155170000000  0.5766610000000  0.4503530000000 1.0
C      1  0.5674230000000  0.5355980000000  0.4516040000000 1.0
C      1  0.5713880000000  0.4746430000000  0.4484350000000 1.0
C      1  0.5257680000000  0.4240510000000  0.4511300000000 1.0
C      1  0.4594520000000  0.4356630000000  0.4537930000000 1.0
C      1  0.4131930000000  0.5106700000000  0.4593280000000 1.0
C      1  0.5117790000000  0.5637040000000  0.4815650000000 1.0
C      1  0.5566870000000  0.5329930000000  0.4837640000000 1.0
C      1  0.5528020000000  0.4777540000000  0.4763970000000 1.0
C      1  0.5236940000000  0.4392820000000  0.4814580000000 1.0
C      1  0.4607370000000  0.4448480000000  0.4854120000000 1.0
C      1  0.4311030000000  0.4916440000000  0.4723840000000 1.0
C      1  0.4642490000000  0.5536660000000  0.4841360000000 1.0
C      1  0.5261530000000  0.5129060000000  0.5095700000000 1.0
C      1  0.5309150000000  0.4853670000000  0.5196340000000 1.0
C      1  0.5049920000000  0.4713520000000  0.5091390000000 1.0
C      1  0.4757590000000  0.4697070000000  0.5181100000000 1.0
C      1  0.4622440000000  0.4967150000000  0.5068830000000 1.0
C      1  0.4782840000000  0.5214360000000  0.5183080000000 1.0
C      1  0.5085180000000  0.5320060000000  0.5226000000000 1.0
C      1  0.4106240000000  0.5416980000000  0.4843430000000 1.0
C      1  0.4810000000000  0.5828350000000  0.4870260000000 1.0
C      1  0.5480960000000  0.5667230000000  0.4826730000000 1.0
C      1  0.5850250000000  0.5120570000000  0.4910780000000 1.0
C      1  0.5613370000000  0.4450960000000  0.4804670000000 1.0
C      1  0.5026970000000  0.4120350000000  0.4855370000000 1.0
C      1  0.4325260000000  0.4483740000000  0.5002730000000 1.0
C      1  0.5215340000000  0.4994550000000  0.5558430000000 1.0
C      1  0.5028530000000  0.5051160000000  0.4134230000000 1.0
C      1  0.4942400000000  0.5015080000000  0.5722640000000 1.0
END
