TITL C-3289328-6581-288 0.00210663200774516 125000 -459.338483533567 0 0 77 (C1) n - 1
REM
REM in /nfs/bkarasulu/CARBON/AIRSS/Generating-Clusters/AIREBO/with-SteepDescent/Higher-Symm/SD-CG/HFTN-CG
REM
REM
REM
REM
REM
REM ./C.cell (b20cbc046b6831c77cfcea5457e17084)
REM
REM compiler GCC version 9.2.1 20190827 (Red Hat 9.2.1-1)
REM options -cpp -mtune=generic -march=x86-64 -g -O0 -fpre-include=/usr/include/finclude/math-vector-fortran.h
REM seed 657544311 -312331859 2136289674 960731099 -1251787851 -637522825 -938142127 -2028179949 -1972463951 -1835356874 50825170 -14696480 -495472568 1112077737 -1788528306 -1939367982 1238970176 1880899304 1689916101 1078576408 -765997321 2124842247 -29353624 -1478369610 -822609257 502029992 1432011654 -518946863 468372575 -2086693512 -1510836302 163066616 -1387115574
REM
CELL 1.54180   50.00000   50.00000   50.00000   90.00000   90.00000   90.00000
LATT -1
SFAC C  
C      1  0.4517790000000  0.5379820000000  0.4857120000000 1.0
C      1  0.4684400000000  0.5211390000000  0.5091650000000 1.0
C      1  0.4556220000000  0.5054500000000  0.5353960000000 1.0
C      1  0.4713260000000  0.4823380000000  0.5166270000000 1.0
C      1  0.4521740000000  0.4657670000000  0.4947500000000 1.0
C      1  0.4539310000000  0.4842230000000  0.4691710000000 1.0
C      1  0.4686250000000  0.5088170000000  0.4792720000000 1.0
C      1  0.4470180000000  0.4448370000000  0.4696400000000 1.0
C      1  0.4358460000000  0.4938520000000  0.4419980000000 1.0
C      1  0.4533520000000  0.5390570000000  0.4541420000000 1.0
C      1  0.4469030000000  0.5647690000000  0.5010990000000 1.0
C      1  0.4558260000000  0.5364970000000  0.5438580000000 1.0
C      1  0.4496620000000  0.4847600000000  0.5590880000000 1.0
C      1  0.4506320000000  0.4484450000000  0.5208920000000 1.0
C      1  0.5850510000000  0.4792830000000  0.4797120000000 1.0
C      1  0.5809200000000  0.5063660000000  0.4728830000000 1.0
C      1  0.5937830000000  0.5261820000000  0.4882400000000 1.0
C      1  0.5860310000000  0.5338510000000  0.5133350000000 1.0
C      1  0.5688420000000  0.5126340000000  0.5300440000000 1.0
C      1  0.5784060000000  0.4849280000000  0.5251350000000 1.0
C      1  0.5737120000000  0.4692610000000  0.5033910000000 1.0
C      1  0.5373580000000  0.4815750000000  0.4292370000000 1.0
C      1  0.5405900000000  0.5373250000000  0.4452640000000 1.0
C      1  0.5432610000000  0.5565880000000  0.4992360000000 1.0
C      1  0.5428620000000  0.5481730000000  0.5506800000000 1.0
C      1  0.5375350000000  0.4902370000000  0.5626150000000 1.0
C      1  0.5387950000000  0.4455420000000  0.5322940000000 1.0
C      1  0.5456370000000  0.4307720000000  0.4790820000000 1.0
C      1  0.5414270000000  0.5166020000000  0.5448190000000 1.0
C      1  0.5307680000000  0.4693710000000  0.5450750000000 1.0
C      1  0.5493670000000  0.4519770000000  0.5032640000000 1.0
C      1  0.5384410000000  0.4874330000000  0.4560610000000 1.0
C      1  0.5538440000000  0.5122890000000  0.4629890000000 1.0
C      1  0.5367530000000  0.5360640000000  0.4784800000000 1.0
C      1  0.5584380000000  0.5469080000000  0.5225860000000 1.0
C      1  0.4973530000000  0.5614040000000  0.5211010000000 1.0
C      1  0.4940800000000  0.5187480000000  0.5614810000000 1.0
C      1  0.4914550000000  0.4606100000000  0.5532760000000 1.0
C      1  0.4987240000000  0.4328380000000  0.5055090000000 1.0
C      1  0.5022750000000  0.4514520000000  0.4538230000000 1.0
C      1  0.4921070000000  0.5039380000000  0.4355250000000 1.0
C      1  0.4949050000000  0.5544470000000  0.4683630000000 1.0
C      1  0.5102950000000  0.5118070000000  0.5350300000000 1.0
C      1  0.5034000000000  0.4793230000000  0.5275220000000 1.0
C      1  0.5166880000000  0.4615470000000  0.5017500000000 1.0
C      1  0.5134710000000  0.4748580000000  0.4732900000000 1.0
C      1  0.4976150000000  0.5023580000000  0.4676730000000 1.0
C      1  0.5072190000000  0.5291710000000  0.4823980000000 1.0
C      1  0.4976710000000  0.5307370000000  0.5127140000000 1.0
C      1  0.4972710000000  0.5770740000000  0.4845990000000 1.0
C      1  0.4967670000000  0.5629320000000  0.5505180000000 1.0
C      1  0.4939340000000  0.4978860000000  0.5800180000000 1.0
C      1  0.4918060000000  0.4338470000000  0.5446970000000 1.0
C      1  0.4968120000000  0.4209560000000  0.4786300000000 1.0
C      1  0.4916170000000  0.4648330000000  0.4290400000000 1.0
C      1  0.4946310000000  0.5326680000000  0.4282170000000 1.0
C      1  0.5221010000000  0.5748800000000  0.5032150000000 1.0
C      1  0.5231790000000  0.5632650000000  0.5611900000000 1.0
C      1  0.5212400000000  0.4916110000000  0.5859960000000 1.0
C      1  0.5184530000000  0.4262860000000  0.5319040000000 1.0
C      1  0.5229170000000  0.4266880000000  0.4647670000000 1.0
C      1  0.5117890000000  0.4837040000000  0.4178140000000 1.0
C      1  0.5219120000000  0.5411560000000  0.4264270000000 1.0
C      1  0.4791930000000  0.5421380000000  0.5587390000000 1.0
C      1  0.4773160000000  0.4768810000000  0.5708050000000 1.0
C      1  0.4708660000000  0.4301050000000  0.5235440000000 1.0
C      1  0.4746100000000  0.4342560000000  0.4630390000000 1.0
C      1  0.4662440000000  0.4811140000000  0.4376290000000 1.0
C      1  0.4789440000000  0.5477810000000  0.4462600000000 1.0
C      1  0.4738890000000  0.5785900000000  0.5038730000000 1.0
C      1  0.4264270000000  0.5807540000000  0.4903330000000 1.0
C      1  0.4403900000000  0.5537370000000  0.5300660000000 1.0
C      1  0.4310840000000  0.4939220000000  0.5781640000000 1.0
C      1  0.4388590000000  0.4600480000000  0.5423240000000 1.0
C      1  0.4293920000000  0.4238090000000  0.4777910000000 1.0
C      1  0.4330960000000  0.4601980000000  0.4453270000000 1.0
C      1  0.4350480000000  0.5243490000000  0.4403880000000 1.0
END
