TITL C-3289328-6581-612 -1.38119014195685e-05 125000 -892.331611111286 0 0 165 (C1) n - 1
REM
REM in /nfs/bkarasulu/CARBON/AIRSS/Generating-Clusters/AIREBO/with-SteepDescent/Higher-Symm/SD-CG/HFTN-CG
REM
REM
REM
REM
REM
REM ./C.cell (b20cbc046b6831c77cfcea5457e17084)
REM
REM compiler GCC version 9.2.1 20190827 (Red Hat 9.2.1-1)
REM options -cpp -mtune=generic -march=x86-64 -g -O0 -fpre-include=/usr/include/finclude/math-vector-fortran.h
REM seed -131014621 -953762368 -1002956350 -907756446 -219162888 1082115086 1521738255 100681176 -261227060 -1108418953 1360812009 -227438910 1789116044 -1940300211 -12443740 -829090074 347370074 1185314399 150932478 202884904 740315045 1334087664 1018742694 689376299 1722273118 -706772190 -185852492 -1881362787 -321292331 120670232 1507951296 1803515715 1174028860
REM
CELL 1.54180   50.00000   50.00000   50.00000   90.00000   90.00000   90.00000
LATT -1
SFAC C  
C      1  0.5714520000000  0.5255910000000  0.5701500000000 1.0
C      1  0.4475030000000  0.5234000000000  0.5988170000000 1.0
C      1  0.3963320000000  0.5284110000000  0.4827270000000 1.0
C      1  0.4820330000000  0.5256040000000  0.3960350000000 1.0
C      1  0.5923430000000  0.5316150000000  0.4557800000000 1.0
C      1  0.4230270000000  0.5484050000000  0.4893580000000 1.0
C      1  0.4883000000000  0.5435890000000  0.4242110000000 1.0
C      1  0.5647000000000  0.5466420000000  0.4686920000000 1.0
C      1  0.5495170000000  0.5473260000000  0.5558970000000 1.0
C      1  0.4604190000000  0.5396740000000  0.5718890000000 1.0
C      1  0.4711100000000  0.5362470000000  0.4526280000000 1.0
C      1  0.5364110000000  0.5314580000000  0.4574270000000 1.0
C      1  0.5477850000000  0.5336050000000  0.5247960000000 1.0
C      1  0.4921570000000  0.5337900000000  0.5611480000000 1.0
C      1  0.4431530000000  0.5347030000000  0.5131110000000 1.0
C      1  0.5192550000000  0.5150950000000  0.5259360000000 1.0
C      1  0.4752790000000  0.5265200000000  0.5352050000000 1.0
C      1  0.4682900000000  0.5264420000000  0.4912970000000 1.0
C      1  0.4987880000000  0.5199220000000  0.4637370000000 1.0
C      1  0.5317520000000  0.5248240000000  0.4893380000000 1.0
C      1  0.4274780000000  0.4850850000000  0.5345440000000 1.0
C      1  0.4516540000000  0.4852710000000  0.4453320000000 1.0
C      1  0.5385360000000  0.4840540000000  0.4326070000000 1.0
C      1  0.5741210000000  0.4884810000000  0.5190340000000 1.0
C      1  0.5060350000000  0.4812960000000  0.5771840000000 1.0
C      1  0.4433800000000  0.5053540000000  0.4203730000000 1.0
C      1  0.5628080000000  0.5038780000000  0.4256140000000 1.0
C      1  0.5911840000000  0.5084060000000  0.5384800000000 1.0
C      1  0.4952460000000  0.5012710000000  0.6009090000000 1.0
C      1  0.4033080000000  0.5020440000000  0.5230710000000 1.0
C      1  0.4701050000000  0.5781930000000  0.5428630000000 1.0
C      1  0.4603630000000  0.5791490000000  0.4960970000000 1.0
C      1  0.4883060000000  0.5723410000000  0.4519600000000 1.0
C      1  0.5309390000000  0.5676160000000  0.4723230000000 1.0
C      1  0.5279580000000  0.5678430000000  0.5292180000000 1.0
C      1  0.4630260000000  0.4490150000000  0.5307030000000 1.0
C      1  0.4671080000000  0.4489290000000  0.4818470000000 1.0
C      1  0.5162390000000  0.4465920000000  0.4526700000000 1.0
C      1  0.5510390000000  0.4493880000000  0.4958450000000 1.0
C      1  0.5093180000000  0.4466510000000  0.5330730000000 1.0
C      1  0.4954210000000  0.4057840000000  0.4524190000000 1.0
C      1  0.5477820000000  0.4063620000000  0.4766500000000 1.0
C      1  0.5317250000000  0.4100400000000  0.5325740000000 1.0
C      1  0.4730850000000  0.4028160000000  0.5444330000000 1.0
C      1  0.4468980000000  0.4022340000000  0.4917980000000 1.0
C      1  0.5143630000000  0.5945010000000  0.5422250000000 1.0
C      1  0.4880200000000  0.5984150000000  0.5354490000000 1.0
C      1  0.4808680000000  0.6038680000000  0.5053330000000 1.0
C      1  0.4888290000000  0.5951090000000  0.4730910000000 1.0
C      1  0.5352670000000  0.5944420000000  0.4914550000000 1.0
C      1  0.5486050000000  0.4183950000000  0.5042670000000 1.0
C      1  0.5044800000000  0.4157320000000  0.5463720000000 1.0
C      1  0.4570600000000  0.4170760000000  0.5206630000000 1.0
C      1  0.4684210000000  0.4172060000000  0.4696540000000 1.0
C      1  0.5241600000000  0.4158130000000  0.4553720000000 1.0
C      1  0.5508100000000  0.5008450000000  0.4975470000000 1.0
C      1  0.5186570000000  0.4950280000000  0.5491410000000 1.0
C      1  0.4585540000000  0.4989970000000  0.5346460000000 1.0
C      1  0.4555370000000  0.5032170000000  0.4739560000000 1.0
C      1  0.5109480000000  0.4971450000000  0.4475620000000 1.0
C      1  0.5682690000000  0.4954390000000  0.5596510000000 1.0
C      1  0.4657520000000  0.4989570000000  0.5889130000000 1.0
C      1  0.4055160000000  0.5003770000000  0.4916370000000 1.0
C      1  0.4756110000000  0.5024030000000  0.4183220000000 1.0
C      1  0.5800100000000  0.5033360000000  0.4523330000000 1.0
C      1  0.4905910000000  0.4651590000000  0.5545900000000 1.0
C      1  0.4434160000000  0.4675870000000  0.5151240000000 1.0
C      1  0.4734480000000  0.4633800000000  0.4518820000000 1.0
C      1  0.5393920000000  0.4671990000000  0.4598450000000 1.0
C      1  0.5530230000000  0.4663170000000  0.5215300000000 1.0
C      1  0.4245370000000  0.4214440000000  0.4981050000000 1.0
C      1  0.4808990000000  0.4228660000000  0.4321480000000 1.0
C      1  0.5630330000000  0.4241320000000  0.4572460000000 1.0
C      1  0.5588890000000  0.4223680000000  0.5424680000000 1.0
C      1  0.4721180000000  0.4200640000000  0.5691300000000 1.0
C      1  0.5110790000000  0.5436970000000  0.5372960000000 1.0
C      1  0.4688690000000  0.5560050000000  0.5195130000000 1.0
C      1  0.4728000000000  0.5575640000000  0.4783700000000 1.0
C      1  0.5088310000000  0.5512250000000  0.4597360000000 1.0
C      1  0.5380200000000  0.5559440000000  0.5015880000000 1.0
C      1  0.5129270000000  0.4448160000000  0.5921260000000 1.0
C      1  0.4134740000000  0.4454390000000  0.5438000000000 1.0
C      1  0.4340640000000  0.4474780000000  0.4361780000000 1.0
C      1  0.5441350000000  0.4475950000000  0.4132060000000 1.0
C      1  0.5936250000000  0.4505570000000  0.5156640000000 1.0
C      1  0.5252330000000  0.4746140000000  0.5282420000000 1.0
C      1  0.4805850000000  0.4776720000000  0.5254420000000 1.0
C      1  0.4590770000000  0.4795400000000  0.4918380000000 1.0
C      1  0.5001750000000  0.4735090000000  0.4648280000000 1.0
C      1  0.5327260000000  0.4772350000000  0.4891030000000 1.0
C      1  0.4585500000000  0.4617320000000  0.3944950000000 1.0
C      1  0.5904540000000  0.4625680000000  0.4261220000000 1.0
C      1  0.5925630000000  0.4519540000000  0.5585110000000 1.0
C      1  0.4680530000000  0.4572330000000  0.6115070000000 1.0
C      1  0.3863650000000  0.4558620000000  0.5067140000000 1.0
C      1  0.4688170000000  0.4675790000000  0.5810660000000 1.0
C      1  0.4137680000000  0.4692850000000  0.4985060000000 1.0
C      1  0.4771500000000  0.4700270000000  0.4186810000000 1.0
C      1  0.5721320000000  0.4720160000000  0.4505050000000 1.0
C      1  0.5652510000000  0.4649850000000  0.5523260000000 1.0
C      1  0.4579900000000  0.5713670000000  0.5656420000000 1.0
C      1  0.4322410000000  0.5795520000000  0.4906570000000 1.0
C      1  0.4894760000000  0.5775400000000  0.4225540000000 1.0
C      1  0.5615080000000  0.5799200000000  0.4749940000000 1.0
C      1  0.5404350000000  0.5800810000000  0.5573230000000 1.0
C      1  0.6006780000000  0.4755910000000  0.5357300000000 1.0
C      1  0.4986680000000  0.4679620000000  0.6075820000000 1.0
C      1  0.3965250000000  0.4708560000000  0.5344710000000 1.0
C      1  0.4373570000000  0.4721590000000  0.4172060000000 1.0
C      1  0.5628530000000  0.4727130000000  0.4117230000000 1.0
C      1  0.4331870000000  0.4464250000000  0.4831070000000 1.0
C      1  0.4982170000000  0.4473100000000  0.4249790000000 1.0
C      1  0.5728540000000  0.4492400000000  0.4723380000000 1.0
C      1  0.5379090000000  0.4447570000000  0.5514380000000 1.0
C      1  0.4569340000000  0.4452640000000  0.5621450000000 1.0
C      1  0.5190710000000  0.4542180000000  0.4043460000000 1.0
C      1  0.5962970000000  0.4585860000000  0.4895310000000 1.0
C      1  0.5362210000000  0.4532100000000  0.5809150000000 1.0
C      1  0.4282690000000  0.4533180000000  0.5655710000000 1.0
C      1  0.4192840000000  0.4551070000000  0.4577420000000 1.0
C      1  0.5802310000000  0.5067850000000  0.4843220000000 1.0
C      1  0.5384890000000  0.5036850000000  0.5722910000000 1.0
C      1  0.4448610000000  0.5027800000000  0.5651250000000 1.0
C      1  0.4245910000000  0.5064890000000  0.4654220000000 1.0
C      1  0.5080310000000  0.5017300000000  0.4140910000000 1.0
C      1  0.4561990000000  0.5513700000000  0.4160960000000 1.0
C      1  0.5648370000000  0.5519460000000  0.4350940000000 1.0
C      1  0.5805620000000  0.5558740000000  0.5449630000000 1.0
C      1  0.4817450000000  0.5472870000000  0.5972730000000 1.0
C      1  0.4029150000000  0.5506700000000  0.5166850000000 1.0
C      1  0.5516780000000  0.5315450000000  0.4206700000000 1.0
C      1  0.5888120000000  0.5359480000000  0.5271560000000 1.0
C      1  0.5038660000000  0.5297550000000  0.5989720000000 1.0
C      1  0.4088740000000  0.5296720000000  0.5339780000000 1.0
C      1  0.4386320000000  0.5337070000000  0.4285940000000 1.0
C      1  0.4080300000000  0.4797650000000  0.4576170000000 1.0
C      1  0.5160300000000  0.4795680000000  0.3944160000000 1.0
C      1  0.6030960000000  0.4847400000000  0.4857700000000 1.0
C      1  0.5474140000000  0.4769020000000  0.5881340000000 1.0
C      1  0.4251080000000  0.4792160000000  0.5740110000000 1.0
C      1  0.4533640000000  0.4288030000000  0.4412870000000 1.0
C      1  0.5461890000000  0.4289530000000  0.4329480000000 1.0
C      1  0.5763410000000  0.4301900000000  0.5201290000000 1.0
C      1  0.4998040000000  0.4247640000000  0.5789940000000 1.0
C      1  0.4244810000000  0.4259820000000  0.5276940000000 1.0
C      1  0.4379080000000  0.5365650000000  0.4608660000000 1.0
C      1  0.5198900000000  0.5305880000000  0.4276030000000 1.0
C      1  0.5714870000000  0.5348020000000  0.5002560000000 1.0
C      1  0.5239280000000  0.5328970000000  0.5734850000000 1.0
C      1  0.4378700000000  0.5307890000000  0.5471510000000 1.0
C      1  0.5221670000000  0.3139840000000  0.4931030000000 1.0
C      1  0.5142000000000  0.6946670000000  0.4779250000000 1.0
C      1  0.5120830000000  0.3380800000000  0.4952540000000 1.0
C      1  0.5029680000000  0.3631010000000  0.4951610000000 1.0
C      1  0.5135570000000  0.6154310000000  0.4812150000000 1.0
C      1  0.4948040000000  0.3881040000000  0.4974960000000 1.0
C      1  0.4992590000000  0.5484020000000  0.5068750000000 1.0
C      1  0.5001500000000  0.4816660000000  0.4978530000000 1.0
C      1  0.4839740000000  0.4175180000000  0.4998910000000 1.0
C      1  0.5128410000000  0.7208350000000  0.4785720000000 1.0
C      1  0.5150370000000  0.6681090000000  0.4798090000000 1.0
C      1  0.4946860000000  0.4483750000000  0.5022810000000 1.0
C      1  0.5147700000000  0.6414820000000  0.4793020000000 1.0
C      1  0.4999910000000  0.5157170000000  0.4974680000000 1.0
C      1  0.5050770000000  0.5808200000000  0.4993060000000 1.0
END
