TITL C-3289327-5623-616 0.000883995923967355 125000 -654.025708606145 0 0 121 (C1) n - 1
REM
REM in /nfs/bkarasulu/CARBON/AIRSS/Generating-Clusters/AIREBO/with-SteepDescent/Higher-Symm/SD-CG/HFTN-CG
REM
REM
REM
REM
REM
REM ./C.cell (b20cbc046b6831c77cfcea5457e17084)
REM
REM compiler GCC version 9.2.1 20190827 (Red Hat 9.2.1-1)
REM options -cpp -mtune=generic -march=x86-64 -g -O0 -fpre-include=/usr/include/finclude/math-vector-fortran.h
REM seed -266874801 -654491653 -1754455915 -1142190819 549248186 1935190064 -1627394899 1094284267 354750275 1481440695 1361371530 1305144669 2106643234 -1613059702 -1320261160 1558362042 2036559729 -1518953111 1521349022 1428689885 -535883772 2027950080 1186175568 -997394265 -2077515914 539227783 -821309685 887191406 -175383429 -1253652644 -776288313 2008964470 -1901036352
REM
CELL 1.54180   50.00000   50.00000   50.00000   90.00000   90.00000   90.00000
LATT -1
SFAC C  
C      1  0.5181280000000  0.4587860000000  0.5153310000000 1.0
C      1  0.5106290000000  0.5136010000000  0.4519830000000 1.0
C      1  0.4592820000000  0.5152560000000  0.5093460000000 1.0
C      1  0.5136880000000  0.5382820000000  0.4719510000000 1.0
C      1  0.4831460000000  0.5360870000000  0.5217640000000 1.0
C      1  0.4830920000000  0.4646540000000  0.4747790000000 1.0
C      1  0.5183770000000  0.4865630000000  0.5459500000000 1.0
C      1  0.4837330000000  0.4843620000000  0.4487980000000 1.0
C      1  0.4704710000000  0.5169670000000  0.5468710000000 1.0
C      1  0.4567580000000  0.4834220000000  0.4852890000000 1.0
C      1  0.5386770000000  0.4832950000000  0.5190710000000 1.0
C      1  0.5380440000000  0.5162890000000  0.4809500000000 1.0
C      1  0.4870960000000  0.4668470000000  0.5266690000000 1.0
C      1  0.4763880000000  0.5134770000000  0.4525630000000 1.0
C      1  0.5426610000000  0.5144980000000  0.5107630000000 1.0
C      1  0.4876150000000  0.5440170000000  0.4889150000000 1.0
C      1  0.5113900000000  0.5375650000000  0.5406570000000 1.0
C      1  0.5156480000000  0.4570330000000  0.4809460000000 1.0
C      1  0.4847300000000  0.4908650000000  0.5491720000000 1.0
C      1  0.5176520000000  0.4829490000000  0.4507270000000 1.0
C      1  0.5322000000000  0.5160420000000  0.5408050000000 1.0
C      1  0.5374390000000  0.4825960000000  0.4756740000000 1.0
C      1  0.4582380000000  0.4818430000000  0.5167370000000 1.0
C      1  0.4618810000000  0.5152560000000  0.4780010000000 1.0
C      1  0.5431780000000  0.4204050000000  0.5530470000000 1.0
C      1  0.5613000000000  0.5433110000000  0.4302150000000 1.0
C      1  0.4203040000000  0.5541960000000  0.5417560000000 1.0
C      1  0.5512740000000  0.5706940000000  0.4428430000000 1.0
C      1  0.4481760000000  0.5675340000000  0.5528100000000 1.0
C      1  0.4533660000000  0.4185630000000  0.4411370000000 1.0
C      1  0.5562540000000  0.4463910000000  0.5675760000000 1.0
C      1  0.4436240000000  0.4463730000000  0.4264340000000 1.0
C      1  0.4269260000000  0.5545150000000  0.5741740000000 1.0
C      1  0.4300770000000  0.4372020000000  0.4536090000000 1.0
C      1  0.5682670000000  0.4360380000000  0.5399260000000 1.0
C      1  0.5782250000000  0.5563290000000  0.4547380000000 1.0
C      1  0.4591650000000  0.4361350000000  0.5716430000000 1.0
C      1  0.4401000000000  0.5486360000000  0.4278360000000 1.0
C      1  0.5699930000000  0.5623600000000  0.5429250000000 1.0
C      1  0.4549660000000  0.5725780000000  0.4426130000000 1.0
C      1  0.5499540000000  0.5727550000000  0.5659340000000 1.0
C      1  0.5519340000000  0.4341200000000  0.4403980000000 1.0
C      1  0.4413930000000  0.4608440000000  0.5819480000000 1.0
C      1  0.5713970000000  0.4540330000000  0.4234390000000 1.0
C      1  0.5699490000000  0.5492970000000  0.5720180000000 1.0
C      1  0.5796690000000  0.4453560000000  0.4537000000000 1.0
C      1  0.4343570000000  0.4446870000000  0.5539520000000 1.0
C      1  0.4304720000000  0.5578870000000  0.4568110000000 1.0
C      1  0.4176440000000  0.4791890000000  0.4838340000000 1.0
C      1  0.4883510000000  0.4252590000000  0.4767650000000 1.0
C      1  0.4736640000000  0.4854390000000  0.4112310000000 1.0
C      1  0.4178920000000  0.5252110000000  0.5114060000000 1.0
C      1  0.5769770000000  0.5252090000000  0.4790580000000 1.0
C      1  0.5777380000000  0.4833670000000  0.5114890000000 1.0
C      1  0.4907800000000  0.5752530000000  0.5243760000000 1.0
C      1  0.5122630000000  0.5777720000000  0.4779840000000 1.0
C      1  0.5145060000000  0.4207330000000  0.5258170000000 1.0
C      1  0.4648450000000  0.5188780000000  0.5859670000000 1.0
C      1  0.5194240000000  0.5140610000000  0.4131860000000 1.0
C      1  0.5291430000000  0.4883000000000  0.5841940000000 1.0
C      1  0.5808630000000  0.4729450000000  0.4814770000000 1.0
C      1  0.5141610000000  0.4190240000000  0.4689720000000 1.0
C      1  0.5265580000000  0.4827500000000  0.4120450000000 1.0
C      1  0.5821510000000  0.5175020000000  0.5092610000000 1.0
C      1  0.4221220000000  0.5130070000000  0.4809970000000 1.0
C      1  0.4193900000000  0.4728840000000  0.5144890000000 1.0
C      1  0.5202020000000  0.5752120000000  0.5321240000000 1.0
C      1  0.4883200000000  0.5835220000000  0.4922550000000 1.0
C      1  0.4845460000000  0.4270610000000  0.5290310000000 1.0
C      1  0.5299300000000  0.5164720000000  0.5806210000000 1.0
C      1  0.4855150000000  0.5172310000000  0.4140740000000 1.0
C      1  0.4675040000000  0.4905880000000  0.5850820000000 1.0
C      1  0.5416200000000  0.4267520000000  0.5119520000000 1.0
C      1  0.5118820000000  0.5444220000000  0.4265980000000 1.0
C      1  0.4235610000000  0.5144230000000  0.5400620000000 1.0
C      1  0.5380520000000  0.5684680000000  0.4884150000000 1.0
C      1  0.4597090000000  0.5672260000000  0.5131390000000 1.0
C      1  0.4611810000000  0.4322170000000  0.4864390000000 1.0
C      1  0.5133540000000  0.4611200000000  0.5762510000000 1.0
C      1  0.4860270000000  0.4554680000000  0.4215270000000 1.0
C      1  0.4841070000000  0.5398160000000  0.5764780000000 1.0
C      1  0.4302850000000  0.4858320000000  0.4529470000000 1.0
C      1  0.5722910000000  0.4811500000000  0.5446110000000 1.0
C      1  0.5707190000000  0.5123570000000  0.4533140000000 1.0
C      1  0.4606150000000  0.4309990000000  0.5143220000000 1.0
C      1  0.4826180000000  0.5477570000000  0.4288720000000 1.0
C      1  0.5752390000000  0.5097540000000  0.5414850000000 1.0
C      1  0.4584880000000  0.5705510000000  0.4822580000000 1.0
C      1  0.5411560000000  0.5664100000000  0.5155520000000 1.0
C      1  0.5409390000000  0.4262960000000  0.4830990000000 1.0
C      1  0.4836800000000  0.4652040000000  0.5826550000000 1.0
C      1  0.5145130000000  0.4554680000000  0.4220660000000 1.0
C      1  0.5121680000000  0.5383360000000  0.5805040000000 1.0
C      1  0.5717060000000  0.4844320000000  0.4542960000000 1.0
C      1  0.4269280000000  0.4868940000000  0.5406610000000 1.0
C      1  0.4302610000000  0.5147880000000  0.4480280000000 1.0
C      1  0.4439870000000  0.5431850000000  0.5213790000000 1.0
C      1  0.5221470000000  0.4463810000000  0.5467950000000 1.0
C      1  0.5412120000000  0.5202100000000  0.4385620000000 1.0
C      1  0.4403480000000  0.4550270000000  0.4762410000000 1.0
C      1  0.5585800000000  0.4557860000000  0.5171790000000 1.0
C      1  0.5524860000000  0.5464600000000  0.4746420000000 1.0
C      1  0.5233040000000  0.5626370000000  0.4502570000000 1.0
C      1  0.4753470000000  0.5562840000000  0.5480130000000 1.0
C      1  0.4753060000000  0.4422840000000  0.4503720000000 1.0
C      1  0.5469230000000  0.4746500000000  0.5601690000000 1.0
C      1  0.4538890000000  0.4737690000000  0.4363090000000 1.0
C      1  0.4421660000000  0.5278410000000  0.5622530000000 1.0
C      1  0.5609110000000  0.5411240000000  0.5214600000000 1.0
C      1  0.4833170000000  0.4469330000000  0.5539810000000 1.0
C      1  0.4546430000000  0.5210550000000  0.4278200000000 1.0
C      1  0.5549790000000  0.4534240000000  0.4751570000000 1.0
C      1  0.4428190000000  0.4531030000000  0.5264070000000 1.0
C      1  0.4416530000000  0.5408490000000  0.4815660000000 1.0
C      1  0.4808410000000  0.5609760000000  0.4601590000000 1.0
C      1  0.5215790000000  0.5626170000000  0.5613030000000 1.0
C      1  0.5248500000000  0.4437000000000  0.4509340000000 1.0
C      1  0.4533480000000  0.4797520000000  0.5563390000000 1.0
C      1  0.5472010000000  0.4736410000000  0.4367030000000 1.0
C      1  0.5567690000000  0.5232320000000  0.5632130000000 1.0
C      1  0.4939290000000  0.4856910000000  0.4991960000000 1.0
END
