TITL C-3289321-8710-370 0.00296538835193279 125000 -1062.18706397855 0 0 191 (C1) n - 1
REM
REM in /nfs/bkarasulu/CARBON/AIRSS/Generating-Clusters/AIREBO/with-SteepDescent/Higher-Symm/SD-CG/HFTN-CG
REM
REM
REM
REM
REM
REM ./C.cell (b20cbc046b6831c77cfcea5457e17084)
REM
REM compiler GCC version 9.2.1 20190827 (Red Hat 9.2.1-1)
REM options -cpp -mtune=generic -march=x86-64 -g -O0 -fpre-include=/usr/include/finclude/math-vector-fortran.h
REM seed 1932818725 1496377159 -1233912592 1800854898 1999037434 1537082 447417563 -2007585805 993422542 -2133272942 -1697568380 -529103071 -711505841 -1953713479 876522760 -128301424 1162658877 -1533451537 -1337092048 1667070503 894946735 1805874000 1294992193 -411418300 -1843753122 1996207585 187645372 1179582696 -1311380103 733949138 -1630753851 2030772263 -1288980969
REM
CELL 1.54180   50.00000   50.00000   50.00000   90.00000   90.00000   90.00000
LATT -1
SFAC C  
C      1  0.5911000000000  0.5748050000000  0.4587030000000 1.0
C      1  0.4086520000000  0.4302390000000  0.5358720000000 1.0
C      1  0.5456280000000  0.5527680000000  0.5133130000000 1.0
C      1  0.4500000000000  0.4450090000000  0.5070160000000 1.0
C      1  0.4957090000000  0.5483530000000  0.4952790000000 1.0
C      1  0.5030410000000  0.4483340000000  0.4979630000000 1.0
C      1  0.5056380000000  0.4285720000000  0.4448160000000 1.0
C      1  0.4923880000000  0.5621500000000  0.5527080000000 1.0
C      1  0.4190700000000  0.5199020000000  0.5180090000000 1.0
C      1  0.5726540000000  0.4855160000000  0.4699750000000 1.0
C      1  0.5467520000000  0.5129810000000  0.6071640000000 1.0
C      1  0.4546230000000  0.4872300000000  0.3958080000000 1.0
C      1  0.5590660000000  0.4629170000000  0.4999990000000 1.0
C      1  0.4468640000000  0.5418710000000  0.4992690000000 1.0
C      1  0.4700860000000  0.5019000000000  0.5118170000000 1.0
C      1  0.5252890000000  0.4929280000000  0.4879840000000 1.0
C      1  0.4972870000000  0.4375300000000  0.5358270000000 1.0
C      1  0.5173270000000  0.5673300000000  0.4675800000000 1.0
C      1  0.5571110000000  0.5369520000000  0.4359220000000 1.0
C      1  0.4333460000000  0.4737740000000  0.5489070000000 1.0
C      1  0.5748220000000  0.5865150000000  0.5254000000000 1.0
C      1  0.4306980000000  0.4166290000000  0.4824330000000 1.0
C      1  0.4321000000000  0.5157560000000  0.5729670000000 1.0
C      1  0.5678040000000  0.5096450000000  0.4254490000000 1.0
C      1  0.5360520000000  0.4812040000000  0.5163800000000 1.0
C      1  0.4726350000000  0.5240260000000  0.4860990000000 1.0
C      1  0.5225350000000  0.6138400000000  0.4789850000000 1.0
C      1  0.4750680000000  0.3821250000000  0.5396590000000 1.0
C      1  0.4923860000000  0.5084360000000  0.4630720000000 1.0
C      1  0.5104120000000  0.4882560000000  0.5376050000000 1.0
C      1  0.5943700000000  0.4925370000000  0.5224370000000 1.0
C      1  0.4041060000000  0.5027170000000  0.4676540000000 1.0
C      1  0.5062060000000  0.5726440000000  0.5126530000000 1.0
C      1  0.4908760000000  0.4191010000000  0.4927410000000 1.0
C      1  0.5129490000000  0.5279030000000  0.5276340000000 1.0
C      1  0.4764550000000  0.4619650000000  0.4674380000000 1.0
C      1  0.6137620000000  0.5054900000000  0.4988280000000 1.0
C      1  0.3812140000000  0.4904540000000  0.4877450000000 1.0
C      1  0.4569660000000  0.6055430000000  0.5377740000000 1.0
C      1  0.5445360000000  0.3936060000000  0.4686290000000 1.0
C      1  0.4934180000000  0.5740770000000  0.4480350000000 1.0
C      1  0.5144590000000  0.4220680000000  0.5877850000000 1.0
C      1  0.5341030000000  0.5148050000000  0.3837750000000 1.0
C      1  0.4649540000000  0.4930160000000  0.6130420000000 1.0
C      1  0.5638200000000  0.4526080000000  0.4707570000000 1.0
C      1  0.4329520000000  0.5499500000000  0.5251590000000 1.0
C      1  0.5328360000000  0.5421030000000  0.5835710000000 1.0
C      1  0.4689480000000  0.4624360000000  0.4105440000000 1.0
C      1  0.5721450000000  0.4349430000000  0.4368170000000 1.0
C      1  0.4310910000000  0.5612570000000  0.5624810000000 1.0
C      1  0.6131550000000  0.4861220000000  0.5500870000000 1.0
C      1  0.4023240000000  0.5154930000000  0.4366170000000 1.0
C      1  0.5089500000000  0.4449180000000  0.5669040000000 1.0
C      1  0.4928040000000  0.5498080000000  0.4283650000000 1.0
C      1  0.4887730000000  0.6162320000000  0.4848140000000 1.0
C      1  0.5056100000000  0.3817230000000  0.5247160000000 1.0
C      1  0.5097480000000  0.4679050000000  0.4709800000000 1.0
C      1  0.4798160000000  0.5292250000000  0.5285250000000 1.0
C      1  0.5161240000000  0.5006960000000  0.6119750000000 1.0
C      1  0.4784140000000  0.5043560000000  0.3878420000000 1.0
C      1  0.4679580000000  0.4017780000000  0.4597650000000 1.0
C      1  0.5322760000000  0.5889700000000  0.5504380000000 1.0
C      1  0.5476970000000  0.5662500000000  0.4824560000000 1.0
C      1  0.4716280000000  0.4266580000000  0.5163380000000 1.0
C      1  0.5790150000000  0.5514890000000  0.5068660000000 1.0
C      1  0.4263840000000  0.4574000000000  0.4861730000000 1.0
C      1  0.5888280000000  0.4858290000000  0.4404540000000 1.0
C      1  0.4098560000000  0.5176900000000  0.5568680000000 1.0
C      1  0.5437500000000  0.4960190000000  0.4605600000000 1.0
C      1  0.4418630000000  0.5012820000000  0.5308140000000 1.0
C      1  0.4656090000000  0.5741040000000  0.4631640000000 1.0
C      1  0.5297300000000  0.4296180000000  0.5289730000000 1.0
C      1  0.4573310000000  0.4542180000000  0.4403900000000 1.0
C      1  0.5504290000000  0.5475840000000  0.5556290000000 1.0
C      1  0.4627660000000  0.5566290000000  0.5697630000000 1.0
C      1  0.5448900000000  0.4476030000000  0.4269030000000 1.0
C      1  0.5482530000000  0.5992270000000  0.4834180000000 1.0
C      1  0.4555880000000  0.4029470000000  0.5302430000000 1.0
C      1  0.5688200000000  0.5512400000000  0.4640020000000 1.0
C      1  0.4314500000000  0.4507270000000  0.5290210000000 1.0
C      1  0.5545160000000  0.6029400000000  0.5135380000000 1.0
C      1  0.4474480000000  0.3999240000000  0.4988220000000 1.0
C      1  0.4481450000000  0.5620210000000  0.4151040000000 1.0
C      1  0.5516810000000  0.4398980000000  0.5857060000000 1.0
C      1  0.4679370000000  0.3878000000000  0.4835710000000 1.0
C      1  0.5316280000000  0.6062410000000  0.5286790000000 1.0
C      1  0.4057930000000  0.4928920000000  0.5457040000000 1.0
C      1  0.5996720000000  0.5072420000000  0.4195890000000 1.0
C      1  0.5079040000000  0.4859250000000  0.4422050000000 1.0
C      1  0.4966850000000  0.5151390000000  0.5532540000000 1.0
C      1  0.5845290000000  0.4228850000000  0.5098190000000 1.0
C      1  0.4097980000000  0.5761430000000  0.4892350000000 1.0
C      1  0.4636580000000  0.4156530000000  0.4323090000000 1.0
C      1  0.5307720000000  0.5753380000000  0.5765470000000 1.0
C      1  0.4367430000000  0.4176350000000  0.5503720000000 1.0
C      1  0.5624870000000  0.5901810000000  0.4541850000000 1.0
C      1  0.4618210000000  0.4732260000000  0.4955030000000 1.0
C      1  0.5357820000000  0.5212980000000  0.5049980000000 1.0
C      1  0.5234300000000  0.3829170000000  0.4765120000000 1.0
C      1  0.4795010000000  0.6144350000000  0.5318970000000 1.0
C      1  0.5677200000000  0.5682760000000  0.4279880000000 1.0
C      1  0.4265430000000  0.4461510000000  0.5675330000000 1.0
C      1  0.4857040000000  0.4424390000000  0.3968800000000 1.0
C      1  0.5208200000000  0.5342490000000  0.6148820000000 1.0
C      1  0.4123620000000  0.5331550000000  0.4636290000000 1.0
C      1  0.5894820000000  0.4658420000000  0.5416180000000 1.0
C      1  0.5649110000000  0.4627070000000  0.5562840000000 1.0
C      1  0.4311340000000  0.5337100000000  0.4375390000000 1.0
C      1  0.4865530000000  0.5307940000000  0.3835470000000 1.0
C      1  0.5125930000000  0.4691900000000  0.6147900000000 1.0
C      1  0.5031230000000  0.6046080000000  0.5129320000000 1.0
C      1  0.4991260000000  0.3885520000000  0.4953520000000 1.0
C      1  0.5233030000000  0.5416400000000  0.4345230000000 1.0
C      1  0.4789890000000  0.4542860000000  0.5670380000000 1.0
C      1  0.4612200000000  0.5426400000000  0.4619930000000 1.0
C      1  0.5418680000000  0.4578480000000  0.5356850000000 1.0
C      1  0.4195970000000  0.4950870000000  0.4965420000000 1.0
C      1  0.5739490000000  0.5037290000000  0.4982460000000 1.0
C      1  0.4649040000000  0.5312690000000  0.4343370000000 1.0
C      1  0.5317070000000  0.4659660000000  0.5635460000000 1.0
C      1  0.5169740000000  0.4431110000000  0.4079740000000 1.0
C      1  0.4954480000000  0.5488950000000  0.6010530000000 1.0
C      1  0.3960600000000  0.5527110000000  0.5112500000000 1.0
C      1  0.5994960000000  0.4436880000000  0.4862100000000 1.0
C      1  0.5250690000000  0.4474380000000  0.6034090000000 1.0
C      1  0.4759080000000  0.5507520000000  0.4015160000000 1.0
C      1  0.5645710000000  0.4102700000000  0.5275110000000 1.0
C      1  0.4301990000000  0.5910720000000  0.4695500000000 1.0
C      1  0.4604300000000  0.6046140000000  0.4772510000000 1.0
C      1  0.5333350000000  0.3968620000000  0.5262590000000 1.0
C      1  0.5849000000000  0.4547070000000  0.5140130000000 1.0
C      1  0.4189730000000  0.5458730000000  0.4876920000000 1.0
C      1  0.4985980000000  0.6023950000000  0.4363410000000 1.0
C      1  0.5083690000000  0.3961760000000  0.5809130000000 1.0
C      1  0.5382220000000  0.4803500000000  0.4330200000000 1.0
C      1  0.4598630000000  0.5013140000000  0.5596640000000 1.0
C      1  0.5034650000000  0.6213380000000  0.4551480000000 1.0
C      1  0.5003700000000  0.3832150000000  0.5583580000000 1.0
C      1  0.4940110000000  0.4193530000000  0.4173370000000 1.0
C      1  0.5027580000000  0.5682680000000  0.5824950000000 1.0
C      1  0.3963480000000  0.4644180000000  0.4718530000000 1.0
C      1  0.6042820000000  0.5304200000000  0.5155020000000 1.0
C      1  0.5472830000000  0.4962250000000  0.4045450000000 1.0
C      1  0.4585330000000  0.5136770000000  0.5914990000000 1.0
C      1  0.4081100000000  0.4313740000000  0.4957630000000 1.0
C      1  0.5947930000000  0.5791350000000  0.5043230000000 1.0
C      1  0.4024670000000  0.4797490000000  0.5198760000000 1.0
C      1  0.5797530000000  0.5297230000000  0.4840710000000 1.0
C      1  0.5142120000000  0.5319920000000  0.3765710000000 1.0
C      1  0.4851430000000  0.4778200000000  0.6226390000000 1.0
C      1  0.5988400000000  0.5471530000000  0.5411720000000 1.0
C      1  0.4075410000000  0.4416270000000  0.4549390000000 1.0
C      1  0.5636820000000  0.4717250000000  0.5867030000000 1.0
C      1  0.4368670000000  0.5319140000000  0.4060590000000 1.0
C      1  0.3901480000000  0.5210750000000  0.5001080000000 1.0
C      1  0.6015920000000  0.4776760000000  0.4860300000000 1.0
C      1  0.4685640000000  0.5654740000000  0.4945850000000 1.0
C      1  0.5349750000000  0.4409910000000  0.4973480000000 1.0
C      1  0.4824700000000  0.4307150000000  0.4641160000000 1.0
C      1  0.5231130000000  0.5584680000000  0.5385280000000 1.0
C      1  0.4693300000000  0.5416180000000  0.5939070000000 1.0
C      1  0.5414850000000  0.4641780000000  0.3974020000000 1.0
C      1  0.5301950000000  0.4963620000000  0.5627150000000 1.0
C      1  0.4721550000000  0.5028780000000  0.4386430000000 1.0
C      1  0.5525580000000  0.4220710000000  0.4609240000000 1.0
C      1  0.4482810000000  0.5767290000000  0.5385100000000 1.0
C      1  0.6063200000000  0.5830930000000  0.4795130000000 1.0
C      1  0.3941750000000  0.4522660000000  0.5156020000000 1.0
C      1  0.4397360000000  0.5016870000000  0.4153050000000 1.0
C      1  0.5616800000000  0.5006560000000  0.5867180000000 1.0
C      1  0.4472410000000  0.4856080000000  0.4443790000000 1.0
C      1  0.5554620000000  0.5144770000000  0.5562460000000 1.0
C      1  0.5267500000000  0.4398200000000  0.4638980000000 1.0
C      1  0.4717960000000  0.5580740000000  0.5266560000000 1.0
C      1  0.4403370000000  0.5758790000000  0.4404810000000 1.0
C      1  0.5504130000000  0.4243630000000  0.5554780000000 1.0
C      1  0.4389110000000  0.4288380000000  0.4516490000000 1.0
C      1  0.5749800000000  0.5637400000000  0.5446760000000 1.0
C      1  0.5929880000000  0.4550290000000  0.4542580000000 1.0
C      1  0.4059520000000  0.5470530000000  0.5439980000000 1.0
C      1  0.5204980000000  0.5372690000000  0.4812950000000 1.0
C      1  0.4852150000000  0.4642150000000  0.5184940000000 1.0
C      1  0.5570440000000  0.5058820000000  0.5265940000000 1.0
C      1  0.4395210000000  0.4852220000000  0.4730060000000 1.0
C      1  0.4886070000000  0.4888630000000  0.4162410000000 1.0
C      1  0.5140970000000  0.5145300000000  0.5812500000000 1.0
C      1  0.5227740000000  0.5197920000000  0.4568910000000 1.0
C      1  0.4796520000000  0.4788700000000  0.5486830000000 1.0
C      1  0.4573010000000  0.4373670000000  0.5689270000000 1.0
C      1  0.5378140000000  0.5712470000000  0.4419220000000 1.0
C      1  0.4983790000000  0.4972090000000  0.5005820000000 1.0
END
