TITL C-3289328-6581-316 -0.000608622813910268 125000 -242.086665235948 0 0 46 (C1) n - 1
REM
REM in /nfs/bkarasulu/CARBON/AIRSS/Generating-Clusters/AIREBO/with-SteepDescent/Higher-Symm/SD-CG/HFTN-CG
REM
REM
REM
REM
REM
REM ./C.cell (b20cbc046b6831c77cfcea5457e17084)
REM
REM compiler GCC version 9.2.1 20190827 (Red Hat 9.2.1-1)
REM options -cpp -mtune=generic -march=x86-64 -g -O0 -fpre-include=/usr/include/finclude/math-vector-fortran.h
REM seed 1967201806 -630232429 978842185 -1023913363 230549412 -1689118604 -958075140 374738780 -1256784500 -1750545069 1283193250 -293834344 1963991181 1567723533 -14244046 -1339773835 -1692679269 -2116883759 -867230876 1984790977 174217269 907094424 -447567316 -1618809394 -2101956360 2039451600 1318877354 628415 -2138832643 377630393 -1735337189 -1835373451 -35647433
REM
CELL 1.54180   50.00000   50.00000   50.00000   90.00000   90.00000   90.00000
LATT -1
SFAC C  
C      1  0.5348080000000  0.4435500000000  0.5269560000000 1.0
C      1  0.5583120000000  0.4252100000000  0.5134000000000 1.0
C      1  0.5642430000000  0.4294360000000  0.4813170000000 1.0
C      1  0.5399010000000  0.4341840000000  0.4592480000000 1.0
C      1  0.5140260000000  0.4448620000000  0.4524060000000 1.0
C      1  0.4869660000000  0.4294530000000  0.4632730000000 1.0
C      1  0.4565580000000  0.4187980000000  0.4687310000000 1.0
C      1  0.4478040000000  0.4213750000000  0.5000990000000 1.0
C      1  0.4555970000000  0.4470650000000  0.5192700000000 1.0
C      1  0.4756720000000  0.4541620000000  0.5434730000000 1.0
C      1  0.5082960000000  0.4536850000000  0.5427890000000 1.0
C      1  0.5693260000000  0.4305990000000  0.4478200000000 1.0
C      1  0.5116610000000  0.4750640000000  0.4528040000000 1.0
C      1  0.4957820000000  0.4270250000000  0.4299360000000 1.0
C      1  0.4696290000000  0.4123230000000  0.4384750000000 1.0
C      1  0.4240240000000  0.4146160000000  0.4767120000000 1.0
C      1  0.4385120000000  0.4207610000000  0.5319890000000 1.0
C      1  0.4575210000000  0.4282480000000  0.5539880000000 1.0
C      1  0.4925480000000  0.4823380000000  0.5411270000000 1.0
C      1  0.5320560000000  0.4391690000000  0.5614720000000 1.0
C      1  0.5558290000000  0.4250270000000  0.5471140000000 1.0
C      1  0.5865530000000  0.4120340000000  0.5000680000000 1.0
C      1  0.5749000000000  0.5378000000000  0.4795630000000 1.0
C      1  0.5324870000000  0.5678230000000  0.4516420000000 1.0
C      1  0.5096340000000  0.5010790000000  0.4567910000000 1.0
C      1  0.4747720000000  0.5614380000000  0.4478200000000 1.0
C      1  0.4590570000000  0.5010510000000  0.4809530000000 1.0
C      1  0.4291620000000  0.5626990000000  0.4853680000000 1.0
C      1  0.4288030000000  0.5347410000000  0.5401610000000 1.0
C      1  0.4754880000000  0.5749070000000  0.5499350000000 1.0
C      1  0.4946970000000  0.5077660000000  0.5392390000000 1.0
C      1  0.5269810000000  0.5724050000000  0.5296840000000 1.0
C      1  0.5486730000000  0.5065090000000  0.5219850000000 1.0
C      1  0.5294390000000  0.5449590000000  0.4657060000000 1.0
C      1  0.5069600000000  0.5282650000000  0.4613910000000 1.0
C      1  0.4810220000000  0.5397100000000  0.4625770000000 1.0
C      1  0.4620540000000  0.5278750000000  0.4799000000000 1.0
C      1  0.4463610000000  0.5450040000000  0.4963680000000 1.0
C      1  0.4492400000000  0.5432660000000  0.5246840000000 1.0
C      1  0.4739260000000  0.5515660000000  0.5364260000000 1.0
C      1  0.4966030000000  0.5348380000000  0.5336610000000 1.0
C      1  0.5208860000000  0.5458250000000  0.5247530000000 1.0
C      1  0.5394380000000  0.5293450000000  0.5108890000000 1.0
C      1  0.5484870000000  0.5374000000000  0.4852540000000 1.0
C      1  0.5386930000000  0.6235750000000  0.5351780000000 1.0
C      1  0.5316810000000  0.5985080000000  0.5321110000000 1.0
END
