TITL C-3289334-2237-17 -0.00552151006523554 125000 -665.483410021679 0 0 115 (C1) n - 1
REM
REM in /nfs/bkarasulu/CARBON/AIRSS/Generating-Clusters/AIREBO/with-SteepDescent/Higher-Symm/SD-CG/HFTN-CG
REM
REM
REM
REM
REM
REM ./C.cell (b20cbc046b6831c77cfcea5457e17084)
REM
REM compiler GCC version 9.2.1 20190827 (Red Hat 9.2.1-1)
REM options -cpp -mtune=generic -march=x86-64 -g -O0 -fpre-include=/usr/include/finclude/math-vector-fortran.h
REM seed 180015284 658250935 1230020783 1978561075 2091317811 -1170874272 772315639 466119354 1232286891 -1266852648 919563759 -809699488 -1806763074 683570944 1451162465 1363117026 997704822 1363448730 -1923555763 263618024 -636433166 1222495827 1182567495 -1897547301 1656257720 -1217264887 431088612 1965427775 -898745142 82074990 653711140 -1356511111 871666138
REM
CELL 1.54180   50.00000   50.00000   50.00000   90.00000   90.00000   90.00000
LATT -1
SFAC C  
C      1  0.4664070000000  0.5835750000000  0.5099340000000 1.0
C      1  0.4708210000000  0.5263270000000  0.5776860000000 1.0
C      1  0.4708730000000  0.4371780000000  0.5496310000000 1.0
C      1  0.4725920000000  0.4236940000000  0.4963340000000 1.0
C      1  0.4676440000000  0.4852550000000  0.4321760000000 1.0
C      1  0.4716870000000  0.5482210000000  0.4338890000000 1.0
C      1  0.5328980000000  0.4854950000000  0.4093210000000 1.0
C      1  0.5325520000000  0.5738350000000  0.4412690000000 1.0
C      1  0.5321900000000  0.5823250000000  0.5303240000000 1.0
C      1  0.5241320000000  0.5160860000000  0.5933840000000 1.0
C      1  0.5334180000000  0.4250820000000  0.5532670000000 1.0
C      1  0.5339090000000  0.4086800000000  0.4732410000000 1.0
C      1  0.5538980000000  0.4443640000000  0.4431130000000 1.0
C      1  0.5565900000000  0.5178860000000  0.4341870000000 1.0
C      1  0.5676670000000  0.5639990000000  0.4817040000000 1.0
C      1  0.5691360000000  0.5473960000000  0.5424610000000 1.0
C      1  0.5488100000000  0.4809730000000  0.5754300000000 1.0
C      1  0.5641030000000  0.4367600000000  0.5196640000000 1.0
C      1  0.5185850000000  0.5786570000000  0.5572490000000 1.0
C      1  0.5122880000000  0.4924300000000  0.6036770000000 1.0
C      1  0.5229050000000  0.4125780000000  0.5299730000000 1.0
C      1  0.5148890000000  0.4165470000000  0.4486710000000 1.0
C      1  0.5243480000000  0.5108530000000  0.3974730000000 1.0
C      1  0.5213370000000  0.5855780000000  0.4648290000000 1.0
C      1  0.5563450000000  0.4478240000000  0.4827380000000 1.0
C      1  0.5646890000000  0.4711620000000  0.4476860000000 1.0
C      1  0.5526140000000  0.5307130000000  0.4654410000000 1.0
C      1  0.5399720000000  0.5399050000000  0.4960640000000 1.0
C      1  0.5484940000000  0.5227890000000  0.5524650000000 1.0
C      1  0.5605610000000  0.4702030000000  0.5520920000000 1.0
C      1  0.5395620000000  0.4212940000000  0.5070350000000 1.0
C      1  0.5257920000000  0.4403560000000  0.4380710000000 1.0
C      1  0.5371510000000  0.5304650000000  0.4148030000000 1.0
C      1  0.5397900000000  0.5787690000000  0.4871520000000 1.0
C      1  0.5439430000000  0.5606200000000  0.5615450000000 1.0
C      1  0.5250210000000  0.4716820000000  0.5887000000000 1.0
C      1  0.4371670000000  0.4817460000000  0.5242730000000 1.0
C      1  0.4302610000000  0.4547760000000  0.5096200000000 1.0
C      1  0.4402860000000  0.4808260000000  0.4691710000000 1.0
C      1  0.4449150000000  0.5191430000000  0.4794060000000 1.0
C      1  0.4320500000000  0.5442220000000  0.4984200000000 1.0
C      1  0.4420110000000  0.5221510000000  0.5419910000000 1.0
C      1  0.4853470000000  0.4756110000000  0.4079320000000 1.0
C      1  0.4794820000000  0.5644960000000  0.4050710000000 1.0
C      1  0.4854520000000  0.6027800000000  0.5134640000000 1.0
C      1  0.4823220000000  0.5468820000000  0.5998000000000 1.0
C      1  0.4880430000000  0.4172590000000  0.5671240000000 1.0
C      1  0.4846430000000  0.3947640000000  0.4890410000000 1.0
C      1  0.4700150000000  0.4807780000000  0.4807690000000 1.0
C      1  0.4779200000000  0.5126060000000  0.4757810000000 1.0
C      1  0.4837070000000  0.5357570000000  0.5000070000000 1.0
C      1  0.4727430000000  0.5207580000000  0.5275050000000 1.0
C      1  0.4688360000000  0.4872070000000  0.5321090000000 1.0
C      1  0.4817080000000  0.4711340000000  0.5091970000000 1.0
C      1  0.5714390000000  0.4845850000000  0.5289850000000 1.0
C      1  0.5737010000000  0.4652830000000  0.5032190000000 1.0
C      1  0.5740080000000  0.4820790000000  0.4736450000000 1.0
C      1  0.5763960000000  0.5097340000000  0.4773250000000 1.0
C      1  0.5728870000000  0.5352410000000  0.4995100000000 1.0
C      1  0.5699850000000  0.5161270000000  0.5277110000000 1.0
C      1  0.4402460000000  0.5683690000000  0.5203990000000 1.0
C      1  0.4463000000000  0.5052220000000  0.5706550000000 1.0
C      1  0.4461530000000  0.4190310000000  0.5401650000000 1.0
C      1  0.4470250000000  0.4352530000000  0.4831400000000 1.0
C      1  0.4425990000000  0.5059720000000  0.4225090000000 1.0
C      1  0.4456790000000  0.5600310000000  0.4493200000000 1.0
C      1  0.5108660000000  0.4706010000000  0.4168470000000 1.0
C      1  0.5022320000000  0.5634650000000  0.4298070000000 1.0
C      1  0.5119650000000  0.5931840000000  0.5119870000000 1.0
C      1  0.5042330000000  0.5326580000000  0.5777140000000 1.0
C      1  0.5127220000000  0.4304220000000  0.5712120000000 1.0
C      1  0.5051540000000  0.4204000000000  0.4871140000000 1.0
C      1  0.4924890000000  0.5701030000000  0.5574170000000 1.0
C      1  0.4840140000000  0.4896490000000  0.6044040000000 1.0
C      1  0.4948820000000  0.4128560000000  0.5275560000000 1.0
C      1  0.4864800000000  0.4159410000000  0.4520230000000 1.0
C      1  0.4956460000000  0.5149870000000  0.3936150000000 1.0
C      1  0.4949860000000  0.5801630000000  0.4666390000000 1.0
C      1  0.5222410000000  0.5246550000000  0.4580010000000 1.0
C      1  0.5098150000000  0.5343630000000  0.5217640000000 1.0
C      1  0.5161750000000  0.5047740000000  0.5148390000000 1.0
C      1  0.5090150000000  0.4816630000000  0.5036100000000 1.0
C      1  0.5164580000000  0.4740740000000  0.4739700000000 1.0
C      1  0.5087460000000  0.5055290000000  0.4716780000000 1.0
C      1  0.4827900000000  0.4430340000000  0.5192380000000 1.0
C      1  0.4768000000000  0.4639760000000  0.4536260000000 1.0
C      1  0.4747420000000  0.5172280000000  0.4425750000000 1.0
C      1  0.4766990000000  0.5637130000000  0.4896840000000 1.0
C      1  0.4757880000000  0.5414380000000  0.5511630000000 1.0
C      1  0.4788020000000  0.4688980000000  0.5590570000000 1.0
C      1  0.4348190000000  0.5040390000000  0.4516070000000 1.0
C      1  0.4263420000000  0.5520810000000  0.4665030000000 1.0
C      1  0.4293860000000  0.5481280000000  0.5442050000000 1.0
C      1  0.4254270000000  0.4873570000000  0.5520800000000 1.0
C      1  0.4257990000000  0.4316180000000  0.5280730000000 1.0
C      1  0.4270540000000  0.4589600000000  0.4788210000000 1.0
C      1  0.4697200000000  0.3999990000000  0.5351000000000 1.0
C      1  0.4679840000000  0.4353350000000  0.4585330000000 1.0
C      1  0.4717140000000  0.5168740000000  0.4087070000000 1.0
C      1  0.4653380000000  0.5765340000000  0.4613210000000 1.0
C      1  0.4616820000000  0.5708520000000  0.5466780000000 1.0
C      1  0.4684140000000  0.4867250000000  0.5824710000000 1.0
C      1  0.5253430000000  0.4475360000000  0.4907330000000 1.0
C      1  0.5080760000000  0.4638020000000  0.4469190000000 1.0
C      1  0.5176710000000  0.5375510000000  0.4342740000000 1.0
C      1  0.5146990000000  0.5609210000000  0.5015790000000 1.0
C      1  0.5197590000000  0.5393010000000  0.5507120000000 1.0
C      1  0.5068820000000  0.4572810000000  0.5741510000000 1.0
C      1  0.5564630000000  0.5612440000000  0.4509800000000 1.0
C      1  0.5491520000000  0.5607160000000  0.5213920000000 1.0
C      1  0.5473840000000  0.5090320000000  0.5781290000000 1.0
C      1  0.5559670000000  0.4423990000000  0.5466220000000 1.0
C      1  0.5608120000000  0.4244260000000  0.4645960000000 1.0
C      1  0.5547930000000  0.4899070000000  0.4288380000000 1.0
C      1  0.4346420000000  0.5123940000000  0.5109480000000 1.0
END
