TITL C-3289330-4660-540 -0.00125215867645011 125000 -498.856906475517 0 0 91 (C1) n - 1
REM
REM in /nfs/bkarasulu/CARBON/AIRSS/Generating-Clusters/AIREBO/with-SteepDescent/Higher-Symm/SD-CG/HFTN-CG
REM
REM
REM
REM
REM
REM ./C.cell (b20cbc046b6831c77cfcea5457e17084)
REM
REM compiler GCC version 9.2.1 20190827 (Red Hat 9.2.1-1)
REM options -cpp -mtune=generic -march=x86-64 -g -O0 -fpre-include=/usr/include/finclude/math-vector-fortran.h
REM seed 1684199872 -1354587254 -1048921639 429128403 -1030298565 -269473578 268205288 -104609637 -430690347 534680545 1943878787 -1400246662 1927741568 -162342074 -137506460 -618125706 -209455218 -1108591607 1053435441 950003926 -2114354805 -1371404208 1304030919 -729699482 937265061 -2142323144 2065566893 1038195537 1445308344 1028004357 -2137793149 777552939 -647963140
REM
CELL 1.54180   50.00000   50.00000   50.00000   90.00000   90.00000   90.00000
LATT -1
SFAC C  
C      1  0.4938180000000  0.5413740000000  0.5085940000000 1.0
C      1  0.5229640000000  0.5332300000000  0.5246170000000 1.0
C      1  0.4621750000000  0.5018160000000  0.5552190000000 1.0
C      1  0.5276600000000  0.5007810000000  0.5556550000000 1.0
C      1  0.5694410000000  0.4524950000000  0.5261750000000 1.0
C      1  0.4268570000000  0.4515350000000  0.5212590000000 1.0
C      1  0.5068470000000  0.4831890000000  0.5439010000000 1.0
C      1  0.4810820000000  0.4752180000000  0.5503630000000 1.0
C      1  0.4385350000000  0.4649740000000  0.4636270000000 1.0
C      1  0.5604340000000  0.4577310000000  0.4570020000000 1.0
C      1  0.4461300000000  0.4328330000000  0.4718520000000 1.0
C      1  0.5571820000000  0.4350830000000  0.4785340000000 1.0
C      1  0.4863930000000  0.4856160000000  0.4632260000000 1.0
C      1  0.5175210000000  0.4862730000000  0.4605340000000 1.0
C      1  0.4425940000000  0.5191410000000  0.4543140000000 1.0
C      1  0.5687220000000  0.5265060000000  0.4428840000000 1.0
C      1  0.5370900000000  0.5357010000000  0.4404820000000 1.0
C      1  0.4712760000000  0.5354690000000  0.4512870000000 1.0
C      1  0.4786200000000  0.5035110000000  0.5932900000000 1.0
C      1  0.5089490000000  0.5042510000000  0.5907250000000 1.0
C      1  0.5411600000000  0.5632150000000  0.4843410000000 1.0
C      1  0.4540820000000  0.5684890000000  0.4885690000000 1.0
C      1  0.4878620000000  0.5637860000000  0.4480350000000 1.0
C      1  0.5216830000000  0.5640830000000  0.4441680000000 1.0
C      1  0.4839230000000  0.4380970000000  0.4599300000000 1.0
C      1  0.5135500000000  0.4386220000000  0.4587340000000 1.0
C      1  0.5068790000000  0.4428030000000  0.4987030000000 1.0
C      1  0.4766560000000  0.4441630000000  0.5119210000000 1.0
C      1  0.4482170000000  0.5326370000000  0.5518240000000 1.0
C      1  0.5506830000000  0.5473240000000  0.5388020000000 1.0
C      1  0.4459230000000  0.5432970000000  0.4938220000000 1.0
C      1  0.5524130000000  0.5394750000000  0.4885460000000 1.0
C      1  0.4184620000000  0.5121170000000  0.4689000000000 1.0
C      1  0.5731180000000  0.5087530000000  0.4640980000000 1.0
C      1  0.5206340000000  0.5290570000000  0.4667130000000 1.0
C      1  0.4933480000000  0.5328430000000  0.4765860000000 1.0
C      1  0.4647810000000  0.5196380000000  0.4873890000000 1.0
C      1  0.5385080000000  0.5104310000000  0.4840160000000 1.0
C      1  0.4733380000000  0.4211180000000  0.4871410000000 1.0
C      1  0.5286380000000  0.4214140000000  0.4836850000000 1.0
C      1  0.4668110000000  0.4383530000000  0.4344680000000 1.0
C      1  0.5273840000000  0.4375940000000  0.4310620000000 1.0
C      1  0.4736080000000  0.4604510000000  0.4821830000000 1.0
C      1  0.5273280000000  0.4610910000000  0.4805160000000 1.0
C      1  0.5824080000000  0.5105250000000  0.4907290000000 1.0
C      1  0.4177590000000  0.5100320000000  0.4972620000000 1.0
C      1  0.5529350000000  0.4480850000000  0.4313440000000 1.0
C      1  0.4443070000000  0.4500700000000  0.4358880000000 1.0
C      1  0.4253460000000  0.5385340000000  0.5369890000000 1.0
C      1  0.5759210000000  0.5487200000000  0.5274960000000 1.0
C      1  0.5258550000000  0.5053470000000  0.4350670000000 1.0
C      1  0.4763730000000  0.5056840000000  0.4394010000000 1.0
C      1  0.5154030000000  0.5276310000000  0.5682600000000 1.0
C      1  0.4834800000000  0.5263130000000  0.5695100000000 1.0
C      1  0.4329580000000  0.4526810000000  0.5544470000000 1.0
C      1  0.5669340000000  0.4590930000000  0.5543680000000 1.0
C      1  0.4539580000000  0.4926670000000  0.4696880000000 1.0
C      1  0.5514310000000  0.4869370000000  0.4630290000000 1.0
C      1  0.4341270000000  0.4896280000000  0.5125240000000 1.0
C      1  0.5715420000000  0.4888040000000  0.5095630000000 1.0
C      1  0.5228070000000  0.4410330000000  0.5374200000000 1.0
C      1  0.4995520000000  0.4322760000000  0.5501760000000 1.0
C      1  0.5272840000000  0.5528620000000  0.5588380000000 1.0
C      1  0.4712490000000  0.5525800000000  0.5540370000000 1.0
C      1  0.4176570000000  0.4791910000000  0.5394870000000 1.0
C      1  0.5770830000000  0.4878660000000  0.5430980000000 1.0
C      1  0.5312070000000  0.5841420000000  0.4230370000000 1.0
C      1  0.4761240000000  0.5789460000000  0.4237410000000 1.0
C      1  0.5217180000000  0.5017600000000  0.5117870000000 1.0
C      1  0.4885410000000  0.5090200000000  0.5093170000000 1.0
C      1  0.4371540000000  0.4840320000000  0.5669170000000 1.0
C      1  0.5519140000000  0.4831040000000  0.5698260000000 1.0
C      1  0.4235940000000  0.5351810000000  0.5091430000000 1.0
C      1  0.5777300000000  0.5368530000000  0.5021710000000 1.0
C      1  0.4544990000000  0.4916240000000  0.5931230000000 1.0
C      1  0.5313180000000  0.4883260000000  0.5934880000000 1.0
C      1  0.5492390000000  0.5009440000000  0.5317410000000 1.0
C      1  0.4607610000000  0.5012480000000  0.5225140000000 1.0
C      1  0.5574460000000  0.4622080000000  0.4965830000000 1.0
C      1  0.4429350000000  0.4636000000000  0.4965960000000 1.0
C      1  0.5168550000000  0.5663350000000  0.5294050000000 1.0
C      1  0.4844120000000  0.5643330000000  0.5295150000000 1.0
C      1  0.5126060000000  0.5000670000000  0.4118230000000 1.0
C      1  0.4851060000000  0.5005640000000  0.4142610000000 1.0
C      1  0.5265290000000  0.5818220000000  0.5053130000000 1.0
C      1  0.4729710000000  0.5834750000000  0.5085920000000 1.0
C      1  0.4826520000000  0.5795160000000  0.4761600000000 1.0
C      1  0.5142250000000  0.5796240000000  0.4735010000000 1.0
C      1  0.4770790000000  0.4484920000000  0.5418320000000 1.0
C      1  0.5177320000000  0.4685460000000  0.5180970000000 1.0
C      1  0.5003980000000  0.4037380000000  0.4877730000000 1.0
END
