TITL C-3289334-2237-210 0.0777038322950455 125000 -191.06703577698 0 0 36 (C1) n - 1
REM
REM in /nfs/bkarasulu/CARBON/AIRSS/Generating-Clusters/AIREBO/with-SteepDescent/Higher-Symm/SD-CG/HFTN-CG
REM
REM
REM
REM
REM
REM ./C.cell (b20cbc046b6831c77cfcea5457e17084)
REM
REM compiler GCC version 9.2.1 20190827 (Red Hat 9.2.1-1)
REM options -cpp -mtune=generic -march=x86-64 -g -O0 -fpre-include=/usr/include/finclude/math-vector-fortran.h
REM seed 1550366531 1796932261 -174717708 1927966480 -584113584 1570809541 113579624 1227746052 -922844716 -1071434968 -72525950 -1601465268 628837931 458493715 -1563143963 723211433 1170418029 -79487069 1103165470 752156159 -51068494 -112098208 488499044 -431103280 -252627237 657127221 -954171629 1633656311 44124536 1726306139 -2039935846 570372711 1443989090
REM
CELL 1.54180   50.00000   50.00000   50.00000   90.00000   90.00000   90.00000
LATT -1
SFAC C  
C      1  0.5389620000000  0.4674700000000  0.4981450000000 1.0
C      1  0.4610900000000  0.4689740000000  0.5022740000000 1.0
C      1  0.5386250000000  0.5292890000000  0.4988370000000 1.0
C      1  0.4592520000000  0.5318240000000  0.4946700000000 1.0
C      1  0.5071120000000  0.5367890000000  0.4384290000000 1.0
C      1  0.4953270000000  0.5351870000000  0.5661010000000 1.0
C      1  0.4929340000000  0.4627770000000  0.4377720000000 1.0
C      1  0.4825050000000  0.4742670000000  0.5563910000000 1.0
C      1  0.4931960000000  0.4834080000000  0.4645960000000 1.0
C      1  0.5063980000000  0.4829070000000  0.5341310000000 1.0
C      1  0.4946870000000  0.5155770000000  0.4609650000000 1.0
C      1  0.5095290000000  0.5159310000000  0.5381820000000 1.0
C      1  0.5188180000000  0.5165240000000  0.5708930000000 1.0
C      1  0.4860020000000  0.5184570000000  0.4255870000000 1.0
C      1  0.5110370000000  0.4885880000000  0.5672340000000 1.0
C      1  0.4823020000000  0.4911210000000  0.4320280000000 1.0
C      1  0.4960590000000  0.5637050000000  0.4742160000000 1.0
C      1  0.4857300000000  0.5494600000000  0.5225120000000 1.0
C      1  0.4891460000000  0.4350660000000  0.4742620000000 1.0
C      1  0.5057140000000  0.4402720000000  0.5305580000000 1.0
C      1  0.4747090000000  0.5386110000000  0.5463370000000 1.0
C      1  0.5085370000000  0.5625340000000  0.4494120000000 1.0
C      1  0.4895990000000  0.4440370000000  0.5498140000000 1.0
C      1  0.4913930000000  0.4364020000000  0.4466050000000 1.0
C      1  0.4572490000000  0.4880680000000  0.5498150000000 1.0
C      1  0.5803060000000  0.4887130000000  0.4654880000000 1.0
C      1  0.4544720000000  0.5190070000000  0.5430830000000 1.0
C      1  0.5821450000000  0.5193320000000  0.4651270000000 1.0
C      1  0.4887620000000  0.5343830000000  0.4856840000000 1.0
C      1  0.5103950000000  0.5311220000000  0.5101660000000 1.0
C      1  0.4886720000000  0.4640340000000  0.4887050000000 1.0
C      1  0.5108840000000  0.4643270000000  0.5097560000000 1.0
C      1  0.5573330000000  0.5150120000000  0.4846420000000 1.0
C      1  0.4451670000000  0.5167000000000  0.5132690000000 1.0
C      1  0.5564730000000  0.4831100000000  0.4843760000000 1.0
C      1  0.4494800000000  0.4870120000000  0.5199370000000 1.0
END
