TITL C-3289323-3850-517 0.000805710544232374 125000 -498.107529023724 0 0 87 (C1) n - 1
REM
REM in /nfs/bkarasulu/CARBON/AIRSS/Generating-Clusters/AIREBO/with-SteepDescent/Higher-Symm/SD-CG/HFTN-CG
REM
REM
REM
REM
REM
REM ./C.cell (b20cbc046b6831c77cfcea5457e17084)
REM
REM compiler GCC version 9.2.1 20190827 (Red Hat 9.2.1-1)
REM options -cpp -mtune=generic -march=x86-64 -g -O0 -fpre-include=/usr/include/finclude/math-vector-fortran.h
REM seed -1903023945 2045797763 474811290 1737501250 1142467323 -2078958099 -1688100981 2056998719 1445664140 -1539578635 103991700 -818466595 -2141316129 -257640501 -2011427189 546005987 -1010678060 938693500 806714054 814496736 -638636702 1159473013 766036043 527718350 -446671537 -63376806 741608802 -1562577346 -1341827640 1349865906 -1216445329 2061254076 -2082833633
REM
CELL 1.54180   50.00000   50.00000   50.00000   90.00000   90.00000   90.00000
LATT -1
SFAC C  
C      1  0.4878080000000  0.4873040000000  0.5893520000000 1.0
C      1  0.5133420000000  0.4843730000000  0.4132170000000 1.0
C      1  0.4887450000000  0.4834260000000  0.4143720000000 1.0
C      1  0.5123340000000  0.4845170000000  0.5892040000000 1.0
C      1  0.4315100000000  0.4525660000000  0.5383220000000 1.0
C      1  0.5700320000000  0.4565730000000  0.4624060000000 1.0
C      1  0.4295090000000  0.4559350000000  0.4632670000000 1.0
C      1  0.5673740000000  0.4533210000000  0.5375510000000 1.0
C      1  0.5810550000000  0.4829210000000  0.4626440000000 1.0
C      1  0.4195880000000  0.4793540000000  0.5382460000000 1.0
C      1  0.5801650000000  0.4796180000000  0.5372630000000 1.0
C      1  0.4200430000000  0.4828140000000  0.4639700000000 1.0
C      1  0.4867910000000  0.5648400000000  0.4382300000000 1.0
C      1  0.5149610000000  0.5703180000000  0.5460660000000 1.0
C      1  0.4867440000000  0.5693510000000  0.5439750000000 1.0
C      1  0.5133420000000  0.5700250000000  0.4407310000000 1.0
C      1  0.4776100000000  0.5636960000000  0.4895550000000 1.0
C      1  0.5328020000000  0.5689900000000  0.5175580000000 1.0
C      1  0.4695040000000  0.5687260000000  0.5156450000000 1.0
C      1  0.5254730000000  0.5664050000000  0.4908130000000 1.0
C      1  0.5398440000000  0.4862560000000  0.4314390000000 1.0
C      1  0.4619190000000  0.4916920000000  0.5707670000000 1.0
C      1  0.5376650000000  0.4919840000000  0.5705790000000 1.0
C      1  0.4639860000000  0.4869490000000  0.4349680000000 1.0
C      1  0.4196570000000  0.5449790000000  0.4601800000000 1.0
C      1  0.5878730000000  0.5346410000000  0.5316100000000 1.0
C      1  0.4111530000000  0.5340030000000  0.5333170000000 1.0
C      1  0.5784400000000  0.5390760000000  0.4597270000000 1.0
C      1  0.5492010000000  0.5226070000000  0.4542420000000 1.0
C      1  0.4310700000000  0.5174700000000  0.5373810000000 1.0
C      1  0.5683840000000  0.5175590000000  0.5356120000000 1.0
C      1  0.4429240000000  0.5250540000000  0.4586900000000 1.0
C      1  0.5444410000000  0.4603560000000  0.4500510000000 1.0
C      1  0.4548470000000  0.4667620000000  0.5521980000000 1.0
C      1  0.5439370000000  0.4686690000000  0.5501020000000 1.0
C      1  0.4547760000000  0.4591050000000  0.4502890000000 1.0
C      1  0.5382770000000  0.5425940000000  0.5301110000000 1.0
C      1  0.4685760000000  0.5662050000000  0.4640330000000 1.0
C      1  0.5337970000000  0.5741420000000  0.4656460000000 1.0
C      1  0.4587720000000  0.5448830000000  0.5303630000000 1.0
C      1  0.4745300000000  0.4683560000000  0.5313850000000 1.0
C      1  0.5256130000000  0.4672590000000  0.4704290000000 1.0
C      1  0.4742000000000  0.4690590000000  0.4701180000000 1.0
C      1  0.5242720000000  0.4680400000000  0.5298140000000 1.0
C      1  0.5253460000000  0.4969160000000  0.4733060000000 1.0
C      1  0.4829980000000  0.4977260000000  0.5291690000000 1.0
C      1  0.5159320000000  0.4950310000000  0.5210760000000 1.0
C      1  0.4740750000000  0.4991620000000  0.4722180000000 1.0
C      1  0.5272000000000  0.5417460000000  0.5579740000000 1.0
C      1  0.4688540000000  0.5377220000000  0.4464070000000 1.0
C      1  0.5396960000000  0.5522550000000  0.4428400000000 1.0
C      1  0.4735700000000  0.5424350000000  0.5566250000000 1.0
C      1  0.4571070000000  0.5158370000000  0.5176110000000 1.0
C      1  0.5510370000000  0.5112270000000  0.4862470000000 1.0
C      1  0.4493720000000  0.5112370000000  0.4888790000000 1.0
C      1  0.5423900000000  0.5149320000000  0.5154920000000 1.0
C      1  0.5684310000000  0.4983360000000  0.5608490000000 1.0
C      1  0.4345390000000  0.4995890000000  0.4414550000000 1.0
C      1  0.5685960000000  0.4993250000000  0.4388110000000 1.0
C      1  0.4313890000000  0.4976560000000  0.5619050000000 1.0
C      1  0.5276200000000  0.4420130000000  0.5133190000000 1.0
C      1  0.4836190000000  0.4469720000000  0.4869170000000 1.0
C      1  0.5158650000000  0.4445840000000  0.4860710000000 1.0
C      1  0.4715550000000  0.4432960000000  0.5137110000000 1.0
C      1  0.5184120000000  0.5096140000000  0.4437500000000 1.0
C      1  0.4854560000000  0.5133980000000  0.5591890000000 1.0
C      1  0.5162180000000  0.5173010000000  0.5667360000000 1.0
C      1  0.4865400000000  0.5111930000000  0.4429620000000 1.0
C      1  0.4143610000000  0.5033110000000  0.5833660000000 1.0
C      1  0.5872190000000  0.5063550000000  0.4162140000000 1.0
C      1  0.4178720000000  0.5046550000000  0.4165920000000 1.0
C      1  0.5855940000000  0.5051410000000  0.5818770000000 1.0
C      1  0.5120540000000  0.4193130000000  0.5278370000000 1.0
C      1  0.4891880000000  0.4195400000000  0.4703220000000 1.0
C      1  0.5164660000000  0.4152030000000  0.4683630000000 1.0
C      1  0.4867190000000  0.4197330000000  0.5275330000000 1.0
C      1  0.5775920000000  0.4960490000000  0.4869760000000 1.0
C      1  0.4117080000000  0.4901010000000  0.5136730000000 1.0
C      1  0.5876780000000  0.4904350000000  0.5124770000000 1.0
C      1  0.4228270000000  0.4952430000000  0.4886250000000 1.0
C      1  0.5703800000000  0.4409640000000  0.4866230000000 1.0
C      1  0.4405570000000  0.4413750000000  0.5131310000000 1.0
C      1  0.5587340000000  0.4413740000000  0.5125920000000 1.0
C      1  0.4288560000000  0.4402880000000  0.4873100000000 1.0
C      1  0.5025170000000  0.5476220000000  0.4893430000000 1.0
C      1  0.5039670000000  0.5236720000000  0.5107930000000 1.0
C      1  0.5004600000000  0.5147020000000  0.4801230000000 1.0
END
