TITL C-3289333-7213-469 -0.00128514597882205 125000 -686.53540692757 0 0 125 (C1) n - 1
REM
REM in /nfs/bkarasulu/CARBON/AIRSS/Generating-Clusters/AIREBO/with-SteepDescent/Higher-Symm/SD-CG/HFTN-CG
REM
REM
REM
REM
REM
REM ./C.cell (b20cbc046b6831c77cfcea5457e17084)
REM
REM compiler GCC version 9.2.1 20190827 (Red Hat 9.2.1-1)
REM options -cpp -mtune=generic -march=x86-64 -g -O0 -fpre-include=/usr/include/finclude/math-vector-fortran.h
REM seed 506973735 463099828 119083413 -290002890 831551122 -909754071 1595489767 506477113 -1572092386 -751270746 224856909 1233657139 1637889332 -1165468440 -998505665 1012096926 -1354613532 -124261380 1584532810 434799421 363195427 872922967 98093418 1502888075 -1879705683 1615779041 -1891106636 492462885 1607097327 -2082032675 1226925860 203823875 634784631
REM
CELL 1.54180   50.00000   50.00000   50.00000   90.00000   90.00000   90.00000
LATT -1
SFAC C  
C      1  0.4882830000000  0.4293510000000  0.5721950000000 1.0
C      1  0.5385260000000  0.4339350000000  0.5579350000000 1.0
C      1  0.5612100000000  0.4306980000000  0.5048890000000 1.0
C      1  0.5537870000000  0.4261220000000  0.4507670000000 1.0
C      1  0.5019400000000  0.4495150000000  0.4136520000000 1.0
C      1  0.4304460000000  0.4316590000000  0.4789260000000 1.0
C      1  0.4535510000000  0.4252010000000  0.5273100000000 1.0
C      1  0.5198900000000  0.4938170000000  0.5733840000000 1.0
C      1  0.5985780000000  0.4821390000000  0.5317540000000 1.0
C      1  0.5873920000000  0.4867420000000  0.4467180000000 1.0
C      1  0.5172800000000  0.4937750000000  0.3886680000000 1.0
C      1  0.4282060000000  0.4868290000000  0.4279090000000 1.0
C      1  0.3919820000000  0.4828650000000  0.5148890000000 1.0
C      1  0.4358010000000  0.4848140000000  0.5704620000000 1.0
C      1  0.4718680000000  0.4507000000000  0.5025970000000 1.0
C      1  0.4856930000000  0.4637610000000  0.5273550000000 1.0
C      1  0.5173810000000  0.4514340000000  0.5260310000000 1.0
C      1  0.5344770000000  0.4606780000000  0.4974630000000 1.0
C      1  0.5269980000000  0.4581830000000  0.4637430000000 1.0
C      1  0.4944620000000  0.4612660000000  0.4542460000000 1.0
C      1  0.4657910000000  0.4658060000000  0.4727380000000 1.0
C      1  0.5475620000000  0.4880320000000  0.5742510000000 1.0
C      1  0.5949430000000  0.4778020000000  0.5033070000000 1.0
C      1  0.5710130000000  0.4726850000000  0.4259470000000 1.0
C      1  0.4890790000000  0.4907800000000  0.3928070000000 1.0
C      1  0.4182170000000  0.4858650000000  0.4537790000000 1.0
C      1  0.4060140000000  0.4890320000000  0.5393090000000 1.0
C      1  0.4861500000000  0.4858940000000  0.5933180000000 1.0
C      1  0.4519890000000  0.5656570000000  0.4749010000000 1.0
C      1  0.4424260000000  0.5593010000000  0.5375100000000 1.0
C      1  0.4792420000000  0.5636790000000  0.5516740000000 1.0
C      1  0.5434250000000  0.5499800000000  0.5420040000000 1.0
C      1  0.5676990000000  0.5476050000000  0.4940420000000 1.0
C      1  0.5424560000000  0.5492420000000  0.4505840000000 1.0
C      1  0.4996070000000  0.5487110000000  0.4564880000000 1.0
C      1  0.5914160000000  0.5043590000000  0.4923860000000 1.0
C      1  0.5614730000000  0.5034260000000  0.4212420000000 1.0
C      1  0.4797320000000  0.5155900000000  0.4055820000000 1.0
C      1  0.4243950000000  0.5104670000000  0.4651640000000 1.0
C      1  0.4177530000000  0.5140870000000  0.5413280000000 1.0
C      1  0.4827930000000  0.5151920000000  0.5891300000000 1.0
C      1  0.5618390000000  0.5112820000000  0.5667760000000 1.0
C      1  0.4591370000000  0.5288580000000  0.5803110000000 1.0
C      1  0.5438220000000  0.5333430000000  0.5663800000000 1.0
C      1  0.5861200000000  0.5266240000000  0.5140090000000 1.0
C      1  0.5710620000000  0.5237060000000  0.4400890000000 1.0
C      1  0.5073110000000  0.5259530000000  0.4114210000000 1.0
C      1  0.4394610000000  0.5256690000000  0.4473210000000 1.0
C      1  0.4173830000000  0.5283330000000  0.5166050000000 1.0
C      1  0.5273420000000  0.4108910000000  0.4665360000000 1.0
C      1  0.4782790000000  0.4021810000000  0.4840370000000 1.0
C      1  0.4553480000000  0.4219720000000  0.4949660000000 1.0
C      1  0.4758700000000  0.4166960000000  0.5431690000000 1.0
C      1  0.5096700000000  0.4190460000000  0.5478350000000 1.0
C      1  0.5360730000000  0.4244110000000  0.5262160000000 1.0
C      1  0.5552600000000  0.4126460000000  0.4817680000000 1.0
C      1  0.5817830000000  0.4552750000000  0.4933820000000 1.0
C      1  0.5534110000000  0.4501450000000  0.4291460000000 1.0
C      1  0.4829990000000  0.4701230000000  0.4114790000000 1.0
C      1  0.4157280000000  0.4627270000000  0.4762460000000 1.0
C      1  0.4243330000000  0.4660940000000  0.5466350000000 1.0
C      1  0.4916620000000  0.4617130000000  0.5823180000000 1.0
C      1  0.5541460000000  0.4624610000000  0.5569590000000 1.0
C      1  0.5318940000000  0.5876900000000  0.5210950000000 1.0
C      1  0.5324140000000  0.5839120000000  0.4873060000000 1.0
C      1  0.5050910000000  0.5798070000000  0.4674610000000 1.0
C      1  0.4767210000000  0.5887730000000  0.4784730000000 1.0
C      1  0.4568250000000  0.5918010000000  0.5042530000000 1.0
C      1  0.4681140000000  0.5895130000000  0.5327350000000 1.0
C      1  0.5020080000000  0.5926770000000  0.5365420000000 1.0
C      1  0.4753480000000  0.5501690000000  0.4886510000000 1.0
C      1  0.4596680000000  0.5236510000000  0.5011600000000 1.0
C      1  0.4690480000000  0.5432670000000  0.5273210000000 1.0
C      1  0.5008850000000  0.5231580000000  0.5426190000000 1.0
C      1  0.5200160000000  0.5440150000000  0.5248550000000 1.0
C      1  0.5462490000000  0.5285150000000  0.4772780000000 1.0
C      1  0.5123780000000  0.5294310000000  0.4743260000000 1.0
C      1  0.5042680000000  0.4836720000000  0.5454410000000 1.0
C      1  0.5531620000000  0.4890540000000  0.5348000000000 1.0
C      1  0.5519070000000  0.4838210000000  0.4796450000000 1.0
C      1  0.5246030000000  0.4840240000000  0.4417550000000 1.0
C      1  0.4750960000000  0.4848210000000  0.4391590000000 1.0
C      1  0.4242770000000  0.4776140000000  0.5056040000000 1.0
C      1  0.4581260000000  0.4623840000000  0.5460810000000 1.0
C      1  0.4695430000000  0.4922730000000  0.4937730000000 1.0
C      1  0.4526710000000  0.4856360000000  0.5225370000000 1.0
C      1  0.4694720000000  0.5111400000000  0.5376270000000 1.0
C      1  0.5257010000000  0.5031990000000  0.5306340000000 1.0
C      1  0.5323610000000  0.5094860000000  0.5025140000000 1.0
C      1  0.5210460000000  0.4965690000000  0.4731570000000 1.0
C      1  0.4876600000000  0.4987540000000  0.4657300000000 1.0
C      1  0.4496650000000  0.5509530000000  0.4490600000000 1.0
C      1  0.4237590000000  0.5557060000000  0.5168040000000 1.0
C      1  0.4582000000000  0.5557640000000  0.5740790000000 1.0
C      1  0.5120450000000  0.5580940000000  0.5849620000000 1.0
C      1  0.5704850000000  0.5526670000000  0.5256480000000 1.0
C      1  0.5735730000000  0.5546040000000  0.4514890000000 1.0
C      1  0.5115470000000  0.5486430000000  0.4256060000000 1.0
C      1  0.5603350000000  0.4532780000000  0.4683680000000 1.0
C      1  0.5266440000000  0.4571880000000  0.4239090000000 1.0
C      1  0.4423080000000  0.4546400000000  0.4598720000000 1.0
C      1  0.4316440000000  0.4478900000000  0.5204480000000 1.0
C      1  0.4596350000000  0.4436300000000  0.5677600000000 1.0
C      1  0.5147600000000  0.4565860000000  0.5603060000000 1.0
C      1  0.5562550000000  0.4587210000000  0.5235070000000 1.0
C      1  0.5707070000000  0.5064060000000  0.4688840000000 1.0
C      1  0.5308000000000  0.5028500000000  0.4167280000000 1.0
C      1  0.4555980000000  0.5068860000000  0.4252730000000 1.0
C      1  0.4295030000000  0.5093900000000  0.4946210000000 1.0
C      1  0.4448770000000  0.5128970000000  0.5587940000000 1.0
C      1  0.5117660000000  0.5256660000000  0.5747390000000 1.0
C      1  0.5793180000000  0.5072840000000  0.5397930000000 1.0
C      1  0.4308140000000  0.5748850000000  0.4970730000000 1.0
C      1  0.4453090000000  0.5825880000000  0.5579150000000 1.0
C      1  0.5030410000000  0.5759120000000  0.5661290000000 1.0
C      1  0.5571780000000  0.5805890000000  0.5365050000000 1.0
C      1  0.5600840000000  0.5737230000000  0.4763290000000 1.0
C      1  0.5263960000000  0.5733100000000  0.4415780000000 1.0
C      1  0.4736970000000  0.5528350000000  0.4365570000000 1.0
C      1  0.5057480000000  0.5981570000000  0.5029750000000 1.0
C      1  0.5021660000000  0.5643640000000  0.5040950000000 1.0
C      1  0.4967010000000  0.4435170000000  0.4831610000000 1.0
C      1  0.4987210000000  0.5306680000000  0.5033220000000 1.0
C      1  0.5024290000000  0.4147430000000  0.4781290000000 1.0
C      1  0.4995730000000  0.4766750000000  0.4904600000000 1.0
END
