TITL C-3289332-8317-260 0.00393888781789202 125000 -433.021090466589 0 0 79 (C1) n - 1
REM
REM in /nfs/bkarasulu/CARBON/AIRSS/Generating-Clusters/AIREBO/with-SteepDescent/Higher-Symm/SD-CG/HFTN-CG
REM
REM
REM
REM
REM
REM ./C.cell (b20cbc046b6831c77cfcea5457e17084)
REM
REM compiler GCC version 9.2.1 20190827 (Red Hat 9.2.1-1)
REM options -cpp -mtune=generic -march=x86-64 -g -O0 -fpre-include=/usr/include/finclude/math-vector-fortran.h
REM seed 1868788112 -683285588 326413757 233065996 -812594265 -1304223962 1042530057 568369383 530219107 1490538001 1295296762 1610277762 142441736 2135046039 -1696871946 1068288849 204441238 -1573951384 683098051 1065299046 -1931176296 574528392 -1449070983 -1998324074 -515435413 -153652259 1424096993 1689126953 197197233 1078789567 -550480821 -1933977106 76154024
REM
CELL 1.54180   50.00000   50.00000   50.00000   90.00000   90.00000   90.00000
LATT -1
SFAC C  
C      1  0.4356320000000  0.5162030000000  0.5381180000000 1.0
C      1  0.4393140000000  0.5448710000000  0.4951030000000 1.0
C      1  0.4260490000000  0.5193800000000  0.4474950000000 1.0
C      1  0.4263810000000  0.4465780000000  0.4732010000000 1.0
C      1  0.4439300000000  0.4618950000000  0.5201370000000 1.0
C      1  0.5682350000000  0.5173330000000  0.4492780000000 1.0
C      1  0.5663220000000  0.5544540000000  0.4884410000000 1.0
C      1  0.5636330000000  0.5218810000000  0.5662650000000 1.0
C      1  0.5648570000000  0.4548140000000  0.5339200000000 1.0
C      1  0.5627660000000  0.4675530000000  0.4616110000000 1.0
C      1  0.4866120000000  0.5793760000000  0.4525510000000 1.0
C      1  0.4918360000000  0.4773150000000  0.4177250000000 1.0
C      1  0.4821690000000  0.4081860000000  0.4940300000000 1.0
C      1  0.4953950000000  0.4571310000000  0.5895840000000 1.0
C      1  0.4919900000000  0.5591680000000  0.5549140000000 1.0
C      1  0.5126170000000  0.5711450000000  0.5455430000000 1.0
C      1  0.5171880000000  0.4739020000000  0.5924180000000 1.0
C      1  0.5026760000000  0.4081720000000  0.5116780000000 1.0
C      1  0.5102480000000  0.4651160000000  0.4304050000000 1.0
C      1  0.5083910000000  0.5748220000000  0.4373210000000 1.0
C      1  0.5533960000000  0.5778340000000  0.4787940000000 1.0
C      1  0.5447920000000  0.5066110000000  0.4299370000000 1.0
C      1  0.5463240000000  0.4480930000000  0.4808350000000 1.0
C      1  0.5455120000000  0.4436240000000  0.5509180000000 1.0
C      1  0.5511520000000  0.5397720000000  0.5486820000000 1.0
C      1  0.4567970000000  0.5652000000000  0.5158970000000 1.0
C      1  0.4470350000000  0.4960700000000  0.5622120000000 1.0
C      1  0.4451390000000  0.4284360000000  0.5244500000000 1.0
C      1  0.4416550000000  0.4635260000000  0.4578310000000 1.0
C      1  0.4416970000000  0.5462010000000  0.4405510000000 1.0
C      1  0.4277510000000  0.5428910000000  0.4691300000000 1.0
C      1  0.4436710000000  0.4962630000000  0.4504990000000 1.0
C      1  0.4275160000000  0.4407780000000  0.5002150000000 1.0
C      1  0.4301650000000  0.4825490000000  0.5382030000000 1.0
C      1  0.4341640000000  0.5434420000000  0.5281640000000 1.0
C      1  0.5579390000000  0.5468440000000  0.5161240000000 1.0
C      1  0.5556800000000  0.4951180000000  0.5619040000000 1.0
C      1  0.5646640000000  0.4512640000000  0.5058850000000 1.0
C      1  0.5667770000000  0.4853020000000  0.4405700000000 1.0
C      1  0.5600740000000  0.5325620000000  0.4708690000000 1.0
C      1  0.5173750000000  0.5466120000000  0.4534200000000 1.0
C      1  0.5193400000000  0.4777700000000  0.4604120000000 1.0
C      1  0.5111960000000  0.4371860000000  0.5137610000000 1.0
C      1  0.5245880000000  0.4898560000000  0.5648860000000 1.0
C      1  0.5269050000000  0.5552840000000  0.5212140000000 1.0
C      1  0.4827470000000  0.5336790000000  0.5362130000000 1.0
C      1  0.4808420000000  0.4631230000000  0.5661550000000 1.0
C      1  0.4800570000000  0.4404660000000  0.4889500000000 1.0
C      1  0.4739370000000  0.4981200000000  0.4350030000000 1.0
C      1  0.4824020000000  0.5525030000000  0.4715740000000 1.0
C      1  0.5456690000000  0.5166880000000  0.5166780000000 1.0
C      1  0.5287350000000  0.5269600000000  0.4787380000000 1.0
C      1  0.5338980000000  0.4936430000000  0.4818600000000 1.0
C      1  0.5631840000000  0.4827090000000  0.4904790000000 1.0
C      1  0.5682730000000  0.4823640000000  0.5399720000000 1.0
C      1  0.4785440000000  0.5193140000000  0.4775630000000 1.0
C      1  0.4662390000000  0.5275780000000  0.5066510000000 1.0
C      1  0.4628500000000  0.5010520000000  0.5259120000000 1.0
C      1  0.4708270000000  0.4708080000000  0.5013240000000 1.0
C      1  0.4597980000000  0.4937880000000  0.4788070000000 1.0
C      1  0.5215160000000  0.5322040000000  0.5456020000000 1.0
C      1  0.5274330000000  0.5732010000000  0.4720890000000 1.0
C      1  0.5193080000000  0.5026840000000  0.4404030000000 1.0
C      1  0.5191490000000  0.4484530000000  0.4875580000000 1.0
C      1  0.5236130000000  0.4587850000000  0.5552490000000 1.0
C      1  0.4691980000000  0.5456480000000  0.4409990000000 1.0
C      1  0.4861240000000  0.5604880000000  0.5155520000000 1.0
C      1  0.4737470000000  0.4906970000000  0.5645370000000 1.0
C      1  0.4746970000000  0.4364200000000  0.5213470000000 1.0
C      1  0.4710760000000  0.4679490000000  0.4504590000000 1.0
C      1  0.4937500000000  0.5229490000000  0.4471730000000 1.0
C      1  0.5094750000000  0.5525180000000  0.4921490000000 1.0
C      1  0.4935910000000  0.4602660000000  0.4684790000000 1.0
C      1  0.4993010000000  0.5066190000000  0.5485030000000 1.0
C      1  0.4968530000000  0.4558620000000  0.5382930000000 1.0
C      1  0.4929860000000  0.4856940000000  0.5224280000000 1.0
C      1  0.5190970000000  0.5030410000000  0.5092080000000 1.0
C      1  0.4409200000000  0.4972510000000  0.5026130000000 1.0
C      1  0.5664730000000  0.4975280000000  0.5168050000000 1.0
END
