TITL C-3289325-7307-104 -0.000306684106934386 125000 -773.843696920078 0 0 135 (C1) n - 1
REM
REM in /nfs/bkarasulu/CARBON/AIRSS/Generating-Clusters/AIREBO/with-SteepDescent/Higher-Symm/SD-CG/HFTN-CG
REM
REM
REM
REM
REM
REM ./C.cell (b20cbc046b6831c77cfcea5457e17084)
REM
REM compiler GCC version 9.2.1 20190827 (Red Hat 9.2.1-1)
REM options -cpp -mtune=generic -march=x86-64 -g -O0 -fpre-include=/usr/include/finclude/math-vector-fortran.h
REM seed -416774796 -647139353 876621407 1690041736 -920264027 482391826 44095556 482581411 1262795114 -587178959 -1825756715 427569947 798453475 868049975 1793381331 -541516377 -1799908324 -566170718 -838866396 552185378 -1117603739 -1259830314 872897058 -1044079290 -309295786 -590342553 -1864321423 -1794855478 -1143216949 -668605641 550892481 -1042862711 -989120837
REM
CELL 1.54180   50.00000   50.00000   50.00000   90.00000   90.00000   90.00000
LATT -1
SFAC C  
C      1  0.4991790000000  0.5475910000000  0.4978610000000 1.0
C      1  0.4500830000000  0.5187010000000  0.4975360000000 1.0
C      1  0.4764810000000  0.4631310000000  0.5068960000000 1.0
C      1  0.5273900000000  0.4552620000000  0.4961370000000 1.0
C      1  0.5375670000000  0.5122290000000  0.4965400000000 1.0
C      1  0.5031160000000  0.4454570000000  0.5085780000000 1.0
C      1  0.4558510000000  0.4888950000000  0.5112430000000 1.0
C      1  0.4671820000000  0.5424300000000  0.5082830000000 1.0
C      1  0.5292910000000  0.5404150000000  0.5074090000000 1.0
C      1  0.5410950000000  0.4807820000000  0.5048340000000 1.0
C      1  0.4568680000000  0.4871490000000  0.4180400000000 1.0
C      1  0.4998330000000  0.4565470000000  0.4215710000000 1.0
C      1  0.5443550000000  0.4873250000000  0.4202770000000 1.0
C      1  0.5309450000000  0.5369480000000  0.4201330000000 1.0
C      1  0.4737810000000  0.5411210000000  0.4231660000000 1.0
C      1  0.4583250000000  0.5127970000000  0.4314840000000 1.0
C      1  0.5029960000000  0.5443890000000  0.4311170000000 1.0
C      1  0.5460450000000  0.5148660000000  0.4322550000000 1.0
C      1  0.5248680000000  0.4716200000000  0.4317460000000 1.0
C      1  0.4755280000000  0.4663830000000  0.4084960000000 1.0
C      1  0.4997490000000  0.4575310000000  0.5386260000000 1.0
C      1  0.5473960000000  0.4810130000000  0.5351140000000 1.0
C      1  0.5259840000000  0.5344910000000  0.5412260000000 1.0
C      1  0.4684180000000  0.5422330000000  0.5415720000000 1.0
C      1  0.4544850000000  0.4925890000000  0.5418220000000 1.0
C      1  0.4987700000000  0.5478200000000  0.5317910000000 1.0
C      1  0.5459210000000  0.5116780000000  0.5294940000000 1.0
C      1  0.5279970000000  0.4636840000000  0.5500140000000 1.0
C      1  0.4677530000000  0.4640270000000  0.5402810000000 1.0
C      1  0.4490980000000  0.5199880000000  0.5496350000000 1.0
C      1  0.5846330000000  0.5534700000000  0.5230500000000 1.0
C      1  0.4798220000000  0.6053700000000  0.5363870000000 1.0
C      1  0.4086420000000  0.5185750000000  0.5320100000000 1.0
C      1  0.4549290000000  0.4073000000000  0.5180790000000 1.0
C      1  0.5835110000000  0.4315310000000  0.5392430000000 1.0
C      1  0.5897230000000  0.4533740000000  0.5223560000000 1.0
C      1  0.4840290000000  0.3925050000000  0.5269950000000 1.0
C      1  0.4000740000000  0.4649630000000  0.5271870000000 1.0
C      1  0.4538620000000  0.5890470000000  0.5209840000000 1.0
C      1  0.5616190000000  0.5773560000000  0.5291190000000 1.0
C      1  0.5891330000000  0.4850450000000  0.4871850000000 1.0
C      1  0.5337830000000  0.5889610000000  0.5030490000000 1.0
C      1  0.4112070000000  0.5562320000000  0.5128230000000 1.0
C      1  0.4208370000000  0.4572510000000  0.4867700000000 1.0
C      1  0.5107020000000  0.4035370000000  0.5129040000000 1.0
C      1  0.5900290000000  0.5088590000000  0.5016400000000 1.0
C      1  0.5433310000000  0.4118310000000  0.5114160000000 1.0
C      1  0.4313000000000  0.4331140000000  0.4983930000000 1.0
C      1  0.4148130000000  0.5370880000000  0.4939850000000 1.0
C      1  0.5118620000000  0.5921620000000  0.4866980000000 1.0
C      1  0.5654070000000  0.5611660000000  0.4385080000000 1.0
C      1  0.4632940000000  0.5760160000000  0.4396480000000 1.0
C      1  0.4224140000000  0.4936460000000  0.4463690000000 1.0
C      1  0.4886540000000  0.4207440000000  0.4354040000000 1.0
C      1  0.5746760000000  0.4540940000000  0.4348600000000 1.0
C      1  0.5551850000000  0.4330420000000  0.4336100000000 1.0
C      1  0.4613190000000  0.4291660000000  0.4361880000000 1.0
C      1  0.4229280000000  0.5225660000000  0.4470720000000 1.0
C      1  0.4903810000000  0.5814390000000  0.4386760000000 1.0
C      1  0.5794780000000  0.5353620000000  0.4400520000000 1.0
C      1  0.5283330000000  0.4606800000000  0.4634530000000 1.0
C      1  0.5485940000000  0.5134970000000  0.4648730000000 1.0
C      1  0.5011820000000  0.5483130000000  0.4650080000000 1.0
C      1  0.4601920000000  0.5133010000000  0.4654350000000 1.0
C      1  0.4737530000000  0.4575910000000  0.4737270000000 1.0
C      1  0.5318940000000  0.5403200000000  0.4661200000000 1.0
C      1  0.5522320000000  0.4820450000000  0.4721850000000 1.0
C      1  0.4963830000000  0.4546400000000  0.4550670000000 1.0
C      1  0.4604670000000  0.4856750000000  0.4781970000000 1.0
C      1  0.4706770000000  0.5408460000000  0.4568790000000 1.0
C      1  0.4621400000000  0.4207290000000  0.4895660000000 1.0
C      1  0.5510330000000  0.4341720000000  0.4912350000000 1.0
C      1  0.5801060000000  0.5405980000000  0.4947850000000 1.0
C      1  0.4856790000000  0.5928400000000  0.4935440000000 1.0
C      1  0.4191060000000  0.5066040000000  0.5048350000000 1.0
C      1  0.4609170000000  0.5717430000000  0.4953390000000 1.0
C      1  0.5535260000000  0.5616770000000  0.4983320000000 1.0
C      1  0.5781600000000  0.4528510000000  0.4935230000000 1.0
C      1  0.4939090000000  0.4207280000000  0.4906650000000 1.0
C      1  0.4095190000000  0.4765980000000  0.5032060000000 1.0
C      1  0.5165960000000  0.5738620000000  0.4208610000000 1.0
C      1  0.4346230000000  0.5352940000000  0.4220360000000 1.0
C      1  0.4521050000000  0.4477580000000  0.4165640000000 1.0
C      1  0.5378940000000  0.4233710000000  0.4127070000000 1.0
C      1  0.5777020000000  0.5092930000000  0.4205620000000 1.0
C      1  0.5096290000000  0.4272300000000  0.4136710000000 1.0
C      1  0.4304560000000  0.4720100000000  0.4244380000000 1.0
C      1  0.4483710000000  0.5622880000000  0.4165550000000 1.0
C      1  0.5460600000000  0.5626190000000  0.4173310000000 1.0
C      1  0.5715320000000  0.4762960000000  0.4171900000000 1.0
C      1  0.4413210000000  0.4363880000000  0.5292240000000 1.0
C      1  0.5528630000000  0.4197390000000  0.5411860000000 1.0
C      1  0.5887100000000  0.5044730000000  0.5291870000000 1.0
C      1  0.5097790000000  0.5977910000000  0.5439140000000 1.0
C      1  0.4173710000000  0.5437730000000  0.5503830000000 1.0
C      1  0.4280690000000  0.5724720000000  0.5357770000000 1.0
C      1  0.5337830000000  0.5954320000000  0.5318020000000 1.0
C      1  0.5871910000000  0.4780460000000  0.5364270000000 1.0
C      1  0.5192320000000  0.4150160000000  0.5428030000000 1.0
C      1  0.4197120000000  0.4561150000000  0.5442600000000 1.0
C      1  0.5254930000000  0.5403310000000  0.5738910000000 1.0
C      1  0.4683280000000  0.5426000000000  0.5755890000000 1.0
C      1  0.4558680000000  0.4845390000000  0.5809650000000 1.0
C      1  0.4974660000000  0.4515180000000  0.5721260000000 1.0
C      1  0.5456410000000  0.4904120000000  0.5738640000000 1.0
C      1  0.5265770000000  0.4644900000000  0.5839770000000 1.0
C      1  0.4691960000000  0.4594900000000  0.5799850000000 1.0
C      1  0.4577820000000  0.5124990000000  0.5876940000000 1.0
C      1  0.4986790000000  0.5533820000000  0.5788640000000 1.0
C      1  0.5478000000000  0.5161210000000  0.5691260000000 1.0
C      1  0.5491310000000  0.5668640000000  0.4650030000000 1.0
C      1  0.4504800000000  0.5630440000000  0.4675290000000 1.0
C      1  0.4369300000000  0.4687790000000  0.4636920000000 1.0
C      1  0.5070740000000  0.4244180000000  0.4626740000000 1.0
C      1  0.5781550000000  0.4652070000000  0.4620260000000 1.0
C      1  0.5404690000000  0.4289180000000  0.4604760000000 1.0
C      1  0.4503780000000  0.4374980000000  0.4635410000000 1.0
C      1  0.4254470000000  0.5414590000000  0.4688240000000 1.0
C      1  0.5162600000000  0.5784650000000  0.4605310000000 1.0
C      1  0.5779980000000  0.5261870000000  0.4677070000000 1.0
C      1  0.4427550000000  0.5622580000000  0.5647010000000 1.0
C      1  0.4309540000000  0.4788520000000  0.5595900000000 1.0
C      1  0.4976990000000  0.4226870000000  0.5579260000000 1.0
C      1  0.5682210000000  0.4721450000000  0.5605080000000 1.0
C      1  0.5520110000000  0.5583990000000  0.5791550000000 1.0
C      1  0.4530270000000  0.4403120000000  0.5597240000000 1.0
C      1  0.4299760000000  0.5266880000000  0.5769600000000 1.0
C      1  0.4932910000000  0.5716230000000  0.5527210000000 1.0
C      1  0.5711980000000  0.5260580000000  0.5459090000000 1.0
C      1  0.5408280000000  0.4385070000000  0.5668640000000 1.0
C      1  0.4134460000000  0.5049140000000  0.5588600000000 1.0
C      1  0.4686120000000  0.4141980000000  0.5484340000000 1.0
C      1  0.5669090000000  0.5565460000000  0.5546770000000 1.0
C      1  0.4636320000000  0.5806720000000  0.5514540000000 1.0
C      1  0.5735610000000  0.4413040000000  0.5673050000000 1.0
END
