TITL C-3289328-6581-272 -0.000680292095164959 125000 -196.502667173154 0 0 37 (C1) n - 1
REM
REM in /nfs/bkarasulu/CARBON/AIRSS/Generating-Clusters/AIREBO/with-SteepDescent/Higher-Symm/SD-CG/HFTN-CG
REM
REM
REM
REM
REM
REM ./C.cell (b20cbc046b6831c77cfcea5457e17084)
REM
REM compiler GCC version 9.2.1 20190827 (Red Hat 9.2.1-1)
REM options -cpp -mtune=generic -march=x86-64 -g -O0 -fpre-include=/usr/include/finclude/math-vector-fortran.h
REM seed 413594368 -1752958889 1991507094 -763919804 -1388499001 -122067387 -1815509209 45779254 -1412476615 -1414050199 -850103850 -1397600074 232594427 -824886784 823243300 -266776904 -601629575 425842490 370548732 498645222 1645953340 2065997522 -1347243282 -94205109 85074527 -111109270 -1076074980 1961634690 -1925450421 1469766211 1191151494 -584624759 -252686666
REM
CELL 1.54180   50.00000   50.00000   50.00000   90.00000   90.00000   90.00000
LATT -1
SFAC C  
C      1  0.5075010000000  0.5609630000000  0.4752570000000 1.0
C      1  0.4981410000000  0.4358730000000  0.4758830000000 1.0
C      1  0.4561500000000  0.5644110000000  0.4868800000000 1.0
C      1  0.5500560000000  0.4414370000000  0.4839280000000 1.0
C      1  0.5189230000000  0.5202680000000  0.5368450000000 1.0
C      1  0.4770260000000  0.4775420000000  0.5363600000000 1.0
C      1  0.5376140000000  0.5396680000000  0.5460450000000 1.0
C      1  0.4582840000000  0.4584630000000  0.5462840000000 1.0
C      1  0.4960850000000  0.5122260000000  0.4532340000000 1.0
C      1  0.5010710000000  0.4850350000000  0.4544620000000 1.0
C      1  0.4776920000000  0.5210540000000  0.4767760000000 1.0
C      1  0.5205770000000  0.4790060000000  0.4780990000000 1.0
C      1  0.4912130000000  0.5274530000000  0.5458020000000 1.0
C      1  0.5046140000000  0.4706820000000  0.5459230000000 1.0
C      1  0.5194320000000  0.5176130000000  0.5070940000000 1.0
C      1  0.4764220000000  0.4786560000000  0.5061640000000 1.0
C      1  0.5169800000000  0.5617240000000  0.4449790000000 1.0
C      1  0.4872320000000  0.4334690000000  0.4461180000000 1.0
C      1  0.4727460000000  0.5525170000000  0.5503370000000 1.0
C      1  0.5228690000000  0.4456290000000  0.5512920000000 1.0
C      1  0.5171480000000  0.5305290000000  0.4515150000000 1.0
C      1  0.4826410000000  0.4643140000000  0.4526610000000 1.0
C      1  0.4460310000000  0.5198860000000  0.4804130000000 1.0
C      1  0.5499410000000  0.4880910000000  0.4827250000000 1.0
C      1  0.4521310000000  0.5292650000000  0.5521870000000 1.0
C      1  0.5432550000000  0.4689320000000  0.5546090000000 1.0
C      1  0.4726290000000  0.4548020000000  0.4828150000000 1.0
C      1  0.5282120000000  0.5371870000000  0.4821320000000 1.0
C      1  0.4704960000000  0.5047500000000  0.5469040000000 1.0
C      1  0.5251260000000  0.4934320000000  0.5484710000000 1.0
C      1  0.5494600000000  0.5143990000000  0.4920500000000 1.0
C      1  0.4462230000000  0.4717510000000  0.4942840000000 1.0
C      1  0.5660640000000  0.4646430000000  0.4835130000000 1.0
C      1  0.4356770000000  0.5452160000000  0.4863050000000 1.0
C      1  0.5224050000000  0.4479250000000  0.4810920000000 1.0
C      1  0.4814540000000  0.5528380000000  0.4808980000000 1.0
C      1  0.4967510000000  0.4985910000000  0.4932220000000 1.0
END
