TITL C-3289330-4660-140 -0.00118304723407151 125000 -612.841289983763 0 0 109 (C1) n - 1
REM
REM in /nfs/bkarasulu/CARBON/AIRSS/Generating-Clusters/AIREBO/with-SteepDescent/Higher-Symm/SD-CG/HFTN-CG
REM
REM
REM
REM
REM
REM ./C.cell (b20cbc046b6831c77cfcea5457e17084)
REM
REM compiler GCC version 9.2.1 20190827 (Red Hat 9.2.1-1)
REM options -cpp -mtune=generic -march=x86-64 -g -O0 -fpre-include=/usr/include/finclude/math-vector-fortran.h
REM seed 646971539 1290281532 447584734 1094855945 442425470 -1517955602 -754811736 526981542 -547634991 719867537 -1748399711 -740060198 1561933829 634172575 282946988 888634658 -543110315 971928216 -1933672043 -521698875 -1218392297 -1929313148 -282925473 1695259842 -1817076333 -789950104 -1733321327 271351834 -1071112208 1701110790 981533843 -199813414 8650642
REM
CELL 1.54180   50.00000   50.00000   50.00000   90.00000   90.00000   90.00000
LATT -1
SFAC C  
C      1  0.4777770000000  0.5160020000000  0.5685860000000 1.0
C      1  0.4433090000000  0.5176410000000  0.4481450000000 1.0
C      1  0.5758580000000  0.5083740000000  0.4869120000000 1.0
C      1  0.4729440000000  0.5166550000000  0.4344760000000 1.0
C      1  0.4460860000000  0.5168460000000  0.5578270000000 1.0
C      1  0.5683170000000  0.5171370000000  0.5151030000000 1.0
C      1  0.4118600000000  0.5252480000000  0.4713800000000 1.0
C      1  0.5638460000000  0.5318460000000  0.4410210000000 1.0
C      1  0.5200440000000  0.5357690000000  0.5797520000000 1.0
C      1  0.4173470000000  0.5266010000000  0.5249220000000 1.0
C      1  0.5648830000000  0.5344180000000  0.5512250000000 1.0
C      1  0.5135090000000  0.5358950000000  0.4208850000000 1.0
C      1  0.5866860000000  0.4807010000000  0.4893140000000 1.0
C      1  0.4788330000000  0.4820680000000  0.5705210000000 1.0
C      1  0.4450840000000  0.4841050000000  0.4386140000000 1.0
C      1  0.5823570000000  0.4714050000000  0.5208660000000 1.0
C      1  0.4744760000000  0.4857200000000  0.4215700000000 1.0
C      1  0.4480740000000  0.4827570000000  0.5560350000000 1.0
C      1  0.4433440000000  0.4832040000000  0.4725680000000 1.0
C      1  0.5513910000000  0.4867720000000  0.4576670000000 1.0
C      1  0.5118420000000  0.4872410000000  0.5642190000000 1.0
C      1  0.4393950000000  0.4808650000000  0.5232120000000 1.0
C      1  0.5549880000000  0.4822170000000  0.5380980000000 1.0
C      1  0.5059030000000  0.4849950000000  0.4345550000000 1.0
C      1  0.4503870000000  0.4488590000000  0.5574030000000 1.0
C      1  0.4748180000000  0.4532570000000  0.4282740000000 1.0
C      1  0.5679110000000  0.4414380000000  0.5175900000000 1.0
C      1  0.4512470000000  0.4495700000000  0.4437090000000 1.0
C      1  0.4825810000000  0.4501950000000  0.5580600000000 1.0
C      1  0.5707490000000  0.4512040000000  0.4886210000000 1.0
C      1  0.5848090000000  0.5592720000000  0.4830310000000 1.0
C      1  0.4701920000000  0.5666570000000  0.5732900000000 1.0
C      1  0.4438290000000  0.5666590000000  0.4340310000000 1.0
C      1  0.5762090000000  0.5660470000000  0.5058360000000 1.0
C      1  0.4686210000000  0.5672650000000  0.4295520000000 1.0
C      1  0.4494120000000  0.5673240000000  0.5587300000000 1.0
C      1  0.5132000000000  0.4682470000000  0.3948950000000 1.0
C      1  0.5811130000000  0.4649460000000  0.5689780000000 1.0
C      1  0.4041440000000  0.4652100000000  0.5377760000000 1.0
C      1  0.5073330000000  0.4628790000000  0.6055270000000 1.0
C      1  0.5783320000000  0.4679040000000  0.4523910000000 1.0
C      1  0.4042550000000  0.4630690000000  0.4602250000000 1.0
C      1  0.4147570000000  0.4763060000000  0.5582010000000 1.0
C      1  0.4910430000000  0.4810750000000  0.3926910000000 1.0
C      1  0.5957690000000  0.4725490000000  0.5496720000000 1.0
C      1  0.4120380000000  0.4761590000000  0.4396280000000 1.0
C      1  0.4841690000000  0.4736210000000  0.6020620000000 1.0
C      1  0.6048720000000  0.4719980000000  0.4628240000000 1.0
C      1  0.5588970000000  0.5519680000000  0.4221110000000 1.0
C      1  0.5406610000000  0.5532650000000  0.5877490000000 1.0
C      1  0.4175060000000  0.5536240000000  0.4837690000000 1.0
C      1  0.5645030000000  0.5518020000000  0.5735450000000 1.0
C      1  0.5332430000000  0.5537420000000  0.4115710000000 1.0
C      1  0.4221700000000  0.5544330000000  0.5106620000000 1.0
C      1  0.5252390000000  0.4402650000000  0.4823840000000 1.0
C      1  0.4965740000000  0.4362080000000  0.5307500000000 1.0
C      1  0.4746010000000  0.4419410000000  0.4845330000000 1.0
C      1  0.5292790000000  0.4496910000000  0.5124920000000 1.0
C      1  0.5001070000000  0.4502880000000  0.4697020000000 1.0
C      1  0.4735480000000  0.4489030000000  0.5142070000000 1.0
C      1  0.4942090000000  0.5133600000000  0.4600500000000 1.0
C      1  0.5384540000000  0.5134740000000  0.5185420000000 1.0
C      1  0.4660980000000  0.5119760000000  0.5307730000000 1.0
C      1  0.4980820000000  0.5168260000000  0.5413260000000 1.0
C      1  0.5451090000000  0.5210700000000  0.4798460000000 1.0
C      1  0.4643110000000  0.5213460000000  0.4731770000000 1.0
C      1  0.5767150000000  0.5348800000000  0.4677100000000 1.0
C      1  0.4933580000000  0.5462130000000  0.5676620000000 1.0
C      1  0.4299050000000  0.5471760000000  0.4526820000000 1.0
C      1  0.5590250000000  0.5473100000000  0.5234380000000 1.0
C      1  0.4894570000000  0.5454040000000  0.4370510000000 1.0
C      1  0.4435080000000  0.5442370000000  0.5376090000000 1.0
C      1  0.5287960000000  0.5109410000000  0.5700520000000 1.0
C      1  0.4226010000000  0.5034030000000  0.4843140000000 1.0
C      1  0.5478490000000  0.5095330000000  0.4388040000000 1.0
C      1  0.5224780000000  0.5104010000000  0.4276510000000 1.0
C      1  0.4230500000000  0.5033260000000  0.5118510000000 1.0
C      1  0.5531110000000  0.5093960000000  0.5554720000000 1.0
C      1  0.5248610000000  0.4627760000000  0.5797020000000 1.0
C      1  0.4256730000000  0.4563100000000  0.4836190000000 1.0
C      1  0.5487370000000  0.4576220000000  0.4401890000000 1.0
C      1  0.5237230000000  0.4585360000000  0.4244830000000 1.0
C      1  0.4229830000000  0.4541280000000  0.5134200000000 1.0
C      1  0.5506650000000  0.4586350000000  0.5622330000000 1.0
C      1  0.4995080000000  0.5499310000000  0.5336910000000 1.0
C      1  0.4721230000000  0.5499010000000  0.4892370000000 1.0
C      1  0.5246380000000  0.5479350000000  0.4840050000000 1.0
C      1  0.4975250000000  0.5432150000000  0.4700890000000 1.0
C      1  0.4713190000000  0.5419470000000  0.5181840000000 1.0
C      1  0.5264110000000  0.5418290000000  0.5153150000000 1.0
C      1  0.4725570000000  0.4821420000000  0.5157890000000 1.0
C      1  0.5017160000000  0.4824590000000  0.4682090000000 1.0
C      1  0.5298840000000  0.4813210000000  0.5151670000000 1.0
C      1  0.4727600000000  0.4905150000000  0.4847670000000 1.0
C      1  0.5026130000000  0.4864340000000  0.5314740000000 1.0
C      1  0.5303700000000  0.4905280000000  0.4824090000000 1.0
C      1  0.5229520000000  0.5793140000000  0.4856880000000 1.0
C      1  0.5022780000000  0.5815300000000  0.5290400000000 1.0
C      1  0.4756220000000  0.5809760000000  0.4893290000000 1.0
C      1  0.5251000000000  0.5886670000000  0.5129550000000 1.0
C      1  0.4985580000000  0.5888910000000  0.4737690000000 1.0
C      1  0.4779290000000  0.5910470000000  0.5163820000000 1.0
C      1  0.5507780000000  0.4449300000000  0.4699330000000 1.0
C      1  0.5153100000000  0.4407760000000  0.5580380000000 1.0
C      1  0.4504220000000  0.4430260000000  0.4703800000000 1.0
C      1  0.5434850000000  0.4367570000000  0.5387270000000 1.0
C      1  0.4992970000000  0.4452990000000  0.4393410000000 1.0
C      1  0.4472390000000  0.4409790000000  0.5278820000000 1.0
C      1  0.5134740000000  0.4196280000000  0.5108320000000 1.0
END
