TITL C-3289332-8317-404 0.00079409272970988 125000 -707.741775184266 0 0 123 (C1) n - 1
REM
REM in /nfs/bkarasulu/CARBON/AIRSS/Generating-Clusters/AIREBO/with-SteepDescent/Higher-Symm/SD-CG/HFTN-CG
REM
REM
REM
REM
REM
REM ./C.cell (b20cbc046b6831c77cfcea5457e17084)
REM
REM compiler GCC version 9.2.1 20190827 (Red Hat 9.2.1-1)
REM options -cpp -mtune=generic -march=x86-64 -g -O0 -fpre-include=/usr/include/finclude/math-vector-fortran.h
REM seed 886367095 1849800666 -1977940432 -88814607 549467089 -2062091691 -208965974 -1668811264 770787479 1949256120 -557468859 -18786085 -88141685 1723895028 -1494207444 2109856200 -498454860 -2027148755 718818851 127200173 771884074 -1773532790 887330990 -1244672202 902357086 -756968604 -1336866340 503436520 1126800710 -910019284 -1506505487 483256166 1748533767
REM
CELL 1.54180   50.00000   50.00000   50.00000   90.00000   90.00000   90.00000
LATT -1
SFAC C  
C      1  0.5419280000000  0.4618110000000  0.5526190000000 1.0
C      1  0.4600990000000  0.4587060000000  0.5537620000000 1.0
C      1  0.4410850000000  0.5124570000000  0.5564240000000 1.0
C      1  0.5008260000000  0.5632850000000  0.5518600000000 1.0
C      1  0.5506480000000  0.5222720000000  0.5516380000000 1.0
C      1  0.5307750000000  0.4463430000000  0.4474770000000 1.0
C      1  0.4667200000000  0.4584170000000  0.4463970000000 1.0
C      1  0.4506250000000  0.5023620000000  0.4474830000000 1.0
C      1  0.5005740000000  0.5696690000000  0.4485490000000 1.0
C      1  0.5528130000000  0.5169400000000  0.4381150000000 1.0
C      1  0.5293740000000  0.4977220000000  0.4474200000000 1.0
C      1  0.5154720000000  0.4722660000000  0.4554080000000 1.0
C      1  0.4850230000000  0.4794020000000  0.4589450000000 1.0
C      1  0.4777830000000  0.5126390000000  0.4598450000000 1.0
C      1  0.4988390000000  0.5358270000000  0.4514070000000 1.0
C      1  0.5352810000000  0.5026900000000  0.5382210000000 1.0
C      1  0.5105870000000  0.4740170000000  0.5495250000000 1.0
C      1  0.4804720000000  0.4844760000000  0.5493950000000 1.0
C      1  0.4688070000000  0.5159510000000  0.5437350000000 1.0
C      1  0.4973060000000  0.5297920000000  0.5471750000000 1.0
C      1  0.4446850000000  0.4928280000000  0.4882650000000 1.0
C      1  0.4859610000000  0.5706680000000  0.4854710000000 1.0
C      1  0.5589650000000  0.5287320000000  0.4837040000000 1.0
C      1  0.5424760000000  0.4701330000000  0.4862920000000 1.0
C      1  0.4871420000000  0.4464920000000  0.4908810000000 1.0
C      1  0.4424030000000  0.4993010000000  0.5188620000000 1.0
C      1  0.4788550000000  0.5599630000000  0.5158650000000 1.0
C      1  0.5451690000000  0.5322630000000  0.5131680000000 1.0
C      1  0.5591640000000  0.4542840000000  0.5084060000000 1.0
C      1  0.4782430000000  0.4552010000000  0.5183660000000 1.0
C      1  0.5012570000000  0.5945440000000  0.4719580000000 1.0
C      1  0.5718350000000  0.5196890000000  0.4574980000000 1.0
C      1  0.5559710000000  0.4434320000000  0.4701350000000 1.0
C      1  0.4636550000000  0.4358470000000  0.4700610000000 1.0
C      1  0.4278170000000  0.5117210000000  0.4662830000000 1.0
C      1  0.5002010000000  0.5901050000000  0.5309240000000 1.0
C      1  0.5726570000000  0.5339460000000  0.5328690000000 1.0
C      1  0.5472750000000  0.4430950000000  0.5306580000000 1.0
C      1  0.4557190000000  0.4356090000000  0.5289140000000 1.0
C      1  0.4153950000000  0.5086880000000  0.5344690000000 1.0
C      1  0.6128010000000  0.5108250000000  0.4797270000000 1.0
C      1  0.5465610000000  0.3975710000000  0.4889060000000 1.0
C      1  0.4081830000000  0.4212510000000  0.4859680000000 1.0
C      1  0.4052450000000  0.5513720000000  0.4821140000000 1.0
C      1  0.5029070000000  0.6157310000000  0.4885970000000 1.0
C      1  0.6117500000000  0.5152950000000  0.5067780000000 1.0
C      1  0.5424950000000  0.4044830000000  0.5148660000000 1.0
C      1  0.4002310000000  0.4233100000000  0.5121660000000 1.0
C      1  0.4105710000000  0.5527670000000  0.5089440000000 1.0
C      1  0.5003950000000  0.6128260000000  0.5164520000000 1.0
C      1  0.5228910000000  0.4910730000000  0.5156430000000 1.0
C      1  0.5124830000000  0.4588810000000  0.5191350000000 1.0
C      1  0.4680070000000  0.4842050000000  0.5195690000000 1.0
C      1  0.4641860000000  0.5326500000000  0.5165730000000 1.0
C      1  0.5147100000000  0.5318520000000  0.5206090000000 1.0
C      1  0.5432780000000  0.4998360000000  0.4772400000000 1.0
C      1  0.5109410000000  0.4649180000000  0.4857070000000 1.0
C      1  0.4760480000000  0.4846620000000  0.4878340000000 1.0
C      1  0.4755160000000  0.5173750000000  0.4936950000000 1.0
C      1  0.5197130000000  0.5243000000000  0.4756460000000 1.0
C      1  0.5168910000000  0.5116290000000  0.5906620000000 1.0
C      1  0.5233730000000  0.4801200000000  0.5950610000000 1.0
C      1  0.5001930000000  0.4608270000000  0.5953710000000 1.0
C      1  0.4610230000000  0.5185990000000  0.6021960000000 1.0
C      1  0.4927760000000  0.5250330000000  0.6025490000000 1.0
C      1  0.5241210000000  0.5132440000000  0.3999980000000 1.0
C      1  0.5251130000000  0.4804640000000  0.4091740000000 1.0
C      1  0.5000300000000  0.4657860000000  0.4057040000000 1.0
C      1  0.4607150000000  0.5203000000000  0.4010020000000 1.0
C      1  0.4927720000000  0.5243320000000  0.4049940000000 1.0
C      1  0.5326700000000  0.5686310000000  0.4598020000000 1.0
C      1  0.5887090000000  0.4758680000000  0.4538260000000 1.0
C      1  0.5121690000000  0.4196100000000  0.4578600000000 1.0
C      1  0.4354420000000  0.4619250000000  0.4595130000000 1.0
C      1  0.4476480000000  0.5584150000000  0.4598570000000 1.0
C      1  0.5325090000000  0.5698230000000  0.5409560000000 1.0
C      1  0.5867760000000  0.4843610000000  0.5343070000000 1.0
C      1  0.4973690000000  0.4145650000000  0.5355570000000 1.0
C      1  0.4302030000000  0.4646570000000  0.5385110000000 1.0
C      1  0.4512210000000  0.5579980000000  0.5446450000000 1.0
C      1  0.4693900000000  0.5598340000000  0.4391480000000 1.0
C      1  0.5397200000000  0.5597610000000  0.4281160000000 1.0
C      1  0.5734240000000  0.4678680000000  0.4299920000000 1.0
C      1  0.4972420000000  0.4245390000000  0.4297750000000 1.0
C      1  0.4359050000000  0.4769970000000  0.4300630000000 1.0
C      1  0.4716010000000  0.5594740000000  0.5637550000000 1.0
C      1  0.5350530000000  0.5594260000000  0.5720810000000 1.0
C      1  0.5726320000000  0.4744690000000  0.5590400000000 1.0
C      1  0.4913110000000  0.4212020000000  0.5627370000000 1.0
C      1  0.4302100000000  0.4819220000000  0.5659810000000 1.0
C      1  0.4557600000000  0.5694380000000  0.4847360000000 1.0
C      1  0.5529860000000  0.5604890000000  0.4859270000000 1.0
C      1  0.5819230000000  0.4609140000000  0.4767390000000 1.0
C      1  0.4884530000000  0.4153320000000  0.4818830000000 1.0
C      1  0.4154990000000  0.4817360000000  0.4787590000000 1.0
C      1  0.4471870000000  0.5721330000000  0.5145340000000 1.0
C      1  0.5580540000000  0.5624220000000  0.5197080000000 1.0
C      1  0.5863450000000  0.4664770000000  0.5100580000000 1.0
C      1  0.4775760000000  0.4155150000000  0.5143090000000 1.0
C      1  0.4153210000000  0.4814890000000  0.5129190000000 1.0
C      1  0.4853910000000  0.4484510000000  0.4234690000000 1.0
C      1  0.4490490000000  0.5006230000000  0.4143690000000 1.0
C      1  0.4696780000000  0.5476830000000  0.4141740000000 1.0
C      1  0.5434510000000  0.5343820000000  0.4183960000000 1.0
C      1  0.5447300000000  0.4654240000000  0.4243360000000 1.0
C      1  0.4839110000000  0.4469670000000  0.5745980000000 1.0
C      1  0.4467480000000  0.5020160000000  0.5861540000000 1.0
C      1  0.4719460000000  0.5467870000000  0.5890310000000 1.0
C      1  0.5387150000000  0.5323940000000  0.5747390000000 1.0
C      1  0.5479930000000  0.4721200000000  0.5826260000000 1.0
C      1  0.4273940000000  0.4392720000000  0.5160390000000 1.0
C      1  0.4318210000000  0.5371370000000  0.5260140000000 1.0
C      1  0.5127090000000  0.5633490000000  0.5140690000000 1.0
C      1  0.5935060000000  0.5118090000000  0.5279490000000 1.0
C      1  0.5219320000000  0.4265620000000  0.5248180000000 1.0
C      1  0.4337390000000  0.4361610000000  0.4800670000000 1.0
C      1  0.4244350000000  0.5412970000000  0.4639350000000 1.0
C      1  0.5141630000000  0.5549960000000  0.4827690000000 1.0
C      1  0.5942680000000  0.5033520000000  0.4597220000000 1.0
C      1  0.5418730000000  0.4150370000000  0.4690580000000 1.0
C      1  0.5106380000000  0.5155380000000  0.4309520000000 1.0
C      1  0.5122010000000  0.5062100000000  0.5603420000000 1.0
C      1  0.5054020000000  0.5102710000000  0.4993520000000 1.0
END
