TITL C-3289335-9438-81 -2.90704055265624e-05 125000 -771.701088003721 0 0 140 (C1) n - 1
REM
REM in /nfs/bkarasulu/CARBON/AIRSS/Generating-Clusters/AIREBO/with-SteepDescent/Higher-Symm/SD-CG/HFTN-CG
REM
REM
REM
REM
REM
REM ./C.cell (b20cbc046b6831c77cfcea5457e17084)
REM
REM compiler GCC version 9.2.1 20190827 (Red Hat 9.2.1-1)
REM options -cpp -mtune=generic -march=x86-64 -g -O0 -fpre-include=/usr/include/finclude/math-vector-fortran.h
REM seed 1426285704 480946658 -1470727889 -2064783335 -179664591 1234075552 -538506931 1062739188 1132903939 1175892223 -1753346228 -1834684342 285923623 -706078733 214612079 2116983174 1956941221 -602551893 -1159466316 -409176672 -944149616 472560909 -856624943 -2036718448 -1930955820 2018861688 -1376963259 -651703390 1558824523 516458450 -1105278516 -1807285021 1051640891
REM
CELL 1.54180   50.00000   50.00000   50.00000   90.00000   90.00000   90.00000
LATT -1
SFAC C  
C      1  0.5040490000000  0.4138740000000  0.4447890000000 1.0
C      1  0.5019580000000  0.4061780000000  0.5324680000000 1.0
C      1  0.4925200000000  0.4591340000000  0.5956170000000 1.0
C      1  0.5085260000000  0.5466850000000  0.5968120000000 1.0
C      1  0.4999420000000  0.6110580000000  0.5083590000000 1.0
C      1  0.5025910000000  0.5750280000000  0.4376000000000 1.0
C      1  0.5079690000000  0.4872980000000  0.3942880000000 1.0
C      1  0.4734870000000  0.5978560000000  0.5005060000000 1.0
C      1  0.4732970000000  0.5625390000000  0.4380170000000 1.0
C      1  0.4857530000000  0.4710300000000  0.4081560000000 1.0
C      1  0.4732350000000  0.4153060000000  0.4571890000000 1.0
C      1  0.4721710000000  0.4025860000000  0.5439260000000 1.0
C      1  0.4608310000000  0.4657170000000  0.5873970000000 1.0
C      1  0.4842120000000  0.5473530000000  0.5748960000000 1.0
C      1  0.4655690000000  0.4697080000000  0.4982690000000 1.0
C      1  0.4625070000000  0.4708490000000  0.5326150000000 1.0
C      1  0.4606470000000  0.5044390000000  0.5276510000000 1.0
C      1  0.4655450000000  0.5331290000000  0.5100540000000 1.0
C      1  0.4514340000000  0.5320560000000  0.4791310000000 1.0
C      1  0.4583720000000  0.5047270000000  0.4636840000000 1.0
C      1  0.4497670000000  0.4769990000000  0.4725500000000 1.0
C      1  0.5378580000000  0.5040210000000  0.4548970000000 1.0
C      1  0.5304470000000  0.4747880000000  0.4663480000000 1.0
C      1  0.5330950000000  0.4688960000000  0.4973750000000 1.0
C      1  0.5470230000000  0.4896610000000  0.5146300000000 1.0
C      1  0.5351650000000  0.5160550000000  0.5258560000000 1.0
C      1  0.5394980000000  0.5401880000000  0.5065840000000 1.0
C      1  0.5326130000000  0.5277620000000  0.4756820000000 1.0
C      1  0.5542150000000  0.4779120000000  0.5673200000000 1.0
C      1  0.5686490000000  0.5301240000000  0.5567490000000 1.0
C      1  0.5655750000000  0.5613470000000  0.5120390000000 1.0
C      1  0.5730440000000  0.5514160000000  0.4591030000000 1.0
C      1  0.5676090000000  0.5013780000000  0.4432220000000 1.0
C      1  0.5622450000000  0.4303100000000  0.4600990000000 1.0
C      1  0.5659790000000  0.4393360000000  0.5139470000000 1.0
C      1  0.4538640000000  0.5581210000000  0.4634490000000 1.0
C      1  0.4675430000000  0.5104490000000  0.4339170000000 1.0
C      1  0.4632820000000  0.4474730000000  0.4620540000000 1.0
C      1  0.4663150000000  0.4377480000000  0.5050860000000 1.0
C      1  0.4548190000000  0.4545040000000  0.5594530000000 1.0
C      1  0.4642450000000  0.5248760000000  0.5906490000000 1.0
C      1  0.4723880000000  0.5664370000000  0.5124130000000 1.0
C      1  0.4993080000000  0.4709510000000  0.4941310000000 1.0
C      1  0.4952720000000  0.4635950000000  0.5270910000000 1.0
C      1  0.5088290000000  0.4945440000000  0.5253940000000 1.0
C      1  0.4962880000000  0.5238560000000  0.5212680000000 1.0
C      1  0.5032930000000  0.5324560000000  0.4905770000000 1.0
C      1  0.4898770000000  0.5173650000000  0.4663260000000 1.0
C      1  0.5007180000000  0.4870240000000  0.4640180000000 1.0
C      1  0.4637910000000  0.5738550000000  0.5405840000000 1.0
C      1  0.4364500000000  0.5844580000000  0.4704710000000 1.0
C      1  0.4595620000000  0.5268590000000  0.4076930000000 1.0
C      1  0.4584890000000  0.4419010000000  0.4314800000000 1.0
C      1  0.4424310000000  0.4216520000000  0.4945790000000 1.0
C      1  0.4320370000000  0.4292040000000  0.5588380000000 1.0
C      1  0.4364130000000  0.5085510000000  0.5939890000000 1.0
C      1  0.5156570000000  0.4247670000000  0.4859150000000 1.0
C      1  0.5302600000000  0.4503690000000  0.5441610000000 1.0
C      1  0.5227070000000  0.5008160000000  0.5762490000000 1.0
C      1  0.5194560000000  0.5656840000000  0.5448060000000 1.0
C      1  0.5279270000000  0.5772690000000  0.4794670000000 1.0
C      1  0.5136790000000  0.5314550000000  0.4162880000000 1.0
C      1  0.5496510000000  0.4605160000000  0.4182980000000 1.0
C      1  0.5782150000000  0.5595350000000  0.5581220000000 1.0
C      1  0.5598110000000  0.5815150000000  0.4900660000000 1.0
C      1  0.5833960000000  0.5446840000000  0.4310770000000 1.0
C      1  0.5723370000000  0.4722960000000  0.4355980000000 1.0
C      1  0.5763670000000  0.4096490000000  0.4765050000000 1.0
C      1  0.5783100000000  0.4444070000000  0.5428870000000 1.0
C      1  0.5596310000000  0.4934970000000  0.5897430000000 1.0
C      1  0.5789010000000  0.5334360000000  0.5073020000000 1.0
C      1  0.5825880000000  0.5284580000000  0.4803590000000 1.0
C      1  0.5825250000000  0.5028160000000  0.4703080000000 1.0
C      1  0.5843510000000  0.4760930000000  0.4795770000000 1.0
C      1  0.5737010000000  0.4710690000000  0.5064780000000 1.0
C      1  0.5833470000000  0.4899110000000  0.5309930000000 1.0
C      1  0.5798070000000  0.5171940000000  0.5303960000000 1.0
C      1  0.4756620000000  0.5779220000000  0.4746460000000 1.0
C      1  0.4757410000000  0.5207980000000  0.3854350000000 1.0
C      1  0.4839600000000  0.4379550000000  0.4146400000000 1.0
C      1  0.4876150000000  0.3896910000000  0.4720780000000 1.0
C      1  0.4640820000000  0.4236450000000  0.5673670000000 1.0
C      1  0.4733180000000  0.4938840000000  0.5986730000000 1.0
C      1  0.4807010000000  0.5798670000000  0.5655670000000 1.0
C      1  0.5221800000000  0.5957330000000  0.5071310000000 1.0
C      1  0.5231650000000  0.5557150000000  0.4332250000000 1.0
C      1  0.5337120000000  0.4823790000000  0.4074370000000 1.0
C      1  0.5288290000000  0.4242980000000  0.4576800000000 1.0
C      1  0.5289060000000  0.4085180000000  0.5267200000000 1.0
C      1  0.5134110000000  0.4725670000000  0.5927410000000 1.0
C      1  0.5331050000000  0.5511380000000  0.5818670000000 1.0
C      1  0.3708960000000  0.5316840000000  0.4896940000000 1.0
C      1  0.3781050000000  0.5046980000000  0.4816620000000 1.0
C      1  0.3668900000000  0.4847860000000  0.4987520000000 1.0
C      1  0.3688820000000  0.4870850000000  0.5263330000000 1.0
C      1  0.3859890000000  0.5036420000000  0.5406150000000 1.0
C      1  0.3936780000000  0.5333610000000  0.5332630000000 1.0
C      1  0.3900010000000  0.5424470000000  0.5068590000000 1.0
C      1  0.5731640000000  0.5168140000000  0.5851110000000 1.0
C      1  0.5755300000000  0.5741040000000  0.5378140000000 1.0
C      1  0.5789750000000  0.5806880000000  0.4692500000000 1.0
C      1  0.5783850000000  0.5214180000000  0.4227890000000 1.0
C      1  0.5778560000000  0.4579740000000  0.4591860000000 1.0
C      1  0.5792930000000  0.4148490000000  0.5009190000000 1.0
C      1  0.5766220000000  0.4710610000000  0.5517810000000 1.0
C      1  0.5320170000000  0.4388000000000  0.5122230000000 1.0
C      1  0.5265450000000  0.4806740000000  0.5491260000000 1.0
C      1  0.5348210000000  0.5269020000000  0.5580820000000 1.0
C      1  0.5269960000000  0.5686420000000  0.5184800000000 1.0
C      1  0.5406220000000  0.5532170000000  0.4590360000000 1.0
C      1  0.5200110000000  0.5027720000000  0.4291270000000 1.0
C      1  0.5398400000000  0.4527220000000  0.4479910000000 1.0
C      1  0.5562750000000  0.4399850000000  0.4006630000000 1.0
C      1  0.5059220000000  0.3955160000000  0.4888630000000 1.0
C      1  0.5353490000000  0.4348420000000  0.5648830000000 1.0
C      1  0.5194790000000  0.5205620000000  0.6037450000000 1.0
C      1  0.5256000000000  0.5854230000000  0.5627030000000 1.0
C      1  0.5120920000000  0.5938490000000  0.4554080000000 1.0
C      1  0.5024600000000  0.5144590000000  0.3916760000000 1.0
C      1  0.4905330000000  0.5080240000000  0.5756590000000 1.0
C      1  0.5042690000000  0.5386070000000  0.5487810000000 1.0
C      1  0.4992340000000  0.5626040000000  0.4903420000000 1.0
C      1  0.4896210000000  0.5346630000000  0.4381040000000 1.0
C      1  0.4909310000000  0.4896600000000  0.4327240000000 1.0
C      1  0.4901330000000  0.4415560000000  0.4820700000000 1.0
C      1  0.4806750000000  0.4332030000000  0.5318210000000 1.0
C      1  0.4168840000000  0.4685580000000  0.5061280000000 1.0
C      1  0.4308890000000  0.4823480000000  0.5276610000000 1.0
C      1  0.4183130000000  0.5097060000000  0.5351700000000 1.0
C      1  0.4319660000000  0.5289600000000  0.5139180000000 1.0
C      1  0.4199810000000  0.5263730000000  0.4861790000000 1.0
C      1  0.4068280000000  0.5031860000000  0.4761290000000 1.0
C      1  0.4204440000000  0.4786580000000  0.4806720000000 1.0
C      1  0.4530070000000  0.4618380000000  0.4088210000000 1.0
C      1  0.4438440000000  0.4135950000000  0.4705070000000 1.0
C      1  0.4388020000000  0.4032440000000  0.5447590000000 1.0
C      1  0.4349220000000  0.4834280000000  0.5976690000000 1.0
C      1  0.4551600000000  0.5505340000000  0.5569860000000 1.0
C      1  0.4455500000000  0.6026230000000  0.4855600000000 1.0
C      1  0.4560920000000  0.5534880000000  0.4132170000000 1.0
END
