TITL C-3289329-2751-611 0.000379294063117055 125000 -212.103686248992 0 0 42 (C1) n - 1
REM
REM in /nfs/bkarasulu/CARBON/AIRSS/Generating-Clusters/AIREBO/with-SteepDescent/Higher-Symm/SD-CG/HFTN-CG
REM
REM
REM
REM
REM
REM ./C.cell (b20cbc046b6831c77cfcea5457e17084)
REM
REM compiler GCC version 9.2.1 20190827 (Red Hat 9.2.1-1)
REM options -cpp -mtune=generic -march=x86-64 -g -O0 -fpre-include=/usr/include/finclude/math-vector-fortran.h
REM seed 1835526588 -1791967776 -544466579 187196859 561442586 29861834 540524835 1791592659 1206070536 -82342523 834385246 1179899249 858433803 -956061646 -1557330447 1856260240 986625322 -2058995667 -751301680 1123556328 -2077248404 567254676 -1494762040 -5572096 -1598543 -1195240780 1107435093 -725110327 485599023 1155619693 -2062813326 -193570890 -1501455045
REM
CELL 1.54180   50.00000   50.00000   50.00000   90.00000   90.00000   90.00000
LATT -1
SFAC C  
C      1  0.5546380000000  0.4729700000000  0.4484380000000 1.0
C      1  0.4747130000000  0.4729490000000  0.5423410000000 1.0
C      1  0.4760730000000  0.5462340000000  0.4793860000000 1.0
C      1  0.5473370000000  0.5167190000000  0.5301850000000 1.0
C      1  0.4480550000000  0.4834990000000  0.5272580000000 1.0
C      1  0.4530970000000  0.5236240000000  0.4767390000000 1.0
C      1  0.4880000000000  0.5255570000000  0.4577390000000 1.0
C      1  0.5284060000000  0.4551870000000  0.4418810000000 1.0
C      1  0.5157490000000  0.5254240000000  0.5496510000000 1.0
C      1  0.4727320000000  0.4571330000000  0.5151970000000 1.0
C      1  0.5269660000000  0.5416390000000  0.5246030000000 1.0
C      1  0.5474680000000  0.4472370000000  0.4664560000000 1.0
C      1  0.4543450000000  0.4842760000000  0.4716180000000 1.0
C      1  0.5145370000000  0.4722080000000  0.5413870000000 1.0
C      1  0.5309930000000  0.5426970000000  0.4850450000000 1.0
C      1  0.4511940000000  0.5214930000000  0.5286690000000 1.0
C      1  0.5415020000000  0.4843250000000  0.5287960000000 1.0
C      1  0.5490580000000  0.5156910000000  0.4741820000000 1.0
C      1  0.5179250000000  0.5192820000000  0.4665730000000 1.0
C      1  0.4818180000000  0.4706800000000  0.4564660000000 1.0
C      1  0.4777080000000  0.5271030000000  0.5471790000000 1.0
C      1  0.5223580000000  0.4642900000000  0.5090960000000 1.0
C      1  0.4732480000000  0.5450430000000  0.5191110000000 1.0
C      1  0.4674530000000  0.4560850000000  0.4827680000000 1.0
C      1  0.4604970000000  0.5670010000000  0.5013470000000 1.0
C      1  0.5397790000000  0.4448610000000  0.4929530000000 1.0
C      1  0.5639030000000  0.4985400000000  0.4536150000000 1.0
C      1  0.4958790000000  0.4563930000000  0.5606760000000 1.0
C      1  0.4282850000000  0.5027430000000  0.5428380000000 1.0
C      1  0.4817200000000  0.5295970000000  0.4286500000000 1.0
C      1  0.4968520000000  0.5417510000000  0.5692610000000 1.0
C      1  0.4604200000000  0.4282780000000  0.5080220000000 1.0
C      1  0.5453480000000  0.5612820000000  0.5054280000000 1.0
C      1  0.5010970000000  0.4559230000000  0.4382000000000 1.0
C      1  0.5721470000000  0.5239890000000  0.5459550000000 1.0
C      1  0.4391110000000  0.5093760000000  0.4544530000000 1.0
C      1  0.4961890000000  0.4706090000000  0.4937660000000 1.0
C      1  0.4543740000000  0.5026400000000  0.5004520000000 1.0
C      1  0.4964660000000  0.4954070000000  0.4708010000000 1.0
C      1  0.5015120000000  0.5422630000000  0.5020450000000 1.0
C      1  0.5439800000000  0.5008190000000  0.5003490000000 1.0
C      1  0.4961130000000  0.4994190000000  0.5428900000000 1.0
END
