TITL C-3289322-3858-208 0.00174296483439086 125000 -429.363426844719 0 0 78 (C1) n - 1
REM
REM in /nfs/bkarasulu/CARBON/AIRSS/Generating-Clusters/AIREBO/with-SteepDescent/Higher-Symm/SD-CG/HFTN-CG
REM
REM
REM
REM
REM
REM ./C.cell (b20cbc046b6831c77cfcea5457e17084)
REM
REM compiler GCC version 9.2.1 20190827 (Red Hat 9.2.1-1)
REM options -cpp -mtune=generic -march=x86-64 -g -O0 -fpre-include=/usr/include/finclude/math-vector-fortran.h
REM seed -953467999 -1289265213 1452827177 232199921 -1885273776 2127025766 -529067922 -714661851 319329390 552549343 -1111296710 -278846033 1903221792 245260770 -1265445179 -2055377240 1162642629 -565660825 650634222 586025450 -75465232 1678178309 2047961395 -1235474712 1664840810 -1654735038 -54363745 -805897104 -1826910884 662510703 -1091819246 -74959829 1793097791
REM
CELL 1.54180   50.00000   50.00000   50.00000   90.00000   90.00000   90.00000
LATT -1
SFAC C  
C      1  0.4708970000000  0.5841930000000  0.4910450000000 1.0
C      1  0.5865500000000  0.5095870000000  0.4809340000000 1.0
C      1  0.4986780000000  0.4755180000000  0.5929740000000 1.0
C      1  0.4780870000000  0.4235930000000  0.5020740000000 1.0
C      1  0.5190210000000  0.5846850000000  0.4967530000000 1.0
C      1  0.5192240000000  0.4245360000000  0.4991900000000 1.0
C      1  0.5873040000000  0.4879470000000  0.5253070000000 1.0
C      1  0.4137000000000  0.5061270000000  0.5112690000000 1.0
C      1  0.4089840000000  0.5008700000000  0.4719920000000 1.0
C      1  0.5021750000000  0.5298120000000  0.4121370000000 1.0
C      1  0.4963300000000  0.4765220000000  0.4155260000000 1.0
C      1  0.5001340000000  0.5256270000000  0.5814040000000 1.0
C      1  0.4865950000000  0.5030250000000  0.5914240000000 1.0
C      1  0.5867600000000  0.4850530000000  0.4972770000000 1.0
C      1  0.4984980000000  0.5901600000000  0.4741020000000 1.0
C      1  0.4789220000000  0.5054010000000  0.4128300000000 1.0
C      1  0.5260290000000  0.4737350000000  0.5933250000000 1.0
C      1  0.5177960000000  0.5006320000000  0.4207260000000 1.0
C      1  0.5849760000000  0.5346320000000  0.4982660000000 1.0
C      1  0.4111970000000  0.5278370000000  0.4902070000000 1.0
C      1  0.4117400000000  0.4805760000000  0.4957870000000 1.0
C      1  0.5027250000000  0.4258470000000  0.5288910000000 1.0
C      1  0.4982350000000  0.4166430000000  0.4755810000000 1.0
C      1  0.4930770000000  0.5782800000000  0.5116440000000 1.0
C      1  0.5692910000000  0.5371990000000  0.5247610000000 1.0
C      1  0.5460660000000  0.5120380000000  0.5631190000000 1.0
C      1  0.5222090000000  0.5456870000000  0.5396600000000 1.0
C      1  0.5672370000000  0.4620200000000  0.4846020000000 1.0
C      1  0.4393880000000  0.5403150000000  0.4828270000000 1.0
C      1  0.4457850000000  0.4559750000000  0.5287910000000 1.0
C      1  0.5460570000000  0.4867290000000  0.4358800000000 1.0
C      1  0.4568930000000  0.5211640000000  0.4355060000000 1.0
C      1  0.4677100000000  0.4844850000000  0.5695040000000 1.0
C      1  0.5154380000000  0.4445600000000  0.4647910000000 1.0
C      1  0.4836440000000  0.5626380000000  0.4598900000000 1.0
C      1  0.4816150000000  0.4333350000000  0.5531580000000 1.0
C      1  0.5713850000000  0.5130820000000  0.5420310000000 1.0
C      1  0.5439100000000  0.5489670000000  0.5229990000000 1.0
C      1  0.5241250000000  0.5294970000000  0.5624350000000 1.0
C      1  0.5683750000000  0.4861680000000  0.4619190000000 1.0
C      1  0.4438130000000  0.4784090000000  0.5462120000000 1.0
C      1  0.4311320000000  0.5213990000000  0.4562250000000 1.0
C      1  0.5396310000000  0.4482240000000  0.4850470000000 1.0
C      1  0.4640010000000  0.4353830000000  0.5297910000000 1.0
C      1  0.4556270000000  0.5632930000000  0.4770970000000 1.0
C      1  0.5201890000000  0.4647440000000  0.4378460000000 1.0
C      1  0.4869150000000  0.4569470000000  0.5689570000000 1.0
C      1  0.4790520000000  0.5450420000000  0.4334720000000 1.0
C      1  0.4367370000000  0.4626180000000  0.5001250000000 1.0
C      1  0.4746770000000  0.4935710000000  0.4444500000000 1.0
C      1  0.4816330000000  0.4450450000000  0.4685770000000 1.0
C      1  0.4529870000000  0.5188690000000  0.5031210000000 1.0
C      1  0.5497610000000  0.4774120000000  0.5102880000000 1.0
C      1  0.5549090000000  0.5341340000000  0.4876890000000 1.0
C      1  0.4624750000000  0.5127590000000  0.5512420000000 1.0
C      1  0.5383360000000  0.4809460000000  0.5651580000000 1.0
C      1  0.5378910000000  0.5194560000000  0.4402100000000 1.0
C      1  0.4926750000000  0.5518840000000  0.5265950000000 1.0
C      1  0.5040730000000  0.4601570000000  0.5299310000000 1.0
C      1  0.5137120000000  0.5532710000000  0.4727070000000 1.0
C      1  0.4460340000000  0.4917730000000  0.4601100000000 1.0
C      1  0.4682630000000  0.4551890000000  0.4953460000000 1.0
C      1  0.4869360000000  0.4637970000000  0.4448810000000 1.0
C      1  0.4390250000000  0.5081480000000  0.5304270000000 1.0
C      1  0.5490870000000  0.5111160000000  0.4670880000000 1.0
C      1  0.5587040000000  0.4815250000000  0.5411600000000 1.0
C      1  0.4812780000000  0.5303070000000  0.5063990000000 1.0
C      1  0.5362100000000  0.5587780000000  0.4934130000000 1.0
C      1  0.5303520000000  0.4516670000000  0.5163980000000 1.0
C      1  0.4858320000000  0.5362190000000  0.5530660000000 1.0
C      1  0.5086190000000  0.5331650000000  0.4453640000000 1.0
C      1  0.5082950000000  0.4783330000000  0.5542730000000 1.0
C      1  0.5425830000000  0.5043660000000  0.4987350000000 1.0
C      1  0.4953490000000  0.5289760000000  0.4828240000000 1.0
C      1  0.4499710000000  0.4901850000000  0.4896420000000 1.0
C      1  0.4943470000000  0.5084400000000  0.4623390000000 1.0
C      1  0.4953890000000  0.5039670000000  0.5483670000000 1.0
C      1  0.4860470000000  0.4717880000000  0.5107660000000 1.0
END
