TITL C-3289330-4660-326 -70.6966010093725 125000 -776.612525591274 0 0 140 (C1) n - 1
REM
REM in /nfs/bkarasulu/CARBON/AIRSS/Generating-Clusters/AIREBO/with-SteepDescent/Higher-Symm/SD-CG/HFTN-CG
REM
REM
REM
REM
REM
REM ./C.cell (b20cbc046b6831c77cfcea5457e17084)
REM
REM compiler GCC version 9.2.1 20190827 (Red Hat 9.2.1-1)
REM options -cpp -mtune=generic -march=x86-64 -g -O0 -fpre-include=/usr/include/finclude/math-vector-fortran.h
REM seed -136375 621011169 1778191825 -461988419 -986075833 1686335351 -1246215671 1495717700 237141586 2036912095 147471262 9509439 -722044640 506923298 -1413187241 185714343 -750470537 -1209208331 479437299 1850804719 -457611003 -346044035 249413528 1168132008 -1151029210 -425377563 2040073291 148046368 331126502 -789247053 2127197636 -86044019 128647069
REM
CELL 1.54180   50.00000   50.00000   50.00000   90.00000   90.00000   90.00000
LATT -1
SFAC C  
C      1  0.4821000000000  0.4779070000000  0.5704430000000 1.0
C      1  0.5453900000000  0.5220690000000  0.5529410000000 1.0
C      1  0.5752770000000  0.4762440000000  0.4876140000000 1.0
C      1  0.5155830000000  0.5328080000000  0.4209520000000 1.0
C      1  0.4480800000000  0.4747050000000  0.4508330000000 1.0
C      1  0.4303430000000  0.5256750000000  0.5182530000000 1.0
C      1  0.5506960000000  0.5618740000000  0.4462570000000 1.0
C      1  0.4633580000000  0.4389420000000  0.4156870000000 1.0
C      1  0.4249500000000  0.5624060000000  0.4829570000000 1.0
C      1  0.4418500000000  0.4503260000000  0.5604410000000 1.0
C      1  0.5237950000000  0.5524570000000  0.5875130000000 1.0
C      1  0.5807760000000  0.4468420000000  0.5259430000000 1.0
C      1  0.5385060000000  0.4507830000000  0.4866260000000 1.0
C      1  0.4914490000000  0.5390720000000  0.4736910000000 1.0
C      1  0.4697720000000  0.4657830000000  0.4830800000000 1.0
C      1  0.4692780000000  0.5550180000000  0.5053080000000 1.0
C      1  0.5079300000000  0.4614420000000  0.5330800000000 1.0
C      1  0.5126560000000  0.5566250000000  0.5301640000000 1.0
C      1  0.6029960000000  0.5052110000000  0.4849220000000 1.0
C      1  0.5476240000000  0.4899850000000  0.3980170000000 1.0
C      1  0.4397730000000  0.4988440000000  0.3990190000000 1.0
C      1  0.3874840000000  0.5025700000000  0.5090030000000 1.0
C      1  0.4711530000000  0.5094740000000  0.6030840000000 1.0
C      1  0.5706810000000  0.4951260000000  0.5881030000000 1.0
C      1  0.5508100000000  0.5002680000000  0.4254270000000 1.0
C      1  0.4623630000000  0.4897370000000  0.4132820000000 1.0
C      1  0.4070710000000  0.5184190000000  0.4965470000000 1.0
C      1  0.4540830000000  0.4898010000000  0.5849130000000 1.0
C      1  0.5558900000000  0.5196040000000  0.5846910000000 1.0
C      1  0.5928900000000  0.4900860000000  0.5119300000000 1.0
C      1  0.5412150000000  0.5357330000000  0.6025550000000 1.0
C      1  0.6010290000000  0.4655690000000  0.5297610000000 1.0
C      1  0.5443030000000  0.5261350000000  0.4303460000000 1.0
C      1  0.4760530000000  0.4666650000000  0.4079840000000 1.0
C      1  0.4103790000000  0.5272840000000  0.4714090000000 1.0
C      1  0.4319020000000  0.4669120000000  0.5799560000000 1.0
C      1  0.6020620000000  0.5285900000000  0.5066320000000 1.0
C      1  0.5686740000000  0.4698530000000  0.4067220000000 1.0
C      1  0.4480350000000  0.5222240000000  0.3844500000000 1.0
C      1  0.3795000000000  0.4814470000000  0.4930010000000 1.0
C      1  0.4560330000000  0.5318720000000  0.5922020000000 1.0
C      1  0.5539770000000  0.4788650000000  0.6054690000000 1.0
C      1  0.5331810000000  0.4619680000000  0.4572670000000 1.0
C      1  0.4790820000000  0.5366000000000  0.4420980000000 1.0
C      1  0.4368790000000  0.4573830000000  0.4850030000000 1.0
C      1  0.4576350000000  0.5244190000000  0.5529650000000 1.0
C      1  0.5210160000000  0.4576480000000  0.5638440000000 1.0
C      1  0.5542610000000  0.5285310000000  0.5144960000000 1.0
C      1  0.4393050000000  0.4974170000000  0.5552520000000 1.0
C      1  0.5247860000000  0.4865000000000  0.5592900000000 1.0
C      1  0.5707720000000  0.5056960000000  0.5264740000000 1.0
C      1  0.5501950000000  0.4893260000000  0.4501950000000 1.0
C      1  0.4676490000000  0.5064420000000  0.4372590000000 1.0
C      1  0.4380980000000  0.4892040000000  0.4893040000000 1.0
C      1  0.5029050000000  0.5365100000000  0.5676260000000 1.0
C      1  0.5524200000000  0.4568230000000  0.5352380000000 1.0
C      1  0.5473430000000  0.5327760000000  0.4635620000000 1.0
C      1  0.4904170000000  0.4504070000000  0.4335660000000 1.0
C      1  0.4398030000000  0.5401600000000  0.4625750000000 1.0
C      1  0.4515240000000  0.4634730000000  0.5329930000000 1.0
C      1  0.5500070000000  0.4898740000000  0.5429180000000 1.0
C      1  0.5632840000000  0.5038080000000  0.4717050000000 1.0
C      1  0.5002410000000  0.5106970000000  0.4401350000000 1.0
C      1  0.4429730000000  0.5068550000000  0.4606480000000 1.0
C      1  0.4385900000000  0.4928670000000  0.5217610000000 1.0
C      1  0.5040050000000  0.5038540000000  0.5686640000000 1.0
C      1  0.5020970000000  0.4699490000000  0.5967820000000 1.0
C      1  0.5750670000000  0.5382150000000  0.5489950000000 1.0
C      1  0.5890190000000  0.4591080000000  0.4616560000000 1.0
C      1  0.5080940000000  0.5232840000000  0.3929350000000 1.0
C      1  0.4162970000000  0.4735470000000  0.4387780000000 1.0
C      1  0.4139680000000  0.5273690000000  0.5477270000000 1.0
C      1  0.5238880000000  0.4464180000000  0.5902360000000 1.0
C      1  0.5652540000000  0.5581620000000  0.5270460000000 1.0
C      1  0.5620680000000  0.4524520000000  0.4420180000000 1.0
C      1  0.4718510000000  0.5495800000000  0.4155110000000 1.0
C      1  0.4148450000000  0.4531090000000  0.4661210000000 1.0
C      1  0.4361450000000  0.5490180000000  0.5624060000000 1.0
C      1  0.4943120000000  0.4981160000000  0.6124130000000 1.0
C      1  0.5828960000000  0.5066130000000  0.5582400000000 1.0
C      1  0.6019840000000  0.4905310000000  0.4608310000000 1.0
C      1  0.5277880000000  0.5046480000000  0.3833370000000 1.0
C      1  0.4161740000000  0.4870860000000  0.4102080000000 1.0
C      1  0.3878220000000  0.5102600000000  0.5369540000000 1.0
C      1  0.5842040000000  0.5507160000000  0.5004800000000 1.0
C      1  0.5613600000000  0.4410040000000  0.4100100000000 1.0
C      1  0.4467550000000  0.5497420000000  0.3983520000000 1.0
C      1  0.3842750000000  0.4507250000000  0.4811800000000 1.0
C      1  0.4670890000000  0.5561180000000  0.5745780000000 1.0
C      1  0.5492510000000  0.4504800000000  0.6026780000000 1.0
C      1  0.4735430000000  0.5939210000000  0.5127650000000 1.0
C      1  0.4880750000000  0.4161140000000  0.5256360000000 1.0
C      1  0.5209640000000  0.5949450000000  0.5232010000000 1.0
C      1  0.5414520000000  0.4045110000000  0.4749110000000 1.0
C      1  0.5061270000000  0.5866600000000  0.4750120000000 1.0
C      1  0.4794730000000  0.4175270000000  0.4780520000000 1.0
C      1  0.5185210000000  0.5185000000000  0.4746520000000 1.0
C      1  0.4820910000000  0.4730930000000  0.4538920000000 1.0
C      1  0.4635810000000  0.5277890000000  0.5139650000000 1.0
C      1  0.4803910000000  0.4810920000000  0.5365960000000 1.0
C      1  0.5152760000000  0.5262510000000  0.5376530000000 1.0
C      1  0.5474020000000  0.4729910000000  0.5068080000000 1.0
C      1  0.5096570000000  0.4144210000000  0.4654380000000 1.0
C      1  0.4793710000000  0.5876780000000  0.4848540000000 1.0
C      1  0.4696480000000  0.4208270000000  0.5049790000000 1.0
C      1  0.4938490000000  0.5916280000000  0.5327370000000 1.0
C      1  0.5143100000000  0.4125550000000  0.5163290000000 1.0
C      1  0.5289140000000  0.5750880000000  0.4967050000000 1.0
C      1  0.5570600000000  0.4250980000000  0.4847230000000 1.0
C      1  0.5058110000000  0.5649010000000  0.4568650000000 1.0
C      1  0.4658250000000  0.4383910000000  0.4650710000000 1.0
C      1  0.4494280000000  0.5779410000000  0.5206910000000 1.0
C      1  0.4874460000000  0.4366950000000  0.5442140000000 1.0
C      1  0.5410860000000  0.5733460000000  0.5359600000000 1.0
C      1  0.3912990000000  0.4771370000000  0.4611850000000 1.0
C      1  0.4273660000000  0.5201850000000  0.5781440000000 1.0
C      1  0.5263870000000  0.4893410000000  0.6121780000000 1.0
C      1  0.6037000000000  0.5246930000000  0.5369100000000 1.0
C      1  0.5846150000000  0.4769980000000  0.4342800000000 1.0
C      1  0.4806990000000  0.5307890000000  0.3899200000000 1.0
C      1  0.4500050000000  0.4428730000000  0.4416240000000 1.0
C      1  0.4297470000000  0.5586420000000  0.5096380000000 1.0
C      1  0.4713490000000  0.4470890000000  0.5635920000000 1.0
C      1  0.5379210000000  0.5542910000000  0.5608790000000 1.0
C      1  0.5763480000000  0.4436620000000  0.4973400000000 1.0
C      1  0.5233520000000  0.5592560000000  0.4372580000000 1.0
C      1  0.4637660000000  0.5588410000000  0.4740070000000 1.0
C      1  0.4514580000000  0.4422880000000  0.5095470000000 1.0
C      1  0.4903080000000  0.5652680000000  0.5542430000000 1.0
C      1  0.5286360000000  0.4395630000000  0.5173020000000 1.0
C      1  0.5518490000000  0.5524810000000  0.4901610000000 1.0
C      1  0.5139680000000  0.4382000000000  0.4462400000000 1.0
C      1  0.4831950000000  0.5149760000000  0.5364910000000 1.0
C      1  0.5218050000000  0.4865660000000  0.5148540000000 1.0
C      1  0.5244250000000  0.5154980000000  0.5067180000000 1.0
C      1  0.5116400000000  0.4881590000000  0.4601490000000 1.0
C      1  0.4838460000000  0.5132890000000  0.4945340000000 1.0
C      1  0.4792300000000  0.4851920000000  0.5028560000000 1.0
C      1  0.5177410000000  0.3976510000000  0.4934840000000 1.0
C      1  0.5001510000000  0.5583700000000  0.5024190000000 1.0
END
