TITL C-3289328-6581-341 -0.0046961603821845 125000 -1051.03590043712 0 0 188 (C1) n - 1
REM
REM in /nfs/bkarasulu/CARBON/AIRSS/Generating-Clusters/AIREBO/with-SteepDescent/Higher-Symm/SD-CG/HFTN-CG
REM
REM
REM
REM
REM
REM ./C.cell (b20cbc046b6831c77cfcea5457e17084)
REM
REM compiler GCC version 9.2.1 20190827 (Red Hat 9.2.1-1)
REM options -cpp -mtune=generic -march=x86-64 -g -O0 -fpre-include=/usr/include/finclude/math-vector-fortran.h
REM seed -1725139824 -671947909 -1222631235 -1064303059 -242807001 -1179349094 1752444253 -688532261 1422644301 297639205 -344475186 -348819263 -1678515171 -815034602 -711539235 650028739 -942199145 636406834 -1770402800 852236699 -773258426 60179318 -506130880 1883138600 247764716 1968934274 -764938802 480739818 -2089279226 -1470380507 -1404810331 -2856687 -1009412677
REM
CELL 1.54180   50.00000   50.00000   50.00000   90.00000   90.00000   90.00000
LATT -1
SFAC C  
C      1  0.5109700000000  0.6113860000000  0.4776340000000 1.0
C      1  0.4808700000000  0.6119050000000  0.4827260000000 1.0
C      1  0.4798710000000  0.6151670000000  0.5130080000000 1.0
C      1  0.5106720000000  0.6106030000000  0.5090560000000 1.0
C      1  0.5101340000000  0.3934730000000  0.5137990000000 1.0
C      1  0.4794460000000  0.3928090000000  0.5129280000000 1.0
C      1  0.4862600000000  0.3906980000000  0.4824520000000 1.0
C      1  0.5177910000000  0.3898840000000  0.4844980000000 1.0
C      1  0.5595810000000  0.4271760000000  0.4541570000000 1.0
C      1  0.4593650000000  0.4312110000000  0.4423510000000 1.0
C      1  0.4425230000000  0.4328500000000  0.5457120000000 1.0
C      1  0.5435950000000  0.4300190000000  0.5520870000000 1.0
C      1  0.5475320000000  0.5809510000000  0.5379920000000 1.0
C      1  0.4472580000000  0.5844620000000  0.5520680000000 1.0
C      1  0.4403300000000  0.5821890000000  0.4471250000000 1.0
C      1  0.5496710000000  0.5777470000000  0.4413530000000 1.0
C      1  0.5652050000000  0.5767680000000  0.5161940000000 1.0
C      1  0.5188190000000  0.5853290000000  0.4321660000000 1.0
C      1  0.4321970000000  0.5866930000000  0.4798290000000 1.0
C      1  0.4735750000000  0.5799430000000  0.5670530000000 1.0
C      1  0.5671030000000  0.4112250000000  0.4828720000000 1.0
C      1  0.5148410000000  0.4141980000000  0.5612910000000 1.0
C      1  0.4321520000000  0.4174390000000  0.5173540000000 1.0
C      1  0.4869790000000  0.4127400000000  0.4344680000000 1.0
C      1  0.5621900000000  0.4734150000000  0.4456930000000 1.0
C      1  0.4467000000000  0.4857170000000  0.4372550000000 1.0
C      1  0.4345930000000  0.4920510000000  0.5672640000000 1.0
C      1  0.5572740000000  0.4742100000000  0.5569190000000 1.0
C      1  0.5509850000000  0.5390140000000  0.5538720000000 1.0
C      1  0.4408900000000  0.5206740000000  0.5605060000000 1.0
C      1  0.4484870000000  0.5257030000000  0.4442820000000 1.0
C      1  0.5536390000000  0.5277350000000  0.4522000000000 1.0
C      1  0.4790190000000  0.5368220000000  0.5936370000000 1.0
C      1  0.5891570000000  0.5340550000000  0.5245240000000 1.0
C      1  0.5263990000000  0.5383270000000  0.4127540000000 1.0
C      1  0.4096890000000  0.5389110000000  0.4759020000000 1.0
C      1  0.4750650000000  0.4487350000000  0.4218300000000 1.0
C      1  0.5797370000000  0.4467730000000  0.4697680000000 1.0
C      1  0.5304230000000  0.4486600000000  0.5739570000000 1.0
C      1  0.4182670000000  0.4521110000000  0.5314600000000 1.0
C      1  0.5298840000000  0.5477410000000  0.5066010000000 1.0
C      1  0.5042810000000  0.5477390000000  0.4645740000000 1.0
C      1  0.4672970000000  0.5474990000000  0.4953520000000 1.0
C      1  0.4801540000000  0.5467870000000  0.5426090000000 1.0
C      1  0.5336510000000  0.4604560000000  0.4860960000000 1.0
C      1  0.5060450000000  0.4565020000000  0.5314030000000 1.0
C      1  0.4645410000000  0.4531370000000  0.5071780000000 1.0
C      1  0.4977200000000  0.4568110000000  0.4684990000000 1.0
C      1  0.4558870000000  0.4684500000000  0.4095410000000 1.0
C      1  0.4070610000000  0.4744400000000  0.5621500000000 1.0
C      1  0.5507400000000  0.4667720000000  0.5893870000000 1.0
C      1  0.5950590000000  0.4663760000000  0.4508210000000 1.0
C      1  0.4495210000000  0.5392420000000  0.5852400000000 1.0
C      1  0.4191800000000  0.5369150000000  0.4483850000000 1.0
C      1  0.5536350000000  0.5376800000000  0.4234140000000 1.0
C      1  0.5786750000000  0.5344090000000  0.5524130000000 1.0
C      1  0.3924440000000  0.5163570000000  0.4836470000000 1.0
C      1  0.4828900000000  0.5131910000000  0.6121910000000 1.0
C      1  0.6078030000000  0.5129050000000  0.5176620000000 1.0
C      1  0.5144810000000  0.5149520000000  0.3984190000000 1.0
C      1  0.4025150000000  0.4822890000000  0.5323690000000 1.0
C      1  0.4700420000000  0.4899960000000  0.3926790000000 1.0
C      1  0.6103780000000  0.4885530000000  0.4646040000000 1.0
C      1  0.5362500000000  0.4901740000000  0.6021780000000 1.0
C      1  0.5881620000000  0.5619820000000  0.5102560000000 1.0
C      1  0.5043650000000  0.5620580000000  0.4144600000000 1.0
C      1  0.4093620000000  0.5658280000000  0.4939990000000 1.0
C      1  0.4749170000000  0.5690230000000  0.5919280000000 1.0
C      1  0.5881880000000  0.4322780000000  0.4980310000000 1.0
C      1  0.5028530000000  0.4354500000000  0.5844420000000 1.0
C      1  0.4117390000000  0.4378280000000  0.5015540000000 1.0
C      1  0.5020450000000  0.4339880000000  0.4124780000000 1.0
C      1  0.5117840000000  0.4861840000000  0.6151100000000 1.0
C      1  0.6172400000000  0.4886130000000  0.4956720000000 1.0
C      1  0.4998810000000  0.4883700000000  0.3836550000000 1.0
C      1  0.3870140000000  0.4912210000000  0.5061880000000 1.0
C      1  0.5135340000000  0.5135330000000  0.3652000000000 1.0
C      1  0.6399130000000  0.5071760000000  0.5131760000000 1.0
C      1  0.4990930000000  0.5056750000000  0.6361080000000 1.0
C      1  0.3622320000000  0.5066160000000  0.4913090000000 1.0
C      1  0.4718430000000  0.4846410000000  0.4966450000000 1.0
C      1  0.4873290000000  0.4847370000000  0.5281640000000 1.0
C      1  0.5246800000000  0.4846320000000  0.5082560000000 1.0
C      1  0.5018300000000  0.4843560000000  0.4838630000000 1.0
C      1  0.4747600000000  0.5166890000000  0.5076830000000 1.0
C      1  0.4970500000000  0.5171900000000  0.4748100000000 1.0
C      1  0.5224890000000  0.5162830000000  0.4959980000000 1.0
C      1  0.5034060000000  0.5144170000000  0.5240790000000 1.0
C      1  0.5733450000000  0.4077390000000  0.5385450000000 1.0
C      1  0.5449090000000  0.4090290000000  0.4222140000000 1.0
C      1  0.4235810000000  0.4204920000000  0.4608930000000 1.0
C      1  0.4577940000000  0.4130430000000  0.5763170000000 1.0
C      1  0.5684670000000  0.5853820000000  0.4686070000000 1.0
C      1  0.5202200000000  0.5893930000000  0.5658970000000 1.0
C      1  0.4180550000000  0.5951300000000  0.5390190000000 1.0
C      1  0.4652700000000  0.5917460000000  0.4309620000000 1.0
C      1  0.4412730000000  0.5085150000000  0.4875130000000 1.0
C      1  0.4839070000000  0.4997610000000  0.5649780000000 1.0
C      1  0.5658350000000  0.5023170000000  0.5186890000000 1.0
C      1  0.5185480000000  0.4990470000000  0.4389680000000 1.0
C      1  0.4417230000000  0.4978710000000  0.5193590000000 1.0
C      1  0.4852840000000  0.4955210000000  0.4389430000000 1.0
C      1  0.5686120000000  0.4965240000000  0.4874940000000 1.0
C      1  0.5228050000000  0.4938840000000  0.5579130000000 1.0
C      1  0.4515440000000  0.4451140000000  0.5747760000000 1.0
C      1  0.5735680000000  0.4393670000000  0.5467960000000 1.0
C      1  0.5540820000000  0.4404500000000  0.4248720000000 1.0
C      1  0.4357830000000  0.4516340000000  0.4547770000000 1.0
C      1  0.4481040000000  0.5558200000000  0.4285350000000 1.0
C      1  0.5733220000000  0.5554440000000  0.4532200000000 1.0
C      1  0.5413870000000  0.5659290000000  0.5679290000000 1.0
C      1  0.4219760000000  0.5621410000000  0.5462620000000 1.0
C      1  0.4598340000000  0.4883400000000  0.5465310000000 1.0
C      1  0.5435970000000  0.4885920000000  0.5326960000000 1.0
C      1  0.5378360000000  0.4819360000000  0.4600470000000 1.0
C      1  0.4576550000000  0.4748660000000  0.4673040000000 1.0
C      1  0.4661650000000  0.5075410000000  0.4643630000000 1.0
C      1  0.5445840000000  0.5096910000000  0.4733810000000 1.0
C      1  0.5244450000000  0.5241160000000  0.5463530000000 1.0
C      1  0.4548320000000  0.5258060000000  0.5336790000000 1.0
C      1  0.5076950000000  0.4678120000000  0.5616420000000 1.0
C      1  0.5664850000000  0.4650910000000  0.4923520000000 1.0
C      1  0.4980610000000  0.4648130000000  0.4374550000000 1.0
C      1  0.4366720000000  0.4677340000000  0.5098520000000 1.0
C      1  0.5050340000000  0.5301130000000  0.4378980000000 1.0
C      1  0.5607680000000  0.5333730000000  0.5058100000000 1.0
C      1  0.4970450000000  0.5300230000000  0.5656160000000 1.0
C      1  0.4373970000000  0.5379220000000  0.4951810000000 1.0
C      1  0.5331630000000  0.5113140000000  0.5832020000000 1.0
C      1  0.5920900000000  0.5125070000000  0.4760730000000 1.0
C      1  0.4748200000000  0.5116830000000  0.4149600000000 1.0
C      1  0.4126090000000  0.5141350000000  0.5259920000000 1.0
C      1  0.5204920000000  0.4838250000000  0.4103720000000 1.0
C      1  0.5920120000000  0.4830180000000  0.5172420000000 1.0
C      1  0.4856900000000  0.4860020000000  0.5932610000000 1.0
C      1  0.4134520000000  0.4909310000000  0.4857410000000 1.0
C      1  0.6048360000000  0.4618800000000  0.5892080000000 1.0
C      1  0.5926880000000  0.4785810000000  0.3992580000000 1.0
C      1  0.4018790000000  0.4736940000000  0.4086930000000 1.0
C      1  0.4098840000000  0.4834970000000  0.6009020000000 1.0
C      1  0.5992720000000  0.5305480000000  0.4053170000000 1.0
C      1  0.6079020000000  0.5118120000000  0.5897380000000 1.0
C      1  0.3977350000000  0.5328040000000  0.5883800000000 1.0
C      1  0.4046990000000  0.5244630000000  0.4012700000000 1.0
C      1  0.4876540000000  0.5758540000000  0.4408270000000 1.0
C      1  0.4331170000000  0.5808720000000  0.5127730000000 1.0
C      1  0.4973750000000  0.5810360000000  0.5532200000000 1.0
C      1  0.5521310000000  0.5815760000000  0.4919610000000 1.0
C      1  0.4825970000000  0.4226680000000  0.5604040000000 1.0
C      1  0.4415150000000  0.4279620000000  0.4864090000000 1.0
C      1  0.5196400000000  0.4192860000000  0.4367680000000 1.0
C      1  0.5593880000000  0.4220370000000  0.5136890000000 1.0
C      1  0.4166210000000  0.5455000000000  0.5210100000000 1.0
C      1  0.5244310000000  0.5403790000000  0.5829260000000 1.0
C      1  0.5847760000000  0.5425170000000  0.4825770000000 1.0
C      1  0.4774080000000  0.5424970000000  0.4213340000000 1.0
C      1  0.4194150000000  0.4615690000000  0.4808350000000 1.0
C      1  0.5265880000000  0.4550550000000  0.4203950000000 1.0
C      1  0.5816730000000  0.4542470000000  0.5214700000000 1.0
C      1  0.4799830000000  0.4580360000000  0.5788380000000 1.0
C      1  0.4307880000000  0.4637110000000  0.5840520000000 1.0
C      1  0.5793640000000  0.4555420000000  0.5745120000000 1.0
C      1  0.5801920000000  0.4607590000000  0.4206380000000 1.0
C      1  0.4256070000000  0.4636600000000  0.4246360000000 1.0
C      1  0.4211380000000  0.5388060000000  0.4176810000000 1.0
C      1  0.5831670000000  0.5457010000000  0.4217520000000 1.0
C      1  0.5964520000000  0.5293660000000  0.5728440000000 1.0
C      1  0.4201950000000  0.5444400000000  0.5710030000000 1.0
C      1  0.5268380000000  0.5918690000000  0.4630310000000 1.0
C      1  0.4637500000000  0.5910530000000  0.4707490000000 1.0
C      1  0.4652710000000  0.5983460000000  0.5281870000000 1.0
C      1  0.5230890000000  0.5906410000000  0.5245800000000 1.0
C      1  0.5242810000000  0.4126920000000  0.5301100000000 1.0
C      1  0.4631080000000  0.4124020000000  0.5271940000000 1.0
C      1  0.4745890000000  0.4105650000000  0.4646680000000 1.0
C      1  0.5364430000000  0.4082870000000  0.4713250000000 1.0
C      1  0.5059190000000  0.5619410000000  0.5263810000000 1.0
C      1  0.5270720000000  0.5627430000000  0.4787590000000 1.0
C      1  0.4785090000000  0.5629750000000  0.4709920000000 1.0
C      1  0.4625270000000  0.5655560000000  0.5204050000000 1.0
C      1  0.5223670000000  0.4364650000000  0.4647900000000 1.0
C      1  0.5318340000000  0.4419910000000  0.5146010000000 1.0
C      1  0.4790040000000  0.4410440000000  0.5320090000000 1.0
C      1  0.4725780000000  0.4397710000000  0.4790810000000 1.0
C      1  0.3970240000000  0.5065360000000  0.5952320000000 1.0
C      1  0.6022620000000  0.5038670000000  0.4008320000000 1.0
C      1  0.6163680000000  0.4861970000000  0.5920870000000 1.0
C      1  0.4001370000000  0.4980230000000  0.3967170000000 1.0
END
