TITL C-3289331-6719-409 0.00249111200094957 125000 -514.384561974605 0 0 97 (C1) n - 1
REM
REM in /nfs/bkarasulu/CARBON/AIRSS/Generating-Clusters/AIREBO/with-SteepDescent/Higher-Symm/SD-CG/HFTN-CG
REM
REM
REM
REM
REM
REM ./C.cell (b20cbc046b6831c77cfcea5457e17084)
REM
REM compiler GCC version 9.2.1 20190827 (Red Hat 9.2.1-1)
REM options -cpp -mtune=generic -march=x86-64 -g -O0 -fpre-include=/usr/include/finclude/math-vector-fortran.h
REM seed 995528064 -166334543 -185223071 -717313055 239921423 -1777371920 701967526 2077543280 -829431009 -441191715 -1825561632 -1785641929 -560461590 1023994614 -963436363 839765481 1609893133 1882185602 872700558 1374052236 -1007954749 1340603422 -1867799724 1629667549 449809667 278061358 2083675321 1116347962 1497416224 1499474451 1973619010 -332587748 -2044559440
REM
CELL 1.54180   50.00000   50.00000   50.00000   90.00000   90.00000   90.00000
LATT -1
SFAC C  
C      1  0.4498650000000  0.4319490000000  0.5034900000000 1.0
C      1  0.5206050000000  0.4131530000000  0.4994170000000 1.0
C      1  0.5827080000000  0.4618830000000  0.5037530000000 1.0
C      1  0.5677760000000  0.5369570000000  0.4997660000000 1.0
C      1  0.5169590000000  0.5919480000000  0.5057910000000 1.0
C      1  0.4411930000000  0.5711790000000  0.5077070000000 1.0
C      1  0.4192510000000  0.4969510000000  0.4994730000000 1.0
C      1  0.5089330000000  0.5813930000000  0.5351830000000 1.0
C      1  0.4443490000000  0.5574710000000  0.5329310000000 1.0
C      1  0.4193060000000  0.4899640000000  0.5273100000000 1.0
C      1  0.4569110000000  0.4333770000000  0.5361760000000 1.0
C      1  0.5196190000000  0.4358630000000  0.5248980000000 1.0
C      1  0.5757260000000  0.4731020000000  0.5291760000000 1.0
C      1  0.5546550000000  0.5399750000000  0.5282920000000 1.0
C      1  0.4669740000000  0.4966720000000  0.4536450000000 1.0
C      1  0.4880570000000  0.4699690000000  0.4536350000000 1.0
C      1  0.5198470000000  0.4581460000000  0.4565700000000 1.0
C      1  0.5310590000000  0.4871010000000  0.4427160000000 1.0
C      1  0.5216890000000  0.5193480000000  0.4447280000000 1.0
C      1  0.4915670000000  0.5275280000000  0.4601580000000 1.0
C      1  0.4511490000000  0.5213570000000  0.4363740000000 1.0
C      1  0.4751100000000  0.5267900000000  0.5670160000000 1.0
C      1  0.4656180000000  0.4995140000000  0.5853130000000 1.0
C      1  0.4669370000000  0.4692310000000  0.5750700000000 1.0
C      1  0.4995310000000  0.4596310000000  0.5724070000000 1.0
C      1  0.5298920000000  0.4732950000000  0.5654550000000 1.0
C      1  0.5356550000000  0.5067220000000  0.5654830000000 1.0
C      1  0.5069590000000  0.5207000000000  0.5773160000000 1.0
C      1  0.5491890000000  0.4811810000000  0.4708880000000 1.0
C      1  0.5527800000000  0.5177170000000  0.4561840000000 1.0
C      1  0.5132820000000  0.5528680000000  0.4641820000000 1.0
C      1  0.4619740000000  0.5354680000000  0.4719710000000 1.0
C      1  0.4576590000000  0.4913200000000  0.4845040000000 1.0
C      1  0.4725230000000  0.4506010000000  0.4763810000000 1.0
C      1  0.5333810000000  0.4482570000000  0.4861740000000 1.0
C      1  0.5276900000000  0.4851800000000  0.4963120000000 1.0
C      1  0.5320180000000  0.5155660000000  0.4830360000000 1.0
C      1  0.5180460000000  0.5418780000000  0.4960040000000 1.0
C      1  0.4851670000000  0.5433920000000  0.5033240000000 1.0
C      1  0.4692110000000  0.5157790000000  0.5051110000000 1.0
C      1  0.4771520000000  0.4652030000000  0.5067420000000 1.0
C      1  0.5057180000000  0.4601440000000  0.4958060000000 1.0
C      1  0.4335180000000  0.5326880000000  0.5266830000000 1.0
C      1  0.4317740000000  0.4642460000000  0.5332060000000 1.0
C      1  0.4823140000000  0.4173500000000  0.5246680000000 1.0
C      1  0.5515700000000  0.4347410000000  0.5274150000000 1.0
C      1  0.5685450000000  0.4994130000000  0.5256670000000 1.0
C      1  0.5522920000000  0.5702350000000  0.5353690000000 1.0
C      1  0.4764860000000  0.5804250000000  0.5277780000000 1.0
C      1  0.4310590000000  0.5104230000000  0.5421200000000 1.0
C      1  0.4466020000000  0.4552770000000  0.5594870000000 1.0
C      1  0.5020550000000  0.4238090000000  0.5504700000000 1.0
C      1  0.5537630000000  0.4593570000000  0.5485120000000 1.0
C      1  0.5561530000000  0.5146650000000  0.5475570000000 1.0
C      1  0.5345680000000  0.5840620000000  0.5526620000000 1.0
C      1  0.4728820000000  0.5544380000000  0.5500990000000 1.0
C      1  0.5631690000000  0.4393320000000  0.4980780000000 1.0
C      1  0.5626160000000  0.5041390000000  0.4924820000000 1.0
C      1  0.5384380000000  0.5677180000000  0.5045920000000 1.0
C      1  0.4710840000000  0.5731910000000  0.4949840000000 1.0
C      1  0.4383430000000  0.5247370000000  0.4939700000000 1.0
C      1  0.4435830000000  0.4653040000000  0.5013250000000 1.0
C      1  0.4907980000000  0.4290200000000  0.4952910000000 1.0
C      1  0.5562940000000  0.5727860000000  0.4592160000000 1.0
C      1  0.4619890000000  0.5658630000000  0.4629440000000 1.0
C      1  0.4169970000000  0.5338610000000  0.4671430000000 1.0
C      1  0.4381080000000  0.4646790000000  0.4619900000000 1.0
C      1  0.4902000000000  0.4160680000000  0.4623920000000 1.0
C      1  0.5585590000000  0.4261450000000  0.4607290000000 1.0
C      1  0.5835090000000  0.5023340000000  0.4588630000000 1.0
C      1  0.5072490000000  0.4285320000000  0.4455880000000 1.0
C      1  0.5530660000000  0.4521800000000  0.4523670000000 1.0
C      1  0.5791840000000  0.5228540000000  0.4353810000000 1.0
C      1  0.5293890000000  0.5706150000000  0.4521330000000 1.0
C      1  0.4629400000000  0.5487780000000  0.4348180000000 1.0
C      1  0.4231460000000  0.5229870000000  0.4422680000000 1.0
C      1  0.4586020000000  0.4559820000000  0.4449970000000 1.0
C      1  0.4843700000000  0.4520360000000  0.5436450000000 1.0
C      1  0.5301270000000  0.4683190000000  0.5257680000000 1.0
C      1  0.5165780000000  0.4990120000000  0.5313130000000 1.0
C      1  0.5249250000000  0.5282080000000  0.5267090000000 1.0
C      1  0.5007080000000  0.5492670000000  0.5312560000000 1.0
C      1  0.4564520000000  0.5015390000000  0.5539570000000 1.0
C      1  0.4690260000000  0.4782790000000  0.5362120000000 1.0
C      1  0.5877600000000  0.4833410000000  0.4828930000000 1.0
C      1  0.5625090000000  0.5626510000000  0.4846600000000 1.0
C      1  0.4948470000000  0.5963330000000  0.4897040000000 1.0
C      1  0.4250310000000  0.5557740000000  0.4898970000000 1.0
C      1  0.4175660000000  0.4735730000000  0.4810210000000 1.0
C      1  0.4635410000000  0.4126330000000  0.4832160000000 1.0
C      1  0.5473950000000  0.4114530000000  0.4866760000000 1.0
C      1  0.4848860000000  0.5032490000000  0.5260190000000 1.0
C      1  0.5159740000000  0.4945210000000  0.4141000000000 1.0
C      1  0.5085580000000  0.4884280000000  0.5880720000000 1.0
C      1  0.4932240000000  0.5046630000000  0.4350490000000 1.0
C      1  0.4982390000000  0.4960790000000  0.5565890000000 1.0
C      1  0.5193060000000  0.4915110000000  0.3889540000000 1.0
END
