TITL C-3289322-3858-35 0.000898634029047976 125000 -638.723891872722 0 0 116 (C1) n - 1
REM
REM in /nfs/bkarasulu/CARBON/AIRSS/Generating-Clusters/AIREBO/with-SteepDescent/Higher-Symm/SD-CG/HFTN-CG
REM
REM
REM
REM
REM
REM ./C.cell (b20cbc046b6831c77cfcea5457e17084)
REM
REM compiler GCC version 9.2.1 20190827 (Red Hat 9.2.1-1)
REM options -cpp -mtune=generic -march=x86-64 -g -O0 -fpre-include=/usr/include/finclude/math-vector-fortran.h
REM seed 210541776 1341605184 -134410506 -292653626 -2093992569 1376363707 1651686584 -752335410 -1783815460 2109857417 435526367 -1043525296 -1896404124 -909875472 1720719719 -1273862815 -1733404318 -2135185903 183849427 -199657556 -9631038 -1536747573 1627494480 -454610891 -1399854605 1893293438 -557049555 1260242513 -2115278380 365394644 -1261782039 -38419131 -622696883
REM
CELL 1.54180   50.00000   50.00000   50.00000   90.00000   90.00000   90.00000
LATT -1
SFAC C  
C      1  0.5584730000000  0.5093720000000  0.5213370000000 1.0
C      1  0.4414440000000  0.5098520000000  0.4783500000000 1.0
C      1  0.5475640000000  0.4986830000000  0.4906270000000 1.0
C      1  0.4468890000000  0.5055100000000  0.5116390000000 1.0
C      1  0.4684280000000  0.5653580000000  0.4998580000000 1.0
C      1  0.5302280000000  0.5698990000000  0.5029940000000 1.0
C      1  0.4703980000000  0.4311300000000  0.5003770000000 1.0
C      1  0.5308770000000  0.4304030000000  0.4989420000000 1.0
C      1  0.5221240000000  0.5682200000000  0.5443940000000 1.0
C      1  0.4773800000000  0.5649690000000  0.4605630000000 1.0
C      1  0.5224490000000  0.4327980000000  0.4551120000000 1.0
C      1  0.4767160000000  0.4345560000000  0.5479490000000 1.0
C      1  0.5250890000000  0.4754000000000  0.5010710000000 1.0
C      1  0.4919810000000  0.4758170000000  0.5088010000000 1.0
C      1  0.5122030000000  0.5224800000000  0.5078070000000 1.0
C      1  0.4830720000000  0.5125800000000  0.4961420000000 1.0
C      1  0.4204710000000  0.4863090000000  0.5021780000000 1.0
C      1  0.5775910000000  0.4834790000000  0.4954670000000 1.0
C      1  0.4140670000000  0.5191450000000  0.4945230000000 1.0
C      1  0.5816230000000  0.5168180000000  0.5008580000000 1.0
C      1  0.5658270000000  0.5431710000000  0.5597440000000 1.0
C      1  0.4345700000000  0.5480240000000  0.4423520000000 1.0
C      1  0.5621380000000  0.4585640000000  0.4354210000000 1.0
C      1  0.4416750000000  0.4701560000000  0.5560290000000 1.0
C      1  0.4809470000000  0.5614170000000  0.5303920000000 1.0
C      1  0.5152630000000  0.5633080000000  0.4731660000000 1.0
C      1  0.4836940000000  0.4379720000000  0.4702350000000 1.0
C      1  0.5189730000000  0.4348540000000  0.5300100000000 1.0
C      1  0.5541450000000  0.4366010000000  0.4526510000000 1.0
C      1  0.4462930000000  0.4424420000000  0.5463650000000 1.0
C      1  0.5539270000000  0.5659490000000  0.5433880000000 1.0
C      1  0.4479510000000  0.5684790000000  0.4605560000000 1.0
C      1  0.5710140000000  0.4482750000000  0.5284730000000 1.0
C      1  0.4339020000000  0.4527900000000  0.4706220000000 1.0
C      1  0.5707260000000  0.5485120000000  0.4680500000000 1.0
C      1  0.4325710000000  0.5533480000000  0.5288570000000 1.0
C      1  0.5795620000000  0.5442800000000  0.4939400000000 1.0
C      1  0.4175740000000  0.5454070000000  0.5042700000000 1.0
C      1  0.5774910000000  0.4557080000000  0.5015920000000 1.0
C      1  0.4253920000000  0.4589160000000  0.4964730000000 1.0
C      1  0.4289240000000  0.6007020000000  0.4976280000000 1.0
C      1  0.5617620000000  0.5976340000000  0.5022990000000 1.0
C      1  0.4306640000000  0.4042850000000  0.5186420000000 1.0
C      1  0.5707600000000  0.4015150000000  0.4876090000000 1.0
C      1  0.5661440000000  0.5372310000000  0.4389990000000 1.0
C      1  0.4300950000000  0.5428790000000  0.5593950000000 1.0
C      1  0.5700500000000  0.4574090000000  0.5612210000000 1.0
C      1  0.4340930000000  0.4591570000000  0.4387300000000 1.0
C      1  0.4555720000000  0.5427720000000  0.5741890000000 1.0
C      1  0.5394720000000  0.5457730000000  0.4258010000000 1.0
C      1  0.4605930000000  0.4562990000000  0.4247310000000 1.0
C      1  0.5437830000000  0.4523490000000  0.5744780000000 1.0
C      1  0.4943170000000  0.4101040000000  0.5321880000000 1.0
C      1  0.5028590000000  0.4093970000000  0.4701030000000 1.0
C      1  0.4951050000000  0.5906760000000  0.4721030000000 1.0
C      1  0.4993480000000  0.5903630000000  0.5322680000000 1.0
C      1  0.4522660000000  0.3874210000000  0.5115800000000 1.0
C      1  0.5531480000000  0.3827110000000  0.5031070000000 1.0
C      1  0.4516410000000  0.6156740000000  0.5108270000000 1.0
C      1  0.5417110000000  0.6141380000000  0.4879880000000 1.0
C      1  0.4401930000000  0.5995120000000  0.4673140000000 1.0
C      1  0.5517120000000  0.5958740000000  0.5323500000000 1.0
C      1  0.4261970000000  0.4174340000000  0.5441210000000 1.0
C      1  0.5544900000000  0.4050770000000  0.4601350000000 1.0
C      1  0.4603410000000  0.5348000000000  0.5352970000000 1.0
C      1  0.5386140000000  0.5400690000000  0.4671630000000 1.0
C      1  0.4647110000000  0.4653270000000  0.4633020000000 1.0
C      1  0.5402270000000  0.4607960000000  0.5356600000000 1.0
C      1  0.5127210000000  0.4513110000000  0.4818980000000 1.0
C      1  0.4894450000000  0.4481850000000  0.5196690000000 1.0
C      1  0.5105220000000  0.5491740000000  0.5189070000000 1.0
C      1  0.4881840000000  0.5440950000000  0.4843930000000 1.0
C      1  0.4674870000000  0.4857150000000  0.5562390000000 1.0
C      1  0.5408660000000  0.4807720000000  0.4209150000000 1.0
C      1  0.4703470000000  0.5104990000000  0.4315930000000 1.0
C      1  0.5303940000000  0.5064510000000  0.5558490000000 1.0
C      1  0.5177190000000  0.5081990000000  0.4774040000000 1.0
C      1  0.4732910000000  0.4962340000000  0.5244230000000 1.0
C      1  0.5201990000000  0.4988980000000  0.5251550000000 1.0
C      1  0.4951410000000  0.4868730000000  0.4774470000000 1.0
C      1  0.5068460000000  0.5547200000000  0.5669560000000 1.0
C      1  0.4924710000000  0.5545400000000  0.4369140000000 1.0
C      1  0.5072240000000  0.4401620000000  0.4301470000000 1.0
C      1  0.4958990000000  0.4400980000000  0.5723410000000 1.0
C      1  0.5568860000000  0.5120960000000  0.4608010000000 1.0
C      1  0.4325920000000  0.5154110000000  0.5394970000000 1.0
C      1  0.5638310000000  0.4846360000000  0.5413100000000 1.0
C      1  0.4421610000000  0.4880320000000  0.4547760000000 1.0
C      1  0.4766840000000  0.4017400000000  0.5101370000000 1.0
C      1  0.5310900000000  0.4011270000000  0.4844850000000 1.0
C      1  0.4671130000000  0.5955960000000  0.4877210000000 1.0
C      1  0.5236460000000  0.5998730000000  0.5135750000000 1.0
C      1  0.5390440000000  0.5123630000000  0.4244200000000 1.0
C      1  0.4640810000000  0.5122570000000  0.5768670000000 1.0
C      1  0.5294700000000  0.4778700000000  0.5721110000000 1.0
C      1  0.4737900000000  0.4831730000000  0.4287050000000 1.0
C      1  0.5195790000000  0.5192660000000  0.4481590000000 1.0
C      1  0.4833330000000  0.5220600000000  0.5544800000000 1.0
C      1  0.5119390000000  0.4736010000000  0.5432720000000 1.0
C      1  0.4950930000000  0.4719170000000  0.4510140000000 1.0
C      1  0.5602180000000  0.5166430000000  0.5531010000000 1.0
C      1  0.4441450000000  0.5197160000000  0.4465630000000 1.0
C      1  0.5658550000000  0.4896880000000  0.4426600000000 1.0
C      1  0.4217520000000  0.4893210000000  0.5529020000000 1.0
C      1  0.4903760000000  0.4684590000000  0.5640250000000 1.0
C      1  0.5140350000000  0.4683940000000  0.4232410000000 1.0
C      1  0.4922150000000  0.5265320000000  0.4358930000000 1.0
C      1  0.5097050000000  0.5267720000000  0.5634730000000 1.0
C      1  0.5620430000000  0.4343310000000  0.4858170000000 1.0
C      1  0.4401090000000  0.4383040000000  0.5131880000000 1.0
C      1  0.5630550000000  0.5646420000000  0.5104600000000 1.0
C      1  0.4356680000000  0.5689930000000  0.4922670000000 1.0
C      1  0.5205450000000  0.5626600000000  0.4395590000000 1.0
C      1  0.4772710000000  0.5603740000000  0.5641940000000 1.0
C      1  0.5233000000000  0.4332910000000  0.5637170000000 1.0
C      1  0.4791260000000  0.4366040000000  0.4365520000000 1.0
END
