TITL C-3289335-9438-627 0.000773358507129492 125000 -794.255261237572 0 0 149 (C1) n - 1
REM
REM in /nfs/bkarasulu/CARBON/AIRSS/Generating-Clusters/AIREBO/with-SteepDescent/Higher-Symm/SD-CG/HFTN-CG
REM
REM
REM
REM
REM
REM ./C.cell (b20cbc046b6831c77cfcea5457e17084)
REM
REM compiler GCC version 9.2.1 20190827 (Red Hat 9.2.1-1)
REM options -cpp -mtune=generic -march=x86-64 -g -O0 -fpre-include=/usr/include/finclude/math-vector-fortran.h
REM seed 456510501 -1800260971 -1868025671 31679918 2093907290 -134520654 1294051585 -1799493975 1801388453 -35843858 563385810 -2061412033 1117680964 -500285940 317859026 136713801 634509449 644387251 -1587074724 1618455481 -1739083623 -237393172 1078162004 -123781718 -1132663991 355533994 152615831 -1498460668 1313541451 -358493508 -1124623572 -36636464 -952019851
REM
CELL 1.54180   50.00000   50.00000   50.00000   90.00000   90.00000   90.00000
LATT -1
SFAC C  
C      1  0.4217980000000  0.5237810000000  0.4741600000000 1.0
C      1  0.4511060000000  0.4299920000000  0.4780870000000 1.0
C      1  0.5470750000000  0.4383370000000  0.4711700000000 1.0
C      1  0.5768210000000  0.5275000000000  0.4762130000000 1.0
C      1  0.4970580000000  0.5731070000000  0.4682550000000 1.0
C      1  0.5031250000000  0.6015020000000  0.5148590000000 1.0
C      1  0.4027440000000  0.5416300000000  0.5224990000000 1.0
C      1  0.4298930000000  0.4106790000000  0.5220960000000 1.0
C      1  0.5577970000000  0.4025270000000  0.5159110000000 1.0
C      1  0.6044580000000  0.5276780000000  0.5213730000000 1.0
C      1  0.5661340000000  0.4589470000000  0.4575100000000 1.0
C      1  0.5621890000000  0.5509000000000  0.4600050000000 1.0
C      1  0.4762250000000  0.5795000000000  0.4453130000000 1.0
C      1  0.4191360000000  0.4941610000000  0.4606170000000 1.0
C      1  0.4782580000000  0.4227060000000  0.4593730000000 1.0
C      1  0.5299680000000  0.4466890000000  0.5754970000000 1.0
C      1  0.5795800000000  0.5126990000000  0.5783420000000 1.0
C      1  0.5088570000000  0.5754420000000  0.5791950000000 1.0
C      1  0.4285770000000  0.5260310000000  0.5727560000000 1.0
C      1  0.4502510000000  0.4424080000000  0.5665290000000 1.0
C      1  0.4863350000000  0.5305300000000  0.5795860000000 1.0
C      1  0.4464750000000  0.4832110000000  0.5717070000000 1.0
C      1  0.4877950000000  0.4559260000000  0.5649690000000 1.0
C      1  0.5369130000000  0.4851160000000  0.5904830000000 1.0
C      1  0.5376620000000  0.5392150000000  0.5697380000000 1.0
C      1  0.4898690000000  0.4689820000000  0.5135440000000 1.0
C      1  0.5421320000000  0.4729980000000  0.5055810000000 1.0
C      1  0.5401850000000  0.5265530000000  0.5049300000000 1.0
C      1  0.4841920000000  0.5257400000000  0.5079600000000 1.0
C      1  0.4563550000000  0.4896260000000  0.5057830000000 1.0
C      1  0.5432540000000  0.4681010000000  0.4363160000000 1.0
C      1  0.5501700000000  0.5334220000000  0.4366140000000 1.0
C      1  0.4861090000000  0.5517850000000  0.4282530000000 1.0
C      1  0.4422880000000  0.5022030000000  0.4374360000000 1.0
C      1  0.4792010000000  0.4469160000000  0.4375750000000 1.0
C      1  0.5060000000000  0.4762750000000  0.4108450000000 1.0
C      1  0.5233930000000  0.4984730000000  0.4098310000000 1.0
C      1  0.5079930000000  0.5222570000000  0.4081630000000 1.0
C      1  0.4808310000000  0.5145430000000  0.4085270000000 1.0
C      1  0.4794880000000  0.4860450000000  0.4093960000000 1.0
C      1  0.5056410000000  0.4391800000000  0.5090720000000 1.0
C      1  0.5706170000000  0.4846770000000  0.5057040000000 1.0
C      1  0.5354700000000  0.5592640000000  0.5077940000000 1.0
C      1  0.4591860000000  0.5485830000000  0.5111570000000 1.0
C      1  0.4336330000000  0.4683690000000  0.5070990000000 1.0
C      1  0.4299510000000  0.4415400000000  0.4356790000000 1.0
C      1  0.5318570000000  0.4197490000000  0.4392910000000 1.0
C      1  0.5890050000000  0.5046230000000  0.4337700000000 1.0
C      1  0.5265350000000  0.5842430000000  0.4339320000000 1.0
C      1  0.4247780000000  0.5481260000000  0.4426510000000 1.0
C      1  0.4666410000000  0.5870870000000  0.5479120000000 1.0
C      1  0.4084130000000  0.4929070000000  0.5418540000000 1.0
C      1  0.4864650000000  0.4130420000000  0.5420390000000 1.0
C      1  0.5752900000000  0.4623970000000  0.5500420000000 1.0
C      1  0.5705120000000  0.5615650000000  0.5518430000000 1.0
C      1  0.4240130000000  0.4393310000000  0.4663390000000 1.0
C      1  0.5281760000000  0.4118100000000  0.4706120000000 1.0
C      1  0.5940420000000  0.5048450000000  0.4644960000000 1.0
C      1  0.5241330000000  0.5876010000000  0.4657070000000 1.0
C      1  0.4256080000000  0.5572470000000  0.4736420000000 1.0
C      1  0.4640970000000  0.5276150000000  0.4312880000000 1.0
C      1  0.4604880000000  0.4746930000000  0.4314030000000 1.0
C      1  0.5111420000000  0.4568650000000  0.4353730000000 1.0
C      1  0.5422880000000  0.5004510000000  0.4339830000000 1.0
C      1  0.5187590000000  0.5426400000000  0.4300710000000 1.0
C      1  0.4446310000000  0.5203360000000  0.5096170000000 1.0
C      1  0.4617570000000  0.4503710000000  0.5107160000000 1.0
C      1  0.5387020000000  0.4432320000000  0.5161100000000 1.0
C      1  0.5593060000000  0.5120910000000  0.5223410000000 1.0
C      1  0.5031600000000  0.5618710000000  0.5180920000000 1.0
C      1  0.4558800000000  0.4218950000000  0.3992840000000 1.0
C      1  0.5602640000000  0.4335860000000  0.4022790000000 1.0
C      1  0.5776900000000  0.5306600000000  0.3942010000000 1.0
C      1  0.4843150000000  0.5988380000000  0.4152380000000 1.0
C      1  0.4087640000000  0.5224830000000  0.4046720000000 1.0
C      1  0.4477400000000  0.5644310000000  0.5369980000000 1.0
C      1  0.4097580000000  0.4602700000000  0.5365700000000 1.0
C      1  0.5155880000000  0.4155810000000  0.5396870000000 1.0
C      1  0.5856540000000  0.4827460000000  0.5332200000000 1.0
C      1  0.5474560000000  0.5806450000000  0.5392510000000 1.0
C      1  0.4523410000000  0.5839040000000  0.4611370000000 1.0
C      1  0.3912210000000  0.4802560000000  0.4684720000000 1.0
C      1  0.4787110000000  0.3963870000000  0.4791010000000 1.0
C      1  0.5968230000000  0.4532270000000  0.4655480000000 1.0
C      1  0.5748960000000  0.5791520000000  0.4694470000000 1.0
C      1  0.4647380000000  0.4631880000000  0.5888830000000 1.0
C      1  0.5099410000000  0.4694340000000  0.5870980000000 1.0
C      1  0.5643480000000  0.5014930000000  0.5970600000000 1.0
C      1  0.5130930000000  0.5481820000000  0.5849000000000 1.0
C      1  0.4574730000000  0.5129170000000  0.5834090000000 1.0
C      1  0.5088730000000  0.4482470000000  0.5417840000000 1.0
C      1  0.5442040000000  0.5016660000000  0.5582460000000 1.0
C      1  0.5339030000000  0.5507880000000  0.5407620000000 1.0
C      1  0.4579840000000  0.5340160000000  0.5482240000000 1.0
C      1  0.4417980000000  0.4711230000000  0.5400140000000 1.0
C      1  0.5440260000000  0.4094420000000  0.5398620000000 1.0
C      1  0.5926870000000  0.5104580000000  0.5439080000000 1.0
C      1  0.5238630000000  0.5981550000000  0.5366700000000 1.0
C      1  0.4210190000000  0.5492520000000  0.5482370000000 1.0
C      1  0.4271760000000  0.4341770000000  0.5446070000000 1.0
C      1  0.6238210000000  0.5092890000000  0.4703690000000 1.0
C      1  0.5228360000000  0.6170860000000  0.4737070000000 1.0
C      1  0.4021780000000  0.5740280000000  0.4830020000000 1.0
C      1  0.4019450000000  0.4185380000000  0.4712810000000 1.0
C      1  0.5404790000000  0.3853720000000  0.4786740000000 1.0
C      1  0.5290690000000  0.4947980000000  0.4624940000000 1.0
C      1  0.5185130000000  0.5331670000000  0.4609630000000 1.0
C      1  0.4756670000000  0.5220810000000  0.4604050000000 1.0
C      1  0.4624650000000  0.4798710000000  0.4632210000000 1.0
C      1  0.5003030000000  0.4673400000000  0.4646050000000 1.0
C      1  0.5545570000000  0.4233830000000  0.4982700000000 1.0
C      1  0.5966630000000  0.5375310000000  0.4994210000000 1.0
C      1  0.4852090000000  0.5782030000000  0.4974670000000 1.0
C      1  0.4044270000000  0.5306150000000  0.5005090000000 1.0
C      1  0.4440610000000  0.4112100000000  0.5015510000000 1.0
C      1  0.5320100000000  0.4660800000000  0.4770550000000 1.0
C      1  0.5437160000000  0.5196570000000  0.4763190000000 1.0
C      1  0.4924960000000  0.5417580000000  0.4790970000000 1.0
C      1  0.4520280000000  0.5086830000000  0.4779520000000 1.0
C      1  0.4729890000000  0.4559750000000  0.4798270000000 1.0
C      1  0.5137570000000  0.5297940000000  0.5235150000000 1.0
C      1  0.4728400000000  0.5100150000000  0.5358880000000 1.0
C      1  0.4733680000000  0.4767750000000  0.5422360000000 1.0
C      1  0.5193390000000  0.4766780000000  0.5263470000000 1.0
C      1  0.5195490000000  0.5019110000000  0.5421110000000 1.0
C      1  0.5454570000000  0.5722300000000  0.4812340000000 1.0
C      1  0.4552730000000  0.5663520000000  0.4864330000000 1.0
C      1  0.4176420000000  0.4660060000000  0.4807980000000 1.0
C      1  0.5017360000000  0.4192050000000  0.4840830000000 1.0
C      1  0.5832340000000  0.4799550000000  0.4782740000000 1.0
C      1  0.5486680000000  0.4412880000000  0.5485640000000 1.0
C      1  0.5646940000000  0.5280550000000  0.5518990000000 1.0
C      1  0.4992620000000  0.5775410000000  0.5466420000000 1.0
C      1  0.4293730000000  0.5173710000000  0.5398620000000 1.0
C      1  0.4599710000000  0.4333640000000  0.5352250000000 1.0
C      1  0.5572780000000  0.4748680000000  0.5681950000000 1.0
C      1  0.5656430000000  0.5541070000000  0.5820480000000 1.0
C      1  0.4772100000000  0.5572510000000  0.5627500000000 1.0
C      1  0.4147610000000  0.4829270000000  0.5689500000000 1.0
C      1  0.4775520000000  0.4234590000000  0.5694450000000 1.0
C      1  0.5445250000000  0.4380680000000  0.4242160000000 1.0
C      1  0.5732430000000  0.5211880000000  0.4194620000000 1.0
C      1  0.5050810000000  0.5781440000000  0.4181750000000 1.0
C      1  0.4244520000000  0.5266200000000  0.4267110000000 1.0
C      1  0.4527910000000  0.4367150000000  0.4220630000000 1.0
C      1  0.4862750000000  0.4955650000000  0.4939060000000 1.0
C      1  0.4942670000000  0.5069230000000  0.5580990000000 1.0
C      1  0.4837730000000  0.4908730000000  0.5836500000000 1.0
C      1  0.4976750000000  0.4992180000000  0.4655300000000 1.0
END
