TITL C-3289327-5623-750 0.00296208064741184 125000 -646.338963266403 0 0 113 (C1) n - 1
REM
REM in /nfs/bkarasulu/CARBON/AIRSS/Generating-Clusters/AIREBO/with-SteepDescent/Higher-Symm/SD-CG/HFTN-CG
REM
REM
REM
REM
REM
REM ./C.cell (b20cbc046b6831c77cfcea5457e17084)
REM
REM compiler GCC version 9.2.1 20190827 (Red Hat 9.2.1-1)
REM options -cpp -mtune=generic -march=x86-64 -g -O0 -fpre-include=/usr/include/finclude/math-vector-fortran.h
REM seed -331712277 -1570775137 1286330213 -1160898427 -1752930808 337152773 1903928713 -950914749 -1390402678 -925724475 -998851354 1230212567 -2014705456 -2006426306 103991829 -13686956 -1137794832 -483595247 975095188 -116137281 -599432617 125147693 366761987 2003227995 -892062791 -1291888323 1274386072 -2041979201 -1654173678 -915464411 8797786 2013289950 -1174644801
REM
CELL 1.54180   50.00000   50.00000   50.00000   90.00000   90.00000   90.00000
LATT -1
SFAC C  
C      1  0.4863150000000  0.4065600000000  0.5384060000000 1.0
C      1  0.5619530000000  0.4240130000000  0.4564960000000 1.0
C      1  0.5713930000000  0.4868130000000  0.5395560000000 1.0
C      1  0.5773870000000  0.5502780000000  0.4603030000000 1.0
C      1  0.5160860000000  0.5752570000000  0.5451160000000 1.0
C      1  0.4571320000000  0.5645250000000  0.4527940000000 1.0
C      1  0.4164950000000  0.5194730000000  0.5453820000000 1.0
C      1  0.4278410000000  0.4586810000000  0.4651500000000 1.0
C      1  0.4383390000000  0.5033730000000  0.4328960000000 1.0
C      1  0.4590270000000  0.4703400000000  0.5632080000000 1.0
C      1  0.4890750000000  0.4524310000000  0.4385770000000 1.0
C      1  0.5296220000000  0.4546070000000  0.5571150000000 1.0
C      1  0.5486380000000  0.4959470000000  0.4410950000000 1.0
C      1  0.5424090000000  0.5428820000000  0.5476310000000 1.0
C      1  0.5055420000000  0.5524150000000  0.4367490000000 1.0
C      1  0.4588460000000  0.5468140000000  0.5637070000000 1.0
C      1  0.4767240000000  0.5272470000000  0.5815010000000 1.0
C      1  0.4590600000000  0.5040450000000  0.4130610000000 1.0
C      1  0.4733720000000  0.4767980000000  0.5857700000000 1.0
C      1  0.4932250000000  0.4662890000000  0.4155040000000 1.0
C      1  0.5222320000000  0.4698330000000  0.5792200000000 1.0
C      1  0.5331750000000  0.4975920000000  0.4175810000000 1.0
C      1  0.5290450000000  0.5261560000000  0.5740570000000 1.0
C      1  0.5011160000000  0.5370460000000  0.4135730000000 1.0
C      1  0.4728360000000  0.5166130000000  0.4659700000000 1.0
C      1  0.4656510000000  0.5050940000000  0.5368790000000 1.0
C      1  0.4752230000000  0.4827090000000  0.4684150000000 1.0
C      1  0.4977780000000  0.4507890000000  0.5334270000000 1.0
C      1  0.5372070000000  0.4640640000000  0.4623110000000 1.0
C      1  0.5198900000000  0.5099810000000  0.5456320000000 1.0
C      1  0.5323580000000  0.5257040000000  0.4661640000000 1.0
C      1  0.4895920000000  0.5253670000000  0.5500780000000 1.0
C      1  0.5707530000000  0.4757590000000  0.4439340000000 1.0
C      1  0.5676290000000  0.5299660000000  0.5623290000000 1.0
C      1  0.5309840000000  0.5650730000000  0.4476230000000 1.0
C      1  0.4682990000000  0.5754890000000  0.5548400000000 1.0
C      1  0.4231060000000  0.5298020000000  0.4427660000000 1.0
C      1  0.4283330000000  0.4718030000000  0.5607160000000 1.0
C      1  0.4663170000000  0.4334430000000  0.4459750000000 1.0
C      1  0.5306190000000  0.4242710000000  0.5547390000000 1.0
C      1  0.4425610000000  0.5047060000000  0.4666080000000 1.0
C      1  0.4534690000000  0.4741120000000  0.5298500000000 1.0
C      1  0.4891860000000  0.4520270000000  0.4729190000000 1.0
C      1  0.5259690000000  0.4598030000000  0.5233930000000 1.0
C      1  0.5502950000000  0.4894160000000  0.4754260000000 1.0
C      1  0.5466860000000  0.5375930000000  0.5197580000000 1.0
C      1  0.5064630000000  0.5375210000000  0.4630650000000 1.0
C      1  0.4679400000000  0.5436490000000  0.5310970000000 1.0
C      1  0.4296930000000  0.4285000000000  0.5300440000000 1.0
C      1  0.5005280000000  0.4023330000000  0.4690290000000 1.0
C      1  0.5731100000000  0.4313650000000  0.5271020000000 1.0
C      1  0.6025290000000  0.5047590000000  0.4762960000000 1.0
C      1  0.5734550000000  0.5732890000000  0.5304860000000 1.0
C      1  0.5031180000000  0.5962630000000  0.4765580000000 1.0
C      1  0.4308520000000  0.5724740000000  0.5199260000000 1.0
C      1  0.3959650000000  0.5015230000000  0.4784640000000 1.0
C      1  0.4234800000000  0.4727630000000  0.5132080000000 1.0
C      1  0.4700060000000  0.4333860000000  0.4939580000000 1.0
C      1  0.5320220000000  0.4326060000000  0.5038350000000 1.0
C      1  0.5735110000000  0.4711470000000  0.4924020000000 1.0
C      1  0.5788990000000  0.5358450000000  0.5098730000000 1.0
C      1  0.5355770000000  0.5684690000000  0.4971800000000 1.0
C      1  0.4733960000000  0.5639150000000  0.5043420000000 1.0
C      1  0.4321650000000  0.5249130000000  0.4919350000000 1.0
C      1  0.5816350000000  0.5469200000000  0.5414740000000 1.0
C      1  0.5266920000000  0.5813710000000  0.4698380000000 1.0
C      1  0.4575550000000  0.5818850000000  0.5285130000000 1.0
C      1  0.4087940000000  0.5258120000000  0.4672340000000 1.0
C      1  0.4199630000000  0.4547310000000  0.5395610000000 1.0
C      1  0.4745500000000  0.4148450000000  0.4658190000000 1.0
C      1  0.5466170000000  0.4197760000000  0.5317410000000 1.0
C      1  0.5881300000000  0.4816600000000  0.4655320000000 1.0
C      1  0.4325080000000  0.5580320000000  0.4955110000000 1.0
C      1  0.4055590000000  0.4949760000000  0.5043730000000 1.0
C      1  0.4387260000000  0.4298510000000  0.5021900000000 1.0
C      1  0.5107120000000  0.4073350000000  0.4957990000000 1.0
C      1  0.5745270000000  0.4421990000000  0.5007760000000 1.0
C      1  0.5942080000000  0.5112070000000  0.5032090000000 1.0
C      1  0.5646690000000  0.5726480000000  0.5035440000000 1.0
C      1  0.4946480000000  0.5878120000000  0.5024910000000 1.0
C      1  0.5173520000000  0.5821590000000  0.5183730000000 1.0
C      1  0.4531770000000  0.5703900000000  0.4792390000000 1.0
C      1  0.4114900000000  0.5195220000000  0.5183830000000 1.0
C      1  0.4241000000000  0.4515670000000  0.4914980000000 1.0
C      1  0.4860360000000  0.4090620000000  0.5106550000000 1.0
C      1  0.5584830000000  0.4245520000000  0.4840480000000 1.0
C      1  0.5838220000000  0.4882730000000  0.5148830000000 1.0
C      1  0.5828070000000  0.5571160000000  0.4866470000000 1.0
C      1  0.4755520000000  0.4579490000000  0.5150680000000 1.0
C      1  0.5186240000000  0.4505550000000  0.4788300000000 1.0
C      1  0.5266860000000  0.4901790000000  0.5189860000000 1.0
C      1  0.5340310000000  0.5094840000000  0.4943620000000 1.0
C      1  0.5187500000000  0.5391230000000  0.5010700000000 1.0
C      1  0.4865390000000  0.5357010000000  0.4905790000000 1.0
C      1  0.4627660000000  0.5157940000000  0.5045860000000 1.0
C      1  0.4770470000000  0.4860880000000  0.5000240000000 1.0
C      1  0.4712070000000  0.4800430000000  0.4044450000000 1.0
C      1  0.4977180000000  0.4645340000000  0.5917680000000 1.0
C      1  0.5191510000000  0.4746310000000  0.4092720000000 1.0
C      1  0.5333960000000  0.4953180000000  0.5836400000000 1.0
C      1  0.5233730000000  0.5213990000000  0.4059240000000 1.0
C      1  0.5055250000000  0.5393740000000  0.5887830000000 1.0
C      1  0.4749540000000  0.5273030000000  0.4090050000000 1.0
C      1  0.4689060000000  0.5023240000000  0.5967700000000 1.0
C      1  0.4358740000000  0.5010460000000  0.5531530000000 1.0
C      1  0.4539020000000  0.4593700000000  0.4558890000000 1.0
C      1  0.5008650000000  0.4278060000000  0.5496040000000 1.0
C      1  0.5567080000000  0.4489680000000  0.4451120000000 1.0
C      1  0.5532190000000  0.5048130000000  0.5505640000000 1.0
C      1  0.5511470000000  0.5439130000000  0.4533490000000 1.0
C      1  0.4958540000000  0.5584600000000  0.5549990000000 1.0
C      1  0.4538190000000  0.5373600000000  0.4464900000000 1.0
C      1  0.4992260000000  0.5017160000000  0.5124040000000 1.0
END
