TITL C-3289320-4661-154 -0.000391218514177398 125000 -874.874560890261 0 0 174 (C1) n - 1
REM
REM in /nfs/bkarasulu/CARBON/AIRSS/Generating-Clusters/AIREBO/with-SteepDescent/Higher-Symm/SD-CG/HFTN-CG
REM
REM
REM
REM
REM
REM ./C.cell (b20cbc046b6831c77cfcea5457e17084)
REM
REM compiler GCC version 9.2.1 20190827 (Red Hat 9.2.1-1)
REM options -cpp -mtune=generic -march=x86-64 -g -O0 -fpre-include=/usr/include/finclude/math-vector-fortran.h
REM seed 917140305 504917200 1833995496 -1578726868 346007775 1254748591 -1977983124 1712301715 -1256956158 205959836 722434275 -1205944730 -441609802 -1078194500 -1716384183 1568942439 275701828 424916677 2003050841 21694041 1780882592 1933304451 63839976 928044349 452895964 1359523635 -757075654 -1867899617 2083266107 1367141913 894292241 -350142152 -1206548765
REM
CELL 1.54180   50.00000   50.00000   50.00000   90.00000   90.00000   90.00000
LATT -1
SFAC C  
C      1  0.5395870000000  0.4930430000000  0.4211400000000 1.0
C      1  0.5130340000000  0.4640100000000  0.4270620000000 1.0
C      1  0.4765480000000  0.4801070000000  0.4265980000000 1.0
C      1  0.4802520000000  0.5193160000000  0.4213760000000 1.0
C      1  0.5189820000000  0.5273850000000  0.4243100000000 1.0
C      1  0.5389150000000  0.5051760000000  0.5750790000000 1.0
C      1  0.5095880000000  0.5332540000000  0.5749940000000 1.0
C      1  0.4746880000000  0.5138520000000  0.5743640000000 1.0
C      1  0.4819940000000  0.4748440000000  0.5743650000000 1.0
C      1  0.5212680000000  0.4695030000000  0.5738960000000 1.0
C      1  0.5297780000000  0.5255180000000  0.4642110000000 1.0
C      1  0.5472350000000  0.4661050000000  0.4650480000000 1.0
C      1  0.4919060000000  0.4813000000000  0.4635110000000 1.0
C      1  0.4702280000000  0.5045610000000  0.4679020000000 1.0
C      1  0.4965490000000  0.5380520000000  0.4614360000000 1.0
C      1  0.5277580000000  0.4760950000000  0.5411770000000 1.0
C      1  0.5165460000000  0.5050410000000  0.5270220000000 1.0
C      1  0.4837570000000  0.5436130000000  0.5392440000000 1.0
C      1  0.4605630000000  0.4959150000000  0.5284720000000 1.0
C      1  0.4990890000000  0.4580490000000  0.5361110000000 1.0
C      1  0.5932150000000  0.5803600000000  0.5334960000000 1.0
C      1  0.5949600000000  0.4564860000000  0.5251170000000 1.0
C      1  0.4590280000000  0.3936830000000  0.5325160000000 1.0
C      1  0.3877420000000  0.4829700000000  0.5332460000000 1.0
C      1  0.4659960000000  0.6028870000000  0.5177610000000 1.0
C      1  0.5816010000000  0.4265940000000  0.4841940000000 1.0
C      1  0.5886320000000  0.5765070000000  0.4758320000000 1.0
C      1  0.4780300000000  0.5953760000000  0.4710930000000 1.0
C      1  0.3874570000000  0.5204160000000  0.4726770000000 1.0
C      1  0.4468310000000  0.3925980000000  0.4722220000000 1.0
C      1  0.5035490000000  0.4096010000000  0.4678960000000 1.0
C      1  0.4471810000000  0.4638750000000  0.4602320000000 1.0
C      1  0.4412510000000  0.5434920000000  0.4653840000000 1.0
C      1  0.5290880000000  0.5766080000000  0.4816530000000 1.0
C      1  0.5925730000000  0.4951650000000  0.4776790000000 1.0
C      1  0.5247880000000  0.5802490000000  0.5358840000000 1.0
C      1  0.4067210000000  0.5402580000000  0.5176580000000 1.0
C      1  0.4384270000000  0.4506660000000  0.5229000000000 1.0
C      1  0.5388080000000  0.4199610000000  0.5185850000000 1.0
C      1  0.5696560000000  0.5043030000000  0.5371230000000 1.0
C      1  0.4821240000000  0.5480630000000  0.4069690000000 1.0
C      1  0.5478220000000  0.5344340000000  0.4130630000000 1.0
C      1  0.5588920000000  0.4673890000000  0.4134840000000 1.0
C      1  0.4913870000000  0.4419360000000  0.4185470000000 1.0
C      1  0.4487510000000  0.4914710000000  0.4173110000000 1.0
C      1  0.4846450000000  0.4457000000000  0.5887960000000 1.0
C      1  0.5510500000000  0.4612750000000  0.5863100000000 1.0
C      1  0.5574130000000  0.5307850000000  0.5988050000000 1.0
C      1  0.4826200000000  0.5513320000000  0.5850920000000 1.0
C      1  0.4496980000000  0.4968600000000  0.5870950000000 1.0
C      1  0.4681830000000  0.4547730000000  0.5392790000000 1.0
C      1  0.4417860000000  0.5159510000000  0.5473800000000 1.0
C      1  0.4970710000000  0.5689820000000  0.5502450000000 1.0
C      1  0.5601790000000  0.5357110000000  0.5446980000000 1.0
C      1  0.5351290000000  0.4420350000000  0.5441920000000 1.0
C      1  0.4676090000000  0.5469340000000  0.4476500000000 1.0
C      1  0.4141490000000  0.4901700000000  0.4496030000000 1.0
C      1  0.4774660000000  0.4306710000000  0.4658470000000 1.0
C      1  0.5682710000000  0.4888860000000  0.4558700000000 1.0
C      1  0.5302670000000  0.5578070000000  0.4535660000000 1.0
C      1  0.4838940000000  0.4007640000000  0.5115160000000 1.0
C      1  0.3985080000000  0.4792490000000  0.5043730000000 1.0
C      1  0.4477580000000  0.5778280000000  0.5032450000000 1.0
C      1  0.5617350000000  0.5835230000000  0.5210370000000 1.0
C      1  0.6018750000000  0.4733710000000  0.4998040000000 1.0
C      1  0.4951520000000  0.5946950000000  0.4917340000000 1.0
C      1  0.4093200000000  0.5374190000000  0.4877760000000 1.0
C      1  0.4378390000000  0.4210030000000  0.4861040000000 1.0
C      1  0.5480730000000  0.4242960000000  0.4899770000000 1.0
C      1  0.5896030000000  0.5449020000000  0.4905910000000 1.0
C      1  0.4498120000000  0.4213520000000  0.5143730000000 1.0
C      1  0.3989620000000  0.5128950000000  0.5259660000000 1.0
C      1  0.4992360000000  0.5979130000000  0.5229740000000 1.0
C      1  0.5879530000000  0.5496990000000  0.5197740000000 1.0
C      1  0.5778300000000  0.4340900000000  0.5147080000000 1.0
C      1  0.4537890000000  0.5732830000000  0.4743640000000 1.0
C      1  0.3872790000000  0.4905390000000  0.4806340000000 1.0
C      1  0.4791020000000  0.3946820000000  0.4827800000000 1.0
C      1  0.6023400000000  0.4512720000000  0.4776660000000 1.0
C      1  0.5595870000000  0.5761860000000  0.4919040000000 1.0
C      1  0.4592740000000  0.5407750000000  0.5626930000000 1.0
C      1  0.5557420000000  0.5477370000000  0.5761940000000 1.0
C      1  0.5562210000000  0.4816640000000  0.5589500000000 1.0
C      1  0.5076280000000  0.4408570000000  0.5641840000000 1.0
C      1  0.4552430000000  0.4799910000000  0.5580650000000 1.0
C      1  0.4773880000000  0.4558290000000  0.4462710000000 1.0
C      1  0.5395350000000  0.4547910000000  0.4358810000000 1.0
C      1  0.5532410000000  0.5154160000000  0.4407690000000 1.0
C      1  0.5038540000000  0.5542360000000  0.4324280000000 1.0
C      1  0.4552080000000  0.5162820000000  0.4396660000000 1.0
C      1  0.5385530000000  0.4014570000000  0.5439610000000 1.0
C      1  0.4197140000000  0.4430660000000  0.5473510000000 1.0
C      1  0.4106270000000  0.5570740000000  0.5446840000000 1.0
C      1  0.5364290000000  0.6045060000000  0.5540930000000 1.0
C      1  0.6006020000000  0.5076420000000  0.5473240000000 1.0
C      1  0.5267470000000  0.5973040000000  0.4572810000000 1.0
C      1  0.4103000000000  0.5478670000000  0.4554320000000 1.0
C      1  0.4159930000000  0.4504190000000  0.4617410000000 1.0
C      1  0.5192270000000  0.3995670000000  0.4464400000000 1.0
C      1  0.6030170000000  0.5073780000000  0.4496210000000 1.0
C      1  0.4988310000000  0.4670770000000  0.3963160000000 1.0
C      1  0.4750090000000  0.4906570000000  0.3943130000000 1.0
C      1  0.4926630000000  0.5196760000000  0.3905020000000 1.0
C      1  0.5255170000000  0.5170730000000  0.3926720000000 1.0
C      1  0.5270010000000  0.4835810000000  0.3910010000000 1.0
C      1  0.4967670000000  0.5262300000000  0.6052150000000 1.0
C      1  0.4784520000000  0.4999490000000  0.6051690000000 1.0
C      1  0.4965800000000  0.4733370000000  0.6050450000000 1.0
C      1  0.5287710000000  0.4806280000000  0.6051440000000 1.0
C      1  0.5283470000000  0.5146450000000  0.6059770000000 1.0
C      1  0.5593490000000  0.4285900000000  0.4585640000000 1.0
C      1  0.4397610000000  0.4201500000000  0.4518820000000 1.0
C      1  0.3944120000000  0.5231420000000  0.4394630000000 1.0
C      1  0.4826450000000  0.5983170000000  0.4407310000000 1.0
C      1  0.5852440000000  0.5494530000000  0.4577750000000 1.0
C      1  0.5664610000000  0.5790180000000  0.5544340000000 1.0
C      1  0.4502410000000  0.5799040000000  0.5364110000000 1.0
C      1  0.4079420000000  0.4788740000000  0.5593770000000 1.0
C      1  0.4887590000000  0.4030820000000  0.5460860000000 1.0
C      1  0.5877550000000  0.4574370000000  0.5548500000000 1.0
C      1  0.4814130000000  0.5273860000000  0.4884690000000 1.0
C      1  0.5323400000000  0.5388660000000  0.4954050000000 1.0
C      1  0.5394600000000  0.4779710000000  0.4957530000000 1.0
C      1  0.4958500000000  0.4593380000000  0.4865380000000 1.0
C      1  0.4460460000000  0.4879750000000  0.4832650000000 1.0
C      1  0.4709790000000  0.4757890000000  0.5029270000000 1.0
C      1  0.5195230000000  0.4536710000000  0.5092780000000 1.0
C      1  0.5421750000000  0.5104900000000  0.5053530000000 1.0
C      1  0.5038730000000  0.5335780000000  0.5132470000000 1.0
C      1  0.4645600000000  0.5278280000000  0.5170500000000 1.0
C      1  0.5664600000000  0.4354690000000  0.5428910000000 1.0
C      1  0.4608670000000  0.4242030000000  0.5457240000000 1.0
C      1  0.4156740000000  0.5062420000000  0.5493550000000 1.0
C      1  0.4772590000000  0.5937600000000  0.5488310000000 1.0
C      1  0.5882340000000  0.5527220000000  0.5536380000000 1.0
C      1  0.5598080000000  0.5713430000000  0.4572950000000 1.0
C      1  0.4585290000000  0.5790520000000  0.4411190000000 1.0
C      1  0.3831260000000  0.4918750000000  0.4469070000000 1.0
C      1  0.4687100000000  0.4024130000000  0.4499830000000 1.0
C      1  0.5786660000000  0.4561170000000  0.4574090000000 1.0
C      1  0.4257610000000  0.4719610000000  0.5042810000000 1.0
C      1  0.4396280000000  0.5476650000000  0.5146920000000 1.0
C      1  0.5435870000000  0.5548550000000  0.5232970000000 1.0
C      1  0.5712590000000  0.4845540000000  0.5094860000000 1.0
C      1  0.5061500000000  0.4242560000000  0.5199400000000 1.0
C      1  0.4267750000000  0.5132620000000  0.4711820000000 1.0
C      1  0.4576900000000  0.4486190000000  0.4869000000000 1.0
C      1  0.5170990000000  0.4326460000000  0.4826500000000 1.0
C      1  0.5746150000000  0.5158930000000  0.4966820000000 1.0
C      1  0.5067130000000  0.5659960000000  0.5033320000000 1.0
C      1  0.4318250000000  0.4597260000000  0.5721180000000 1.0
C      1  0.4359700000000  0.5625080000000  0.5536010000000 1.0
C      1  0.5407100000000  0.5771960000000  0.5738910000000 1.0
C      1  0.5884330000000  0.4859370000000  0.5689690000000 1.0
C      1  0.5161280000000  0.4080380000000  0.5615400000000 1.0
C      1  0.4263130000000  0.5315520000000  0.4302610000000 1.0
C      1  0.4264330000000  0.4446030000000  0.4323640000000 1.0
C      1  0.5401210000000  0.4221190000000  0.4349550000000 1.0
C      1  0.5847310000000  0.5266370000000  0.4409240000000 1.0
C      1  0.5100780000000  0.5876500000000  0.4335300000000 1.0
C      1  0.4263060000000  0.4753580000000  0.4283970000000 1.0
C      1  0.4489590000000  0.5409940000000  0.4089410000000 1.0
C      1  0.5309040000000  0.5642280000000  0.4143880000000 1.0
C      1  0.5785630000000  0.4620390000000  0.3980870000000 1.0
C      1  0.5122440000000  0.4199840000000  0.4155690000000 1.0
C      1  0.4396870000000  0.5274370000000  0.5874150000000 1.0
C      1  0.4537590000000  0.4446710000000  0.5926510000000 1.0
C      1  0.5346980000000  0.4316860000000  0.5826580000000 1.0
C      1  0.5696800000000  0.5023820000000  0.5902610000000 1.0
C      1  0.5135230000000  0.5648610000000  0.5775340000000 1.0
C      1  0.5053830000000  0.4995190000000  0.5756490000000 1.0
C      1  0.5057860000000  0.4968470000000  0.4219900000000 1.0
C      1  0.4989490000000  0.4951310000000  0.5034220000000 1.0
C      1  0.5177700000000  0.4963150000000  0.4770340000000 1.0
END
