TITL C-3289328-6581-570 -0.00111414744587882 125000 -1033.74088086505 0 0 185 (C1) n - 1
REM
REM in /nfs/bkarasulu/CARBON/AIRSS/Generating-Clusters/AIREBO/with-SteepDescent/Higher-Symm/SD-CG/HFTN-CG
REM
REM
REM
REM
REM
REM ./C.cell (b20cbc046b6831c77cfcea5457e17084)
REM
REM compiler GCC version 9.2.1 20190827 (Red Hat 9.2.1-1)
REM options -cpp -mtune=generic -march=x86-64 -g -O0 -fpre-include=/usr/include/finclude/math-vector-fortran.h
REM seed -1778367889 -445937732 210792532 -582233819 1555940141 -1923350223 -1024616976 -1843225932 -483923323 336802586 398904264 1643996923 -1719961008 1793546156 1289145723 -1851337789 1567792932 -1344325959 201896285 1002328681 1648237192 -1548154361 -477675206 281468180 1991228377 -596350441 1032675154 -2121196647 1969851839 -204891031 637502984 -911055546 118112996
REM
CELL 1.54180   50.00000   50.00000   50.00000   90.00000   90.00000   90.00000
LATT -1
SFAC C  
C      1  0.5397520000000  0.5150400000000  0.4848920000000 1.0
C      1  0.4880910000000  0.5051080000000  0.4531130000000 1.0
C      1  0.4670700000000  0.5080130000000  0.5098990000000 1.0
C      1  0.5135860000000  0.5077410000000  0.5341030000000 1.0
C      1  0.4543070000000  0.5016970000000  0.4806900000000 1.0
C      1  0.5078940000000  0.5194120000000  0.4742670000000 1.0
C      1  0.5405980000000  0.4941610000000  0.5079560000000 1.0
C      1  0.4859730000000  0.5182830000000  0.5482440000000 1.0
C      1  0.6059810000000  0.5297640000000  0.4911680000000 1.0
C      1  0.4834810000000  0.5388930000000  0.3968190000000 1.0
C      1  0.3822800000000  0.5430330000000  0.5137030000000 1.0
C      1  0.5141950000000  0.5337180000000  0.6157940000000 1.0
C      1  0.3659290000000  0.5300560000000  0.4913910000000 1.0
C      1  0.5136120000000  0.5352440000000  0.4030170000000 1.0
C      1  0.6018180000000  0.5366250000000  0.5206310000000 1.0
C      1  0.4838570000000  0.5345760000000  0.6128010000000 1.0
C      1  0.4896270000000  0.5962200000000  0.5335890000000 1.0
C      1  0.5374030000000  0.6000190000000  0.5143380000000 1.0
C      1  0.5139780000000  0.5961570000000  0.4747180000000 1.0
C      1  0.4669050000000  0.5954220000000  0.4834140000000 1.0
C      1  0.5162850000000  0.5930580000000  0.5312580000000 1.0
C      1  0.4723880000000  0.5993180000000  0.5123920000000 1.0
C      1  0.4865060000000  0.5969740000000  0.4650380000000 1.0
C      1  0.5374290000000  0.5994350000000  0.4871560000000 1.0
C      1  0.4590490000000  0.5043360000000  0.4380020000000 1.0
C      1  0.4435430000000  0.5038460000000  0.5329360000000 1.0
C      1  0.5313150000000  0.4951060000000  0.5602300000000 1.0
C      1  0.5581880000000  0.4986910000000  0.4672530000000 1.0
C      1  0.5426880000000  0.4938150000000  0.4386460000000 1.0
C      1  0.5533350000000  0.4983920000000  0.5353630000000 1.0
C      1  0.4633480000000  0.4991000000000  0.5601720000000 1.0
C      1  0.4321800000000  0.5099430000000  0.4581120000000 1.0
C      1  0.5805340000000  0.4889740000000  0.5172310000000 1.0
C      1  0.5260100000000  0.4889390000000  0.4094150000000 1.0
C      1  0.4129210000000  0.5048170000000  0.4857750000000 1.0
C      1  0.4836690000000  0.4974990000000  0.5874610000000 1.0
C      1  0.4170120000000  0.4911500000000  0.5158590000000 1.0
C      1  0.4704820000000  0.4927550000000  0.4074530000000 1.0
C      1  0.5823060000000  0.4837150000000  0.4840350000000 1.0
C      1  0.5150550000000  0.5089990000000  0.5844730000000 1.0
C      1  0.6081590000000  0.5000790000000  0.4907420000000 1.0
C      1  0.4860350000000  0.5099520000000  0.3895490000000 1.0
C      1  0.3897850000000  0.5115530000000  0.5171960000000 1.0
C      1  0.5074820000000  0.5029800000000  0.6184930000000 1.0
C      1  0.3800340000000  0.5034240000000  0.4856470000000 1.0
C      1  0.5165660000000  0.5075790000000  0.3923070000000 1.0
C      1  0.6073160000000  0.5063460000000  0.5231850000000 1.0
C      1  0.4742260000000  0.5054060000000  0.6179360000000 1.0
C      1  0.5386630000000  0.4465000000000  0.5285220000000 1.0
C      1  0.5080480000000  0.4275330000000  0.4559070000000 1.0
C      1  0.4754710000000  0.4449650000000  0.4910860000000 1.0
C      1  0.4886810000000  0.4288490000000  0.5401250000000 1.0
C      1  0.4704410000000  0.4233840000000  0.5132600000000 1.0
C      1  0.4851600000000  0.4478660000000  0.4599310000000 1.0
C      1  0.5356060000000  0.4261280000000  0.4741240000000 1.0
C      1  0.5193230000000  0.4224590000000  0.5420870000000 1.0
C      1  0.5592510000000  0.5884370000000  0.4458660000000 1.0
C      1  0.4544230000000  0.5820790000000  0.4345290000000 1.0
C      1  0.4270710000000  0.5782690000000  0.5303350000000 1.0
C      1  0.5506480000000  0.5782930000000  0.5662500000000 1.0
C      1  0.4356280000000  0.5795720000000  0.4542000000000 1.0
C      1  0.5354760000000  0.5855180000000  0.4334880000000 1.0
C      1  0.5740560000000  0.5840690000000  0.5500340000000 1.0
C      1  0.4465730000000  0.5838200000000  0.5518630000000 1.0
C      1  0.4832500000000  0.4341140000000  0.5884110000000 1.0
C      1  0.5933170000000  0.4264490000000  0.5088710000000 1.0
C      1  0.5090760000000  0.4272110000000  0.3997040000000 1.0
C      1  0.4115690000000  0.4221920000000  0.4781540000000 1.0
C      1  0.5116000000000  0.4287510000000  0.5957970000000 1.0
C      1  0.4054450000000  0.4259630000000  0.5247030000000 1.0
C      1  0.4860100000000  0.4407110000000  0.3852970000000 1.0
C      1  0.5987650000000  0.4209150000000  0.4763030000000 1.0
C      1  0.5624190000000  0.5036080000000  0.4135140000000 1.0
C      1  0.4085050000000  0.4899390000000  0.4458470000000 1.0
C      1  0.4425280000000  0.5103690000000  0.5831720000000 1.0
C      1  0.5801580000000  0.5074430000000  0.5520430000000 1.0
C      1  0.4384490000000  0.5015390000000  0.4116080000000 1.0
C      1  0.5836260000000  0.4983020000000  0.4469830000000 1.0
C      1  0.5679500000000  0.5006550000000  0.6012910000000 1.0
C      1  0.4167380000000  0.5021800000000  0.5537580000000 1.0
C      1  0.4396770000000  0.4041790000000  0.4851410000000 1.0
C      1  0.4753750000000  0.4194920000000  0.5664610000000 1.0
C      1  0.5674790000000  0.4068280000000  0.5154690000000 1.0
C      1  0.5119540000000  0.4121290000000  0.4265100000000 1.0
C      1  0.5656580000000  0.4162130000000  0.4824870000000 1.0
C      1  0.5266530000000  0.4182520000000  0.5743620000000 1.0
C      1  0.4372510000000  0.4170110000000  0.5166180000000 1.0
C      1  0.4816200000000  0.4029120000000  0.4389110000000 1.0
C      1  0.5775960000000  0.4789400000000  0.5604590000000 1.0
C      1  0.5632580000000  0.4702210000000  0.4142860000000 1.0
C      1  0.4215400000000  0.4655990000000  0.4411820000000 1.0
C      1  0.4250970000000  0.4908690000000  0.5910970000000 1.0
C      1  0.4148730000000  0.4758510000000  0.5675550000000 1.0
C      1  0.4418570000000  0.4693970000000  0.4222980000000 1.0
C      1  0.5840550000000  0.4715930000000  0.4347760000000 1.0
C      1  0.5642300000000  0.4791900000000  0.5853450000000 1.0
C      1  0.4637730000000  0.3852680000000  0.4847810000000 1.0
C      1  0.4968370000000  0.3821690000000  0.5250290000000 1.0
C      1  0.5409790000000  0.3921760000000  0.5103160000000 1.0
C      1  0.5080280000000  0.3978450000000  0.4684760000000 1.0
C      1  0.5319100000000  0.3949760000000  0.4848420000000 1.0
C      1  0.5214830000000  0.3949830000000  0.5291850000000 1.0
C      1  0.4766150000000  0.3925830000000  0.5089150000000 1.0
C      1  0.4819670000000  0.3849610000000  0.4629560000000 1.0
C      1  0.4504000000000  0.4100070000000  0.5658050000000 1.0
C      1  0.5662390000000  0.4248420000000  0.5434830000000 1.0
C      1  0.5418770000000  0.4261770000000  0.4346280000000 1.0
C      1  0.4387840000000  0.4226830000000  0.4584370000000 1.0
C      1  0.5476540000000  0.4371650000000  0.5660770000000 1.0
C      1  0.4333200000000  0.4245660000000  0.5487790000000 1.0
C      1  0.4610330000000  0.4217820000000  0.4390730000000 1.0
C      1  0.5667220000000  0.4239640000000  0.4493840000000 1.0
C      1  0.5134750000000  0.4600010000000  0.4065450000000 1.0
C      1  0.4046670000000  0.4400380000000  0.4977000000000 1.0
C      1  0.4813630000000  0.4662270000000  0.5830930000000 1.0
C      1  0.5870820000000  0.4569870000000  0.5132620000000 1.0
C      1  0.4798390000000  0.4646510000000  0.4072960000000 1.0
C      1  0.5905980000000  0.4537110000000  0.4800340000000 1.0
C      1  0.5129040000000  0.4594990000000  0.5940680000000 1.0
C      1  0.4158330000000  0.4612420000000  0.5218300000000 1.0
C      1  0.4524670000000  0.5741250000000  0.5135760000000 1.0
C      1  0.5255610000000  0.5688020000000  0.5464700000000 1.0
C      1  0.5577590000000  0.5791860000000  0.4761070000000 1.0
C      1  0.4842170000000  0.5705570000000  0.4461910000000 1.0
C      1  0.5564540000000  0.5797010000000  0.5235170000000 1.0
C      1  0.4777360000000  0.5740750000000  0.5512250000000 1.0
C      1  0.4502940000000  0.5655240000000  0.4814900000000 1.0
C      1  0.5152750000000  0.5716170000000  0.4536970000000 1.0
C      1  0.4780070000000  0.5375320000000  0.4513680000000 1.0
C      1  0.4623750000000  0.5416330000000  0.5120680000000 1.0
C      1  0.5184700000000  0.5413340000000  0.5319810000000 1.0
C      1  0.5475730000000  0.5481830000000  0.4859780000000 1.0
C      1  0.5254280000000  0.5435020000000  0.4609570000000 1.0
C      1  0.5466330000000  0.5500650000000  0.5181140000000 1.0
C      1  0.4848070000000  0.5472400000000  0.5353570000000 1.0
C      1  0.4617270000000  0.5348040000000  0.4775350000000 1.0
C      1  0.5755930000000  0.5468550000000  0.5356510000000 1.0
C      1  0.5318550000000  0.5462000000000  0.4276640000000 1.0
C      1  0.4230030000000  0.5359680000000  0.4870550000000 1.0
C      1  0.4721970000000  0.5495060000000  0.5923440000000 1.0
C      1  0.4295900000000  0.5392520000000  0.5207650000000 1.0
C      1  0.4650730000000  0.5459780000000  0.4213320000000 1.0
C      1  0.5929740000000  0.5456720000000  0.4729590000000 1.0
C      1  0.5305910000000  0.5383430000000  0.5898290000000 1.0
C      1  0.4532620000000  0.4676150000000  0.4790460000000 1.0
C      1  0.4811900000000  0.4590520000000  0.5335730000000 1.0
C      1  0.5288540000000  0.4653730000000  0.5055320000000 1.0
C      1  0.5262150000000  0.4709190000000  0.4535410000000 1.0
C      1  0.5318580000000  0.4556620000000  0.4782180000000 1.0
C      1  0.5065330000000  0.4762520000000  0.5249610000000 1.0
C      1  0.4710220000000  0.4743550000000  0.5071440000000 1.0
C      1  0.4969180000000  0.4762050000000  0.4534200000000 1.0
C      1  0.5736650000000  0.5531070000000  0.3989860000000 1.0
C      1  0.3917400000000  0.5473490000000  0.4463110000000 1.0
C      1  0.4241320000000  0.5545950000000  0.6018810000000 1.0
C      1  0.6079160000000  0.5438930000000  0.5761580000000 1.0
C      1  0.4174820000000  0.5469620000000  0.4017480000000 1.0
C      1  0.6134070000000  0.5358130000000  0.4281980000000 1.0
C      1  0.5736490000000  0.5251130000000  0.6200830000000 1.0
C      1  0.4031240000000  0.5495410000000  0.5689390000000 1.0
C      1  0.5687620000000  0.4579780000000  0.5394650000000 1.0
C      1  0.5382520000000  0.4556300000000  0.4269110000000 1.0
C      1  0.4319610000000  0.4529920000000  0.4636720000000 1.0
C      1  0.4623150000000  0.4661990000000  0.5561820000000 1.0
C      1  0.4320490000000  0.4555890000000  0.5512550000000 1.0
C      1  0.4670810000000  0.4510290000000  0.4314720000000 1.0
C      1  0.5838200000000  0.4477960000000  0.4504900000000 1.0
C      1  0.5372360000000  0.4668310000000  0.5775060000000 1.0
C      1  0.5212380000000  0.5648230000000  0.5778230000000 1.0
C      1  0.5846820000000  0.5692750000000  0.4864660000000 1.0
C      1  0.4815000000000  0.5748000000000  0.4133040000000 1.0
C      1  0.4059490000000  0.5620160000000  0.5118790000000 1.0
C      1  0.4890310000000  0.5675930000000  0.5786700000000 1.0
C      1  0.4164550000000  0.5686610000000  0.4803890000000 1.0
C      1  0.5148170000000  0.5723570000000  0.4139420000000 1.0
C      1  0.5883860000000  0.5742150000000  0.5199160000000 1.0
C      1  0.5603930000000  0.5323210000000  0.5896150000000 1.0
C      1  0.5892150000000  0.5312420000000  0.4429110000000 1.0
C      1  0.4360490000000  0.5334420000000  0.4231590000000 1.0
C      1  0.4267850000000  0.5331120000000  0.5541920000000 1.0
C      1  0.4418060000000  0.5418410000000  0.5835280000000 1.0
C      1  0.4210270000000  0.5397300000000  0.4532990000000 1.0
C      1  0.5625470000000  0.5352350000000  0.4220500000000 1.0
C      1  0.5804810000000  0.5346560000000  0.5657160000000 1.0
C      1  0.4990800000000  0.5131690000000  0.5038310000000 1.0
END
