TITL C-3289329-2751-526 0.000494617132855066 125000 -864.431472622653 0 0 156 (C1) n - 1
REM
REM in /nfs/bkarasulu/CARBON/AIRSS/Generating-Clusters/AIREBO/with-SteepDescent/Higher-Symm/SD-CG/HFTN-CG
REM
REM
REM
REM
REM
REM ./C.cell (b20cbc046b6831c77cfcea5457e17084)
REM
REM compiler GCC version 9.2.1 20190827 (Red Hat 9.2.1-1)
REM options -cpp -mtune=generic -march=x86-64 -g -O0 -fpre-include=/usr/include/finclude/math-vector-fortran.h
REM seed 1419381776 1479260693 263790627 452488942 304677819 1879961631 381879942 2020632444 -513684542 1212025597 791234171 1210321199 47526348 1392675185 -786621671 1385056392 646672336 -914831410 363692593 -153485401 1270118175 -2021199717 -780670689 811013303 -791432160 -731989659 1753337319 842068197 74792499 -1690211258 1243054370 33289754 -2139684348
REM
CELL 1.54180   50.00000   50.00000   50.00000   90.00000   90.00000   90.00000
LATT -1
SFAC C  
C      1  0.5348370000000  0.5219240000000  0.3932870000000 1.0
C      1  0.5733750000000  0.5149780000000  0.5795270000000 1.0
C      1  0.3912420000000  0.5228780000000  0.5245260000000 1.0
C      1  0.5653460000000  0.5282350000000  0.5009800000000 1.0
C      1  0.4660220000000  0.5138960000000  0.5521580000000 1.0
C      1  0.4714750000000  0.5177370000000  0.4445510000000 1.0
C      1  0.5455820000000  0.4254010000000  0.4452250000000 1.0
C      1  0.5335020000000  0.4319620000000  0.5640790000000 1.0
C      1  0.4212770000000  0.4300870000000  0.4750680000000 1.0
C      1  0.4946400000000  0.4662200000000  0.5232360000000 1.0
C      1  0.4820890000000  0.4633620000000  0.4925170000000 1.0
C      1  0.5136980000000  0.4686080000000  0.4957340000000 1.0
C      1  0.5575240000000  0.4855330000000  0.5732980000000 1.0
C      1  0.4017620000000  0.4914660000000  0.5168480000000 1.0
C      1  0.5338790000000  0.4917990000000  0.4075310000000 1.0
C      1  0.5043600000000  0.4737210000000  0.5642260000000 1.0
C      1  0.4339050000000  0.4674870000000  0.4803490000000 1.0
C      1  0.5601820000000  0.4711670000000  0.4722780000000 1.0
C      1  0.5610890000000  0.3751270000000  0.5240020000000 1.0
C      1  0.4526260000000  0.3847070000000  0.5333700000000 1.0
C      1  0.5019170000000  0.3869930000000  0.4532720000000 1.0
C      1  0.4496580000000  0.4308050000000  0.5171390000000 1.0
C      1  0.5106830000000  0.4358990000000  0.4640510000000 1.0
C      1  0.5329240000000  0.4449880000000  0.5262650000000 1.0
C      1  0.4260420000000  0.4910440000000  0.4418820000000 1.0
C      1  0.5920260000000  0.4942960000000  0.4659270000000 1.0
C      1  0.4834330000000  0.4893950000000  0.5943930000000 1.0
C      1  0.5215650000000  0.5293670000000  0.4551320000000 1.0
C      1  0.5260880000000  0.5339210000000  0.5408560000000 1.0
C      1  0.4475340000000  0.5326380000000  0.4978040000000 1.0
C      1  0.5581930000000  0.5645150000000  0.5696640000000 1.0
C      1  0.4145180000000  0.5671820000000  0.5158830000000 1.0
C      1  0.5314860000000  0.5667420000000  0.4166300000000 1.0
C      1  0.5701830000000  0.5314290000000  0.4225850000000 1.0
C      1  0.5297780000000  0.5306280000000  0.5962980000000 1.0
C      1  0.4001020000000  0.5359130000000  0.4769060000000 1.0
C      1  0.5124550000000  0.4073570000000  0.5550170000000 1.0
C      1  0.4404640000000  0.4078740000000  0.4673720000000 1.0
C      1  0.5486300000000  0.4016920000000  0.4665270000000 1.0
C      1  0.4744740000000  0.5720250000000  0.5533150000000 1.0
C      1  0.4687040000000  0.5752340000000  0.4550670000000 1.0
C      1  0.5597910000000  0.5671820000000  0.4920880000000 1.0
C      1  0.5345930000000  0.5105950000000  0.5717400000000 1.0
C      1  0.4131450000000  0.5128300000000  0.4929720000000 1.0
C      1  0.5477440000000  0.5106920000000  0.4315780000000 1.0
C      1  0.5020140000000  0.5420370000000  0.5636000000000 1.0
C      1  0.4434680000000  0.5470470000000  0.4675330000000 1.0
C      1  0.5528620000000  0.5413740000000  0.4624310000000 1.0
C      1  0.5500150000000  0.4467210000000  0.4201210000000 1.0
C      1  0.5588490000000  0.4537040000000  0.5613350000000 1.0
C      1  0.4068730000000  0.4412720000000  0.4976040000000 1.0
C      1  0.5047010000000  0.4429880000000  0.5386690000000 1.0
C      1  0.4643660000000  0.4398640000000  0.4907400000000 1.0
C      1  0.5278360000000  0.4382180000000  0.4933320000000 1.0
C      1  0.4782020000000  0.4930560000000  0.5202680000000 1.0
C      1  0.4866400000000  0.4941570000000  0.4812040000000 1.0
C      1  0.5243880000000  0.4954420000000  0.5042230000000 1.0
C      1  0.4203390000000  0.4957950000000  0.5677390000000 1.0
C      1  0.4776130000000  0.5004670000000  0.3980230000000 1.0
C      1  0.6013470000000  0.5027950000000  0.5331780000000 1.0
C      1  0.3963960000000  0.4684030000000  0.4932280000000 1.0
C      1  0.5592730000000  0.4738240000000  0.4212550000000 1.0
C      1  0.5388890000000  0.4752870000000  0.5998330000000 1.0
C      1  0.6057560000000  0.5327420000000  0.4950120000000 1.0
C      1  0.4502790000000  0.5268070000000  0.5917640000000 1.0
C      1  0.4438350000000  0.5310570000000  0.4116880000000 1.0
C      1  0.4895690000000  0.5410110000000  0.4275760000000 1.0
C      1  0.5708650000000  0.5462510000000  0.5292900000000 1.0
C      1  0.4412190000000  0.5364890000000  0.5465570000000 1.0
C      1  0.5250260000000  0.5972340000000  0.4891460000000 1.0
C      1  0.5031280000000  0.5992230000000  0.5279840000000 1.0
C      1  0.4833660000000  0.6016960000000  0.4809260000000 1.0
C      1  0.4378570000000  0.5229730000000  0.4441690000000 1.0
C      1  0.5820740000000  0.5264250000000  0.4714280000000 1.0
C      1  0.4820890000000  0.5208540000000  0.5813100000000 1.0
C      1  0.4320620000000  0.5790400000000  0.4696280000000 1.0
C      1  0.5649270000000  0.5718890000000  0.4529090000000 1.0
C      1  0.5083400000000  0.5734940000000  0.5739540000000 1.0
C      1  0.4361630000000  0.4993480000000  0.4806790000000 1.0
C      1  0.5448090000000  0.4977000000000  0.4606300000000 1.0
C      1  0.5080950000000  0.5019690000000  0.5565840000000 1.0
C      1  0.4906970000000  0.5174620000000  0.5325650000000 1.0
C      1  0.4644020000000  0.5138300000000  0.4750360000000 1.0
C      1  0.5388030000000  0.5137630000000  0.4875220000000 1.0
C      1  0.5757350000000  0.4465490000000  0.5360640000000 1.0
C      1  0.4199060000000  0.4484760000000  0.5493260000000 1.0
C      1  0.4963750000000  0.4551480000000  0.4170050000000 1.0
C      1  0.4830470000000  0.4897330000000  0.4364650000000 1.0
C      1  0.5670250000000  0.5017350000000  0.5131570000000 1.0
C      1  0.4556430000000  0.4849620000000  0.5522810000000 1.0
C      1  0.4892910000000  0.4145180000000  0.5391920000000 1.0
C      1  0.4680170000000  0.4139510000000  0.4730300000000 1.0
C      1  0.5422980000000  0.4078110000000  0.4925750000000 1.0
C      1  0.5099860000000  0.5673250000000  0.4344910000000 1.0
C      1  0.5532960000000  0.5722160000000  0.5417130000000 1.0
C      1  0.4406920000000  0.5617390000000  0.5237820000000 1.0
C      1  0.4705140000000  0.5265820000000  0.4040690000000 1.0
C      1  0.5991480000000  0.5287080000000  0.5222940000000 1.0
C      1  0.4293600000000  0.5218020000000  0.5727200000000 1.0
C      1  0.4286290000000  0.4774650000000  0.5876460000000 1.0
C      1  0.4566410000000  0.4819630000000  0.3963420000000 1.0
C      1  0.6144090000000  0.4835260000000  0.5170820000000 1.0
C      1  0.5212690000000  0.5548150000000  0.5180570000000 1.0
C      1  0.4699020000000  0.5655000000000  0.5103750000000 1.0
C      1  0.5050780000000  0.5539430000000  0.4715340000000 1.0
C      1  0.4176720000000  0.4328410000000  0.5240000000000 1.0
C      1  0.5189660000000  0.4418740000000  0.4315860000000 1.0
C      1  0.5523110000000  0.4224550000000  0.5373380000000 1.0
C      1  0.4386990000000  0.4763760000000  0.4222210000000 1.0
C      1  0.6033700000000  0.4804690000000  0.4870970000000 1.0
C      1  0.4599790000000  0.4748330000000  0.5933430000000 1.0
C      1  0.4908170000000  0.5505430000000  0.5326210000000 1.0
C      1  0.4742690000000  0.5536260000000  0.4803540000000 1.0
C      1  0.5324790000000  0.5471410000000  0.4890510000000 1.0
C      1  0.5484900000000  0.5453800000000  0.4068310000000 1.0
C      1  0.5567110000000  0.5408130000000  0.5871570000000 1.0
C      1  0.3965310000000  0.5468890000000  0.5055180000000 1.0
C      1  0.4443440000000  0.4525030000000  0.5726740000000 1.0
C      1  0.4634890000000  0.4544530000000  0.4130680000000 1.0
C      1  0.5935560000000  0.4582330000000  0.5117720000000 1.0
C      1  0.4253460000000  0.5241900000000  0.5214010000000 1.0
C      1  0.5181220000000  0.5249760000000  0.4229320000000 1.0
C      1  0.5573010000000  0.5247060000000  0.5507280000000 1.0
C      1  0.5299480000000  0.5014640000000  0.5331030000000 1.0
C      1  0.4551240000000  0.4896300000000  0.5053230000000 1.0
C      1  0.5117740000000  0.4973670000000  0.4631760000000 1.0
C      1  0.4070880000000  0.5358920000000  0.4507210000000 1.0
C      1  0.5902960000000  0.5355560000000  0.4401440000000 1.0
C      1  0.5040470000000  0.5326860000000  0.6044210000000 1.0
C      1  0.4928980000000  0.4108620000000  0.4632900000000 1.0
C      1  0.5522230000000  0.4000960000000  0.5173440000000 1.0
C      1  0.4641780000000  0.4095450000000  0.5317320000000 1.0
C      1  0.4834060000000  0.5941380000000  0.5081310000000 1.0
C      1  0.5064050000000  0.5853780000000  0.4631840000000 1.0
C      1  0.5299240000000  0.5851670000000  0.5205820000000 1.0
C      1  0.4991620000000  0.4666840000000  0.4555750000000 1.0
C      1  0.5463010000000  0.4724820000000  0.5284530000000 1.0
C      1  0.4404940000000  0.4632430000000  0.5126500000000 1.0
C      1  0.4750440000000  0.4591280000000  0.5600090000000 1.0
C      1  0.4675490000000  0.4604450000000  0.4447210000000 1.0
C      1  0.5669270000000  0.4730080000000  0.5014240000000 1.0
C      1  0.4519820000000  0.5625030000000  0.5637680000000 1.0
C      1  0.4682130000000  0.5653520000000  0.4304650000000 1.0
C      1  0.5843930000000  0.5660350000000  0.5051700000000 1.0
C      1  0.5757230000000  0.4793310000000  0.4439010000000 1.0
C      1  0.5118050000000  0.4766190000000  0.5956310000000 1.0
C      1  0.4065230000000  0.4790850000000  0.4638610000000 1.0
C      1  0.5041200000000  0.4862330000000  0.4104770000000 1.0
C      1  0.5725590000000  0.4887250000000  0.5429690000000 1.0
C      1  0.4251720000000  0.4798350000000  0.5380910000000 1.0
C      1  0.5504210000000  0.4438190000000  0.4702350000000 1.0
C      1  0.5016330000000  0.4416250000000  0.5722540000000 1.0
C      1  0.4481720000000  0.4468260000000  0.4626450000000 1.0
C      1  0.5452310000000  0.5851080000000  0.4716790000000 1.0
C      1  0.4951590000000  0.5937520000000  0.5546580000000 1.0
C      1  0.4554200000000  0.6003660000000  0.4674910000000 1.0
END
