TITL C-3289322-3858-154 0.000899411505051642 125000 -257.691354322622 0 0 52 (C1) n - 1
REM
REM in /nfs/bkarasulu/CARBON/AIRSS/Generating-Clusters/AIREBO/with-SteepDescent/Higher-Symm/SD-CG/HFTN-CG
REM
REM
REM
REM
REM
REM ./C.cell (b20cbc046b6831c77cfcea5457e17084)
REM
REM compiler GCC version 9.2.1 20190827 (Red Hat 9.2.1-1)
REM options -cpp -mtune=generic -march=x86-64 -g -O0 -fpre-include=/usr/include/finclude/math-vector-fortran.h
REM seed 1232664662 -1861094661 1600877101 -273952500 -76304327 1386397869 -635000573 1677881716 1655736320 -1483379805 2026602811 -2073709944 724057642 48826027 -1550678822 -702535561 -1350402093 1872399761 -1174384041 -1820460624 -1110892591 384268275 -1070056350 -1878349584 1754558455 -1958884218 960604282 1961579647 -208151115 1628600936 1844197587 -922616320 2099619149
REM
CELL 1.54180   50.00000   50.00000   50.00000   90.00000   90.00000   90.00000
LATT -1
SFAC C  
C      1  0.4407350000000  0.5255250000000  0.4765040000000 1.0
C      1  0.4412450000000  0.5601840000000  0.5329930000000 1.0
C      1  0.4605800000000  0.5278440000000  0.5585300000000 1.0
C      1  0.4235570000000  0.4856420000000  0.5554290000000 1.0
C      1  0.4310960000000  0.4596690000000  0.5146060000000 1.0
C      1  0.4268150000000  0.4372540000000  0.4703830000000 1.0
C      1  0.4429480000000  0.5036150000000  0.4312520000000 1.0
C      1  0.4922510000000  0.4399800000000  0.5039790000000 1.0
C      1  0.5232580000000  0.4397210000000  0.4616310000000 1.0
C      1  0.5124120000000  0.4849330000000  0.4293410000000 1.0
C      1  0.5064050000000  0.5615110000000  0.4452570000000 1.0
C      1  0.5079100000000  0.5794980000000  0.5004280000000 1.0
C      1  0.5129830000000  0.5240360000000  0.5670600000000 1.0
C      1  0.5119780000000  0.4607460000000  0.5626280000000 1.0
C      1  0.5418040000000  0.4968120000000  0.4680150000000 1.0
C      1  0.5358160000000  0.5448030000000  0.4766110000000 1.0
C      1  0.5287750000000  0.5315590000000  0.5152710000000 1.0
C      1  0.5379510000000  0.4785990000000  0.5492920000000 1.0
C      1  0.5555290000000  0.4642760000000  0.5302400000000 1.0
C      1  0.5429250000000  0.4649300000000  0.5049170000000 1.0
C      1  0.5625270000000  0.4730600000000  0.4808730000000 1.0
C      1  0.5059330000000  0.4623190000000  0.4737790000000 1.0
C      1  0.5093120000000  0.4924270000000  0.4583270000000 1.0
C      1  0.4946670000000  0.5449430000000  0.4649660000000 1.0
C      1  0.5082170000000  0.5502970000000  0.4957040000000 1.0
C      1  0.5090210000000  0.5155230000000  0.5378280000000 1.0
C      1  0.5066740000000  0.4815470000000  0.5362520000000 1.0
C      1  0.5124520000000  0.4646790000000  0.5070870000000 1.0
C      1  0.4902800000000  0.5381330000000  0.5221180000000 1.0
C      1  0.4691170000000  0.5050460000000  0.5655550000000 1.0
C      1  0.4740530000000  0.4827690000000  0.5441410000000 1.0
C      1  0.4693810000000  0.4354090000000  0.4960740000000 1.0
C      1  0.4764830000000  0.4570760000000  0.4632870000000 1.0
C      1  0.4864620000000  0.5170110000000  0.4527580000000 1.0
C      1  0.4714170000000  0.5586830000000  0.4824630000000 1.0
C      1  0.5820910000000  0.4564780000000  0.5253130000000 1.0
C      1  0.5869660000000  0.4578020000000  0.4977690000000 1.0
C      1  0.5806460000000  0.4924220000000  0.4608780000000 1.0
C      1  0.5650210000000  0.5164470000000  0.4552000000000 1.0
C      1  0.5588480000000  0.5425320000000  0.4630670000000 1.0
C      1  0.5475610000000  0.5259120000000  0.5401510000000 1.0
C      1  0.5480980000000  0.5065750000000  0.5559210000000 1.0
C      1  0.4583110000000  0.5350610000000  0.5255340000000 1.0
C      1  0.4572800000000  0.5030400000000  0.5188410000000 1.0
C      1  0.4417690000000  0.4799280000000  0.5349650000000 1.0
C      1  0.4440130000000  0.4517520000000  0.4874350000000 1.0
C      1  0.4556520000000  0.4785740000000  0.4733880000000 1.0
C      1  0.4559270000000  0.5062250000000  0.4562550000000 1.0
C      1  0.4529240000000  0.5423710000000  0.4937010000000 1.0
C      1  0.4713170000000  0.4953010000000  0.4944380000000 1.0
C      1  0.5241110000000  0.5144490000000  0.4882100000000 1.0
C      1  0.4953860000000  0.5013630000000  0.4880410000000 1.0
END
