TITL C-3289329-2751-695 0.00258594121088961 125000 -755.418024275217 0 0 139 (C1) n - 1
REM
REM in /nfs/bkarasulu/CARBON/AIRSS/Generating-Clusters/AIREBO/with-SteepDescent/Higher-Symm/SD-CG/HFTN-CG
REM
REM
REM
REM
REM
REM ./C.cell (b20cbc046b6831c77cfcea5457e17084)
REM
REM compiler GCC version 9.2.1 20190827 (Red Hat 9.2.1-1)
REM options -cpp -mtune=generic -march=x86-64 -g -O0 -fpre-include=/usr/include/finclude/math-vector-fortran.h
REM seed -471411348 234127793 2128808032 578494058 -1380327367 1400126693 1752076603 213708894 -692684606 937822455 -358813965 1484452886 -905437910 -1222642740 817398813 141711102 -762238060 -349581222 -1408822908 1323631635 1958975496 -775226622 1261088442 1026891063 -1311733495 229796589 1016732859 -1385033752 -502506954 -534133701 1022536582 -351189887 349289757
REM
CELL 1.54180   50.00000   50.00000   50.00000   90.00000   90.00000   90.00000
LATT -1
SFAC C  
C      1  0.5755410000000  0.5122580000000  0.4623160000000 1.0
C      1  0.4192000000000  0.5113230000000  0.5252670000000 1.0
C      1  0.4192960000000  0.4889700000000  0.4673460000000 1.0
C      1  0.6053050000000  0.5076860000000  0.5238900000000 1.0
C      1  0.5721610000000  0.5068530000000  0.4335970000000 1.0
C      1  0.4081570000000  0.5262880000000  0.5519860000000 1.0
C      1  0.4261510000000  0.4982190000000  0.4426180000000 1.0
C      1  0.5923840000000  0.4934150000000  0.5402980000000 1.0
C      1  0.5414550000000  0.4623240000000  0.4983270000000 1.0
C      1  0.4505210000000  0.4561550000000  0.5088900000000 1.0
C      1  0.4595560000000  0.5400350000000  0.4925000000000 1.0
C      1  0.5444710000000  0.5429430000000  0.5016180000000 1.0
C      1  0.5086150000000  0.4825840000000  0.4508560000000 1.0
C      1  0.4845850000000  0.4963540000000  0.5506780000000 1.0
C      1  0.4894420000000  0.5155910000000  0.4435600000000 1.0
C      1  0.5095250000000  0.5182640000000  0.5496170000000 1.0
C      1  0.5435070000000  0.4647980000000  0.5483880000000 1.0
C      1  0.4631000000000  0.4584130000000  0.4571500000000 1.0
C      1  0.4586040000000  0.5405020000000  0.5461270000000 1.0
C      1  0.5323190000000  0.5396610000000  0.4540310000000 1.0
C      1  0.5605940000000  0.4777180000000  0.5218400000000 1.0
C      1  0.4412890000000  0.4695380000000  0.4802240000000 1.0
C      1  0.4444090000000  0.5318280000000  0.5167490000000 1.0
C      1  0.5575870000000  0.5305870000000  0.4746430000000 1.0
C      1  0.4674230000000  0.4903710000000  0.4083080000000 1.0
C      1  0.5344580000000  0.4824900000000  0.5810230000000 1.0
C      1  0.5296140000000  0.5026320000000  0.3935440000000 1.0
C      1  0.4659660000000  0.5042380000000  0.6027320000000 1.0
C      1  0.4710870000000  0.5436160000000  0.4384650000000 1.0
C      1  0.5237190000000  0.5473560000000  0.5600410000000 1.0
C      1  0.5310170000000  0.4577350000000  0.4447830000000 1.0
C      1  0.4660390000000  0.4435550000000  0.5649680000000 1.0
C      1  0.5549120000000  0.5769880000000  0.4284420000000 1.0
C      1  0.4633810000000  0.5706920000000  0.6169590000000 1.0
C      1  0.4630470000000  0.4220430000000  0.3904560000000 1.0
C      1  0.5526160000000  0.4354970000000  0.6027250000000 1.0
C      1  0.4845710000000  0.4789240000000  0.4713190000000 1.0
C      1  0.5214540000000  0.4727710000000  0.5237610000000 1.0
C      1  0.5133630000000  0.5134050000000  0.4644310000000 1.0
C      1  0.4819210000000  0.5237160000000  0.5311480000000 1.0
C      1  0.5414600000000  0.4518570000000  0.5860690000000 1.0
C      1  0.4714770000000  0.4342650000000  0.4112160000000 1.0
C      1  0.4698360000000  0.5573950000000  0.5961560000000 1.0
C      1  0.5303220000000  0.5738530000000  0.4159710000000 1.0
C      1  0.4295770000000  0.4181160000000  0.5424620000000 1.0
C      1  0.5692270000000  0.4278070000000  0.4765230000000 1.0
C      1  0.5574340000000  0.5813260000000  0.5387670000000 1.0
C      1  0.4479310000000  0.5837710000000  0.4616250000000 1.0
C      1  0.5042150000000  0.4047820000000  0.5452870000000 1.0
C      1  0.5159750000000  0.4024220000000  0.4664790000000 1.0
C      1  0.4889790000000  0.5917960000000  0.5464230000000 1.0
C      1  0.4974180000000  0.5995530000000  0.4715280000000 1.0
C      1  0.4395290000000  0.4342720000000  0.5655840000000 1.0
C      1  0.5511520000000  0.4304650000000  0.4478380000000 1.0
C      1  0.5493880000000  0.5632170000000  0.5604460000000 1.0
C      1  0.4517710000000  0.5695640000000  0.4364580000000 1.0
C      1  0.5120640000000  0.5519490000000  0.5283920000000 1.0
C      1  0.4875380000000  0.5495240000000  0.4657830000000 1.0
C      1  0.4775690000000  0.4455100000000  0.5359420000000 1.0
C      1  0.5132570000000  0.4497510000000  0.4726650000000 1.0
C      1  0.4375620000000  0.5522730000000  0.4694550000000 1.0
C      1  0.5662700000000  0.5508980000000  0.5264960000000 1.0
C      1  0.5606650000000  0.4591940000000  0.4733380000000 1.0
C      1  0.4259470000000  0.4501600000000  0.5316370000000 1.0
C      1  0.4311760000000  0.5012620000000  0.5544310000000 1.0
C      1  0.5480430000000  0.4870040000000  0.4480730000000 1.0
C      1  0.5613150000000  0.5002020000000  0.5460100000000 1.0
C      1  0.4509880000000  0.5174920000000  0.4468800000000 1.0
C      1  0.4748470000000  0.4325520000000  0.5058340000000 1.0
C      1  0.5021240000000  0.4312590000000  0.4941940000000 1.0
C      1  0.5173060000000  0.5626200000000  0.4960050000000 1.0
C      1  0.4831170000000  0.5625720000000  0.4968310000000 1.0
C      1  0.4530630000000  0.4810600000000  0.5920120000000 1.0
C      1  0.5427480000000  0.4779070000000  0.3996620000000 1.0
C      1  0.5430500000000  0.5100390000000  0.5859790000000 1.0
C      1  0.4639640000000  0.5175900000000  0.4090460000000 1.0
C      1  0.4294360000000  0.5492210000000  0.4363470000000 1.0
C      1  0.5709210000000  0.5431800000000  0.5598500000000 1.0
C      1  0.5707650000000  0.4552820000000  0.4410480000000 1.0
C      1  0.4208670000000  0.4575230000000  0.5648350000000 1.0
C      1  0.4300300000000  0.4814550000000  0.5753720000000 1.0
C      1  0.5652540000000  0.4783650000000  0.4200510000000 1.0
C      1  0.5636950000000  0.5182250000000  0.5686970000000 1.0
C      1  0.4367930000000  0.5276150000000  0.4176880000000 1.0
C      1  0.5680450000000  0.4429430000000  0.5396010000000 1.0
C      1  0.4366760000000  0.4372930000000  0.4577910000000 1.0
C      1  0.4319890000000  0.5609360000000  0.5406360000000 1.0
C      1  0.5564290000000  0.5636420000000  0.4532460000000 1.0
C      1  0.5226460000000  0.4148590000000  0.5037330000000 1.0
C      1  0.4471750000000  0.4173600000000  0.4997790000000 1.0
C      1  0.4729430000000  0.5902390000000  0.5015890000000 1.0
C      1  0.5438340000000  0.5838710000000  0.4949050000000 1.0
C      1  0.4806590000000  0.5417870000000  0.5714380000000 1.0
C      1  0.5103750000000  0.5557510000000  0.4336230000000 1.0
C      1  0.5159230000000  0.4540430000000  0.5637250000000 1.0
C      1  0.4846560000000  0.4489340000000  0.4355230000000 1.0
C      1  0.4914040000000  0.5377220000000  0.4118260000000 1.0
C      1  0.5211820000000  0.5279760000000  0.5862120000000 1.0
C      1  0.5231230000000  0.4604500000000  0.4116650000000 1.0
C      1  0.4734350000000  0.4633770000000  0.5830090000000 1.0
C      1  0.4952120000000  0.4776630000000  0.4206580000000 1.0
C      1  0.5004590000000  0.4816260000000  0.5762580000000 1.0
C      1  0.5066450000000  0.5073300000000  0.4085320000000 1.0
C      1  0.4925730000000  0.5132810000000  0.5859620000000 1.0
C      1  0.4376730000000  0.4019290000000  0.5214060000000 1.0
C      1  0.5436970000000  0.4106300000000  0.4816850000000 1.0
C      1  0.5506930000000  0.5980900000000  0.5180310000000 1.0
C      1  0.4666520000000  0.5994870000000  0.4738430000000 1.0
C      1  0.4159960000000  0.5377120000000  0.4893280000000 1.0
C      1  0.5829990000000  0.5509680000000  0.4974320000000 1.0
C      1  0.5865720000000  0.4567560000000  0.4918140000000 1.0
C      1  0.4119690000000  0.4512940000000  0.5010750000000 1.0
C      1  0.4902610000000  0.5646120000000  0.5482110000000 1.0
C      1  0.5102930000000  0.5714540000000  0.4639120000000 1.0
C      1  0.5012850000000  0.4315530000000  0.5505950000000 1.0
C      1  0.5020650000000  0.4249150000000  0.4523150000000 1.0
C      1  0.4893930000000  0.6046140000000  0.5212770000000 1.0
C      1  0.5081860000000  0.6085140000000  0.4967830000000 1.0
C      1  0.5107330000000  0.3928760000000  0.5199990000000 1.0
C      1  0.5046940000000  0.3830070000000  0.4880210000000 1.0
C      1  0.4871940000000  0.5212740000000  0.4847020000000 1.0
C      1  0.5210200000000  0.5248560000000  0.5122170000000 1.0
C      1  0.5127310000000  0.4787530000000  0.4904200000000 1.0
C      1  0.4764430000000  0.4748510000000  0.5187890000000 1.0
C      1  0.4545720000000  0.4952370000000  0.5347150000000 1.0
C      1  0.5390120000000  0.4955730000000  0.4768690000000 1.0
C      1  0.5311300000000  0.5019100000000  0.5330250000000 1.0
C      1  0.4626620000000  0.5024570000000  0.4730190000000 1.0
C      1  0.4278020000000  0.4321970000000  0.4846360000000 1.0
C      1  0.5840190000000  0.4454290000000  0.5195940000000 1.0
C      1  0.5652270000000  0.5695120000000  0.4801340000000 1.0
C      1  0.4158510000000  0.5502950000000  0.5173730000000 1.0
C      1  0.4150360000000  0.4838670000000  0.5065770000000 1.0
C      1  0.5915530000000  0.4887220000000  0.4809420000000 1.0
C      1  0.5890810000000  0.5175490000000  0.4991650000000 1.0
C      1  0.4101850000000  0.5107590000000  0.4863430000000 1.0
C      1  0.5630990000000  0.4957860000000  0.4963900000000 1.0
C      1  0.4467450000000  0.4951020000000  0.5016040000000 1.0
C      1  0.4967010000000  0.5011480000000  0.5104150000000 1.0
END
