TITL C-3289326-3776-214 -0.000425006926430984 125000 -242.014145497742 0 0 44 (C1) n - 1
REM
REM in /nfs/bkarasulu/CARBON/AIRSS/Generating-Clusters/AIREBO/with-SteepDescent/Higher-Symm/SD-CG/HFTN-CG
REM
REM
REM
REM
REM
REM ./C.cell (b20cbc046b6831c77cfcea5457e17084)
REM
REM compiler GCC version 9.2.1 20190827 (Red Hat 9.2.1-1)
REM options -cpp -mtune=generic -march=x86-64 -g -O0 -fpre-include=/usr/include/finclude/math-vector-fortran.h
REM seed 1999873649 -1682440903 -1080973123 -1317281920 -1594707129 622546904 1044402245 -1756335228 1241440475 991136396 -1142823322 -1376641475 2038971560 1008857436 946205706 -1228281919 -969224239 1149295273 28279254 1416965087 -1927204449 1566451362 -1935642193 1667322478 641374394 -1992683422 925355294 1184953905 -1547171016 985973015 -533197701 132472408 -1868803689
REM
CELL 1.54180   50.00000   50.00000   50.00000   90.00000   90.00000   90.00000
LATT -1
SFAC C  
C      1  0.5360690000000  0.4777820000000  0.4725480000000 1.0
C      1  0.4596440000000  0.5126270000000  0.4690150000000 1.0
C      1  0.4815110000000  0.5631640000000  0.4149210000000 1.0
C      1  0.5123810000000  0.4315340000000  0.4149580000000 1.0
C      1  0.5694940000000  0.5045880000000  0.5201580000000 1.0
C      1  0.4446190000000  0.4926720000000  0.5178990000000 1.0
C      1  0.4839970000000  0.5205000000000  0.4536590000000 1.0
C      1  0.5121080000000  0.4760500000000  0.4523960000000 1.0
C      1  0.5430830000000  0.4726360000000  0.5553550000000 1.0
C      1  0.4663380000000  0.5264960000000  0.5531490000000 1.0
C      1  0.5605430000000  0.4792720000000  0.4630380000000 1.0
C      1  0.4381300000000  0.5046030000000  0.4563510000000 1.0
C      1  0.5316640000000  0.4779570000000  0.5028200000000 1.0
C      1  0.4602320000000  0.5144410000000  0.4981100000000 1.0
C      1  0.5293130000000  0.5463540000000  0.5302810000000 1.0
C      1  0.4821120000000  0.4476350000000  0.5257430000000 1.0
C      1  0.5086500000000  0.4467200000000  0.4679210000000 1.0
C      1  0.4959400000000  0.5488760000000  0.4664690000000 1.0
C      1  0.5075520000000  0.4472070000000  0.4944460000000 1.0
C      1  0.5035720000000  0.5492830000000  0.4918960000000 1.0
C      1  0.5270840000000  0.4341220000000  0.5141810000000 1.0
C      1  0.4875640000000  0.5614660000000  0.5136000000000 1.0
C      1  0.4767490000000  0.5137240000000  0.5278360000000 1.0
C      1  0.5275790000000  0.4814100000000  0.5364130000000 1.0
C      1  0.5617260000000  0.4774050000000  0.5164100000000 1.0
C      1  0.4398600000000  0.5261990000000  0.5226620000000 1.0
C      1  0.5524820000000  0.4473660000000  0.5176540000000 1.0
C      1  0.4610640000000  0.5496910000000  0.5168690000000 1.0
C      1  0.5095740000000  0.4462110000000  0.4369540000000 1.0
C      1  0.4865540000000  0.5493050000000  0.4370350000000 1.0
C      1  0.4604770000000  0.4704840000000  0.5202260000000 1.0
C      1  0.5527200000000  0.5272320000000  0.5192220000000 1.0
C      1  0.4915250000000  0.4723160000000  0.5061180000000 1.0
C      1  0.5221740000000  0.5270650000000  0.5040290000000 1.0
C      1  0.5088610000000  0.5657600000000  0.5336890000000 1.0
C      1  0.5015620000000  0.4281350000000  0.5298360000000 1.0
C      1  0.4988010000000  0.4928680000000  0.5394680000000 1.0
C      1  0.4988290000000  0.4986990000000  0.4395860000000 1.0
C      1  0.5085360000000  0.5008850000000  0.5078660000000 1.0
C      1  0.5001940000000  0.5002400000000  0.4129720000000 1.0
C      1  0.4864240000000  0.5067490000000  0.5658100000000 1.0
C      1  0.4993570000000  0.5003640000000  0.3867730000000 1.0
C      1  0.4919680000000  0.4915040000000  0.6165950000000 1.0
C      1  0.4902090000000  0.4998660000000  0.5918190000000 1.0
END
