TITL C-3289323-3850-615 0.000467558900436555 125000 -805.718402232663 0 0 145 (C1) n - 1
REM
REM in /nfs/bkarasulu/CARBON/AIRSS/Generating-Clusters/AIREBO/with-SteepDescent/Higher-Symm/SD-CG/HFTN-CG
REM
REM
REM
REM
REM
REM ./C.cell (b20cbc046b6831c77cfcea5457e17084)
REM
REM compiler GCC version 9.2.1 20190827 (Red Hat 9.2.1-1)
REM options -cpp -mtune=generic -march=x86-64 -g -O0 -fpre-include=/usr/include/finclude/math-vector-fortran.h
REM seed -401697858 1073874728 826643012 1707088994 -1280259117 274988037 -84865063 -2109865743 -893467244 2049587586 -470165685 -1525969452 -1720271921 -1737992577 -377886916 -88491655 -1448941129 -381771427 400373403 -1368329674 284873228 -728509201 174357464 -328305398 -825901696 -1151166327 -1789674761 -189333957 1506852181 -1797445535 -3879833 555978928 1582068942
REM
CELL 1.54180   50.00000   50.00000   50.00000   90.00000   90.00000   90.00000
LATT -1
SFAC C  
C      1  0.5837420000000  0.5448860000000  0.4517660000000 1.0
C      1  0.5206250000000  0.5984990000000  0.4618210000000 1.0
C      1  0.4226120000000  0.5834350000000  0.4489860000000 1.0
C      1  0.3980430000000  0.4946530000000  0.4551810000000 1.0
C      1  0.4403250000000  0.4108590000000  0.4620790000000 1.0
C      1  0.5373580000000  0.4193210000000  0.4552650000000 1.0
C      1  0.6010260000000  0.4668040000000  0.4477680000000 1.0
C      1  0.4677790000000  0.4115070000000  0.4416320000000 1.0
C      1  0.5592260000000  0.4282540000000  0.4399700000000 1.0
C      1  0.5956670000000  0.4941230000000  0.4349830000000 1.0
C      1  0.5578190000000  0.5608690000000  0.4473740000000 1.0
C      1  0.4912350000000  0.5927840000000  0.4454430000000 1.0
C      1  0.4238500000000  0.5567930000000  0.4361170000000 1.0
C      1  0.4250770000000  0.4772100000000  0.4570530000000 1.0
C      1  0.5013510000000  0.4153440000000  0.5849230000000 1.0
C      1  0.5640910000000  0.4502960000000  0.5711230000000 1.0
C      1  0.5760170000000  0.5209660000000  0.5694040000000 1.0
C      1  0.5389010000000  0.5688850000000  0.5769490000000 1.0
C      1  0.4637350000000  0.5697420000000  0.5668510000000 1.0
C      1  0.4216860000000  0.5190740000000  0.5680820000000 1.0
C      1  0.4373420000000  0.4443080000000  0.5799610000000 1.0
C      1  0.4758070000000  0.5657900000000  0.5353130000000 1.0
C      1  0.4298340000000  0.5222280000000  0.5352250000000 1.0
C      1  0.4381560000000  0.4456980000000  0.5481900000000 1.0
C      1  0.4967800000000  0.4253870000000  0.5561110000000 1.0
C      1  0.5527290000000  0.4495240000000  0.5390850000000 1.0
C      1  0.5695440000000  0.5125560000000  0.5380040000000 1.0
C      1  0.5366420000000  0.5612570000000  0.5469520000000 1.0
C      1  0.4653040000000  0.5065090000000  0.4957050000000 1.0
C      1  0.4738140000000  0.4643900000000  0.5288560000000 1.0
C      1  0.5187150000000  0.4553840000000  0.5188910000000 1.0
C      1  0.5370250000000  0.4826930000000  0.5163140000000 1.0
C      1  0.5263070000000  0.5131660000000  0.5110970000000 1.0
C      1  0.5069730000000  0.5389000000000  0.5133120000000 1.0
C      1  0.4756640000000  0.5338320000000  0.5100640000000 1.0
C      1  0.4810350000000  0.4148130000000  0.5302770000000 1.0
C      1  0.5592760000000  0.4170800000000  0.5360580000000 1.0
C      1  0.5996150000000  0.4987890000000  0.5321620000000 1.0
C      1  0.5518820000000  0.5797290000000  0.5282150000000 1.0
C      1  0.4866140000000  0.5971440000000  0.5353080000000 1.0
C      1  0.4115980000000  0.5470080000000  0.5262090000000 1.0
C      1  0.4104850000000  0.4442660000000  0.5297560000000 1.0
C      1  0.5064040000000  0.5522620000000  0.5414280000000 1.0
C      1  0.4597480000000  0.5360320000000  0.5389140000000 1.0
C      1  0.4398450000000  0.4912400000000  0.5411690000000 1.0
C      1  0.4715460000000  0.4450880000000  0.5546020000000 1.0
C      1  0.5202310000000  0.4450730000000  0.5480910000000 1.0
C      1  0.5537580000000  0.4831090000000  0.5443280000000 1.0
C      1  0.5398540000000  0.5291290000000  0.5381650000000 1.0
C      1  0.3881330000000  0.4983490000000  0.4800800000000 1.0
C      1  0.4275160000000  0.4322040000000  0.4830900000000 1.0
C      1  0.5353620000000  0.3979890000000  0.4732490000000 1.0
C      1  0.6014870000000  0.4513620000000  0.4743980000000 1.0
C      1  0.5984260000000  0.5530930000000  0.4746650000000 1.0
C      1  0.5431400000000  0.6005160000000  0.4813380000000 1.0
C      1  0.4345210000000  0.5919330000000  0.4723280000000 1.0
C      1  0.4940240000000  0.5373550000000  0.4302430000000 1.0
C      1  0.4706880000000  0.5137930000000  0.4223590000000 1.0
C      1  0.4569420000000  0.4876250000000  0.4354100000000 1.0
C      1  0.5019250000000  0.4670800000000  0.4336510000000 1.0
C      1  0.5355600000000  0.4725020000000  0.4329290000000 1.0
C      1  0.5425020000000  0.5057100000000  0.4305810000000 1.0
C      1  0.5228690000000  0.5262580000000  0.4445470000000 1.0
C      1  0.5563990000000  0.4622970000000  0.5914360000000 1.0
C      1  0.5619870000000  0.5207880000000  0.5898440000000 1.0
C      1  0.5251540000000  0.5622200000000  0.5969400000000 1.0
C      1  0.4625600000000  0.5544750000000  0.5863610000000 1.0
C      1  0.4335390000000  0.5070250000000  0.5863800000000 1.0
C      1  0.4508040000000  0.4501020000000  0.5999150000000 1.0
C      1  0.5060950000000  0.4308740000000  0.6044320000000 1.0
C      1  0.5222320000000  0.5194880000000  0.4778980000000 1.0
C      1  0.4732080000000  0.5332660000000  0.4671840000000 1.0
C      1  0.4452100000000  0.5141270000000  0.4625690000000 1.0
C      1  0.4628920000000  0.4857490000000  0.4688520000000 1.0
C      1  0.4886380000000  0.4636120000000  0.4651800000000 1.0
C      1  0.5407600000000  0.4711720000000  0.4666970000000 1.0
C      1  0.5472130000000  0.4999290000000  0.4802130000000 1.0
C      1  0.5427520000000  0.4002550000000  0.5224330000000 1.0
C      1  0.5990650000000  0.4857350000000  0.5085200000000 1.0
C      1  0.5594040000000  0.5760180000000  0.4985950000000 1.0
C      1  0.5040520000000  0.6041720000000  0.5158140000000 1.0
C      1  0.4211910000000  0.5579860000000  0.5036160000000 1.0
C      1  0.4105110000000  0.4565010000000  0.4998880000000 1.0
C      1  0.4685870000000  0.4243100000000  0.5087140000000 1.0
C      1  0.5143870000000  0.4417260000000  0.4612440000000 1.0
C      1  0.5726700000000  0.4759920000000  0.4620990000000 1.0
C      1  0.5589260000000  0.5244170000000  0.4628920000000 1.0
C      1  0.5105560000000  0.5685210000000  0.4563940000000 1.0
C      1  0.4479800000000  0.5534950000000  0.4566760000000 1.0
C      1  0.4233270000000  0.5098790000000  0.4417730000000 1.0
C      1  0.4596930000000  0.4370490000000  0.4599690000000 1.0
C      1  0.4824930000000  0.4530020000000  0.4095510000000 1.0
C      1  0.5387460000000  0.4691590000000  0.3985380000000 1.0
C      1  0.5302250000000  0.4974330000000  0.4022800000000 1.0
C      1  0.5267240000000  0.5627100000000  0.4074380000000 1.0
C      1  0.4707850000000  0.5511560000000  0.4096030000000 1.0
C      1  0.4479460000000  0.5300100000000  0.4064890000000 1.0
C      1  0.4555830000000  0.4627200000000  0.4136550000000 1.0
C      1  0.4058490000000  0.4901990000000  0.4993720000000 1.0
C      1  0.4428570000000  0.4346920000000  0.5083720000000 1.0
C      1  0.5281890000000  0.4051460000000  0.4993370000000 1.0
C      1  0.5871330000000  0.4612730000000  0.4971440000000 1.0
C      1  0.5816780000000  0.5515980000000  0.4977320000000 1.0
C      1  0.5221430000000  0.5900130000000  0.5008600000000 1.0
C      1  0.4420590000000  0.5761680000000  0.4940650000000 1.0
C      1  0.4617780000000  0.4936810000000  0.5614170000000 1.0
C      1  0.4797970000000  0.4703980000000  0.5727080000000 1.0
C      1  0.5113090000000  0.4678570000000  0.5673550000000 1.0
C      1  0.5355100000000  0.4873420000000  0.5683330000000 1.0
C      1  0.5291250000000  0.5174540000000  0.5664310000000 1.0
C      1  0.5016110000000  0.5325540000000  0.5642990000000 1.0
C      1  0.4722940000000  0.5230670000000  0.5635890000000 1.0
C      1  0.4688650000000  0.5661460000000  0.5019500000000 1.0
C      1  0.4322600000000  0.5096970000000  0.5037070000000 1.0
C      1  0.4427190000000  0.4661830000000  0.5211920000000 1.0
C      1  0.5108240000000  0.4313580000000  0.4994800000000 1.0
C      1  0.5578520000000  0.4577800000000  0.5062060000000 1.0
C      1  0.5766790000000  0.5251420000000  0.5072100000000 1.0
C      1  0.5200730000000  0.5604790000000  0.4941630000000 1.0
C      1  0.5042320000000  0.4606410000000  0.6026890000000 1.0
C      1  0.5300580000000  0.4786240000000  0.6007470000000 1.0
C      1  0.5327190000000  0.5114330000000  0.5998210000000 1.0
C      1  0.5105250000000  0.5347450000000  0.5970380000000 1.0
C      1  0.4787400000000  0.5286940000000  0.5966190000000 1.0
C      1  0.4641450000000  0.4997690000000  0.5948040000000 1.0
C      1  0.4740230000000  0.4713210000000  0.6059600000000 1.0
C      1  0.5736620000000  0.5094860000000  0.4370390000000 1.0
C      1  0.5296000000000  0.5557000000000  0.4368430000000 1.0
C      1  0.4746050000000  0.5635420000000  0.4403510000000 1.0
C      1  0.4246390000000  0.5322310000000  0.4223120000000 1.0
C      1  0.4460970000000  0.4579250000000  0.4452750000000 1.0
C      1  0.4923670000000  0.4346080000000  0.4370430000000 1.0
C      1  0.5642950000000  0.4547600000000  0.4368980000000 1.0
C      1  0.4824470000000  0.4358160000000  0.4838900000000 1.0
C      1  0.5374530000000  0.4459080000000  0.4850970000000 1.0
C      1  0.5808690000000  0.4995390000000  0.4852150000000 1.0
C      1  0.5469390000000  0.5524010000000  0.4780350000000 1.0
C      1  0.4909100000000  0.5555890000000  0.4802050000000 1.0
C      1  0.4376450000000  0.5375390000000  0.4848690000000 1.0
C      1  0.4386160000000  0.4713640000000  0.4878240000000 1.0
C      1  0.5032760000000  0.5016090000000  0.4063340000000 1.0
C      1  0.4948040000000  0.4985230000000  0.4391200000000 1.0
C      1  0.4939180000000  0.5105160000000  0.4669100000000 1.0
C      1  0.4955190000000  0.4746570000000  0.5166140000000 1.0
C      1  0.4940300000000  0.4908350000000  0.4946350000000 1.0
END
