TITL C-3289324-3781-166 -0.000958751322995645 125000 -141.838399329083 0 0 26 (C1) n - 1
REM
REM in /nfs/bkarasulu/CARBON/AIRSS/Generating-Clusters/AIREBO/with-SteepDescent/Higher-Symm/SD-CG/HFTN-CG
REM
REM
REM
REM
REM
REM ./C.cell (b20cbc046b6831c77cfcea5457e17084)
REM
REM compiler GCC version 9.2.1 20190827 (Red Hat 9.2.1-1)
REM options -cpp -mtune=generic -march=x86-64 -g -O0 -fpre-include=/usr/include/finclude/math-vector-fortran.h
REM seed 759629112 1553021569 -1366879429 819482801 28419592 1004420054 -596069364 1407280818 -1990047733 1112268160 100000969 -709059161 671552688 1848772473 -160419563 -1472529106 1030346989 -814118842 -9292679 -805120098 -244308846 -1338074047 -1278521294 -1025329863 1996344431 1288576897 607575482 432361677 267383074 -1475245507 277381067 1779535005 -1306373748
REM
CELL 1.54180   50.00000   50.00000   50.00000   90.00000   90.00000   90.00000
LATT -1
SFAC C  
C      1  0.4469730000000  0.5007630000000  0.4883280000000 1.0
C      1  0.5166790000000  0.5512400000000  0.4849830000000 1.0
C      1  0.4656400000000  0.5562900000000  0.5072700000000 1.0
C      1  0.5518600000000  0.5128640000000  0.4795210000000 1.0
C      1  0.4857000000000  0.4479160000000  0.4790030000000 1.0
C      1  0.4432730000000  0.4622320000000  0.5294740000000 1.0
C      1  0.4430950000000  0.5425420000000  0.5143960000000 1.0
C      1  0.5372130000000  0.4848580000000  0.5572860000000 1.0
C      1  0.5703400000000  0.5030390000000  0.5252200000000 1.0
C      1  0.5571200000000  0.4961760000000  0.5012310000000 1.0
C      1  0.4896410000000  0.5486830000000  0.4965200000000 1.0
C      1  0.5258450000000  0.5242250000000  0.4702200000000 1.0
C      1  0.4774130000000  0.4962270000000  0.4845220000000 1.0
C      1  0.5141350000000  0.4753760000000  0.5447390000000 1.0
C      1  0.5399150000000  0.4740130000000  0.5036790000000 1.0
C      1  0.5052670000000  0.4843020000000  0.4447590000000 1.0
C      1  0.5112900000000  0.5118710000000  0.4450820000000 1.0
C      1  0.4873520000000  0.4705290000000  0.5044440000000 1.0
C      1  0.4888370000000  0.4735720000000  0.4648050000000 1.0
C      1  0.5576670000000  0.5014460000000  0.5496720000000 1.0
C      1  0.4341600000000  0.5187020000000  0.5042540000000 1.0
C      1  0.4700530000000  0.4671250000000  0.5299180000000 1.0
C      1  0.4904570000000  0.5225620000000  0.4772030000000 1.0
C      1  0.5155660000000  0.4718770000000  0.5166190000000 1.0
C      1  0.4870970000000  0.4710300000000  0.5525700000000 1.0
C      1  0.4874110000000  0.5305380000000  0.4442820000000 1.0
END
