TITL C-3289330-4660-111 0.00151048083091968 125000 -266.554640895651 0 0 50 (C1) n - 1
REM
REM in /nfs/bkarasulu/CARBON/AIRSS/Generating-Clusters/AIREBO/with-SteepDescent/Higher-Symm/SD-CG/HFTN-CG
REM
REM
REM
REM
REM
REM ./C.cell (b20cbc046b6831c77cfcea5457e17084)
REM
REM compiler GCC version 9.2.1 20190827 (Red Hat 9.2.1-1)
REM options -cpp -mtune=generic -march=x86-64 -g -O0 -fpre-include=/usr/include/finclude/math-vector-fortran.h
REM seed 667804843 622956295 297730983 1281677587 -1096101992 -623291785 -1679344063 -1939663510 1284280483 939038980 746476883 -1537313340 274656296 -1639911274 -1736264122 -956824983 1815265890 -260804224 853194186 158680762 597354730 -2115761141 1037546498 901432690 -2042478451 -348061234 -148230552 1929603877 -114821309 -1889827384 -97354852 1411950257 -1515891671
REM
CELL 1.54180   50.00000   50.00000   50.00000   90.00000   90.00000   90.00000
LATT -1
SFAC C  
C      1  0.4425010000000  0.5149530000000  0.4579080000000 1.0
C      1  0.4396940000000  0.5132120000000  0.5160980000000 1.0
C      1  0.4758870000000  0.5237720000000  0.5645230000000 1.0
C      1  0.5401360000000  0.5159480000000  0.5520400000000 1.0
C      1  0.5642520000000  0.5274430000000  0.5090020000000 1.0
C      1  0.5401250000000  0.5180420000000  0.4403600000000 1.0
C      1  0.4979830000000  0.5166110000000  0.4317120000000 1.0
C      1  0.4277970000000  0.4888400000000  0.5203790000000 1.0
C      1  0.4787310000000  0.4929280000000  0.5626400000000 1.0
C      1  0.5254820000000  0.4929960000000  0.5574050000000 1.0
C      1  0.5622550000000  0.4933440000000  0.5097460000000 1.0
C      1  0.5433610000000  0.4918310000000  0.4477400000000 1.0
C      1  0.5058790000000  0.4874160000000  0.4348170000000 1.0
C      1  0.4467550000000  0.4833760000000  0.4518600000000 1.0
C      1  0.4832390000000  0.4870820000000  0.4677280000000 1.0
C      1  0.4618260000000  0.4936720000000  0.4893110000000 1.0
C      1  0.4691570000000  0.4862920000000  0.5183560000000 1.0
C      1  0.4980830000000  0.4890470000000  0.5360230000000 1.0
C      1  0.5253610000000  0.4818020000000  0.5190330000000 1.0
C      1  0.5338550000000  0.4921620000000  0.4921800000000 1.0
C      1  0.5168700000000  0.4821810000000  0.4667460000000 1.0
C      1  0.4900630000000  0.5515970000000  0.4712620000000 1.0
C      1  0.4689190000000  0.5476720000000  0.4900800000000 1.0
C      1  0.4743350000000  0.5553260000000  0.5168990000000 1.0
C      1  0.4901650000000  0.5492920000000  0.5464440000000 1.0
C      1  0.5227250000000  0.5390080000000  0.5400860000000 1.0
C      1  0.5360550000000  0.5446800000000  0.5100770000000 1.0
C      1  0.5228990000000  0.5532970000000  0.4799230000000 1.0
C      1  0.5165050000000  0.4441250000000  0.5277820000000 1.0
C      1  0.5319620000000  0.4460060000000  0.5025000000000 1.0
C      1  0.5221930000000  0.4436260000000  0.4757360000000 1.0
C      1  0.4940600000000  0.4453780000000  0.4701670000000 1.0
C      1  0.4700040000000  0.4459840000000  0.4863180000000 1.0
C      1  0.4679720000000  0.4464780000000  0.5151090000000 1.0
C      1  0.4884590000000  0.4462800000000  0.5347970000000 1.0
C      1  0.5313160000000  0.4637390000000  0.5466930000000 1.0
C      1  0.5564900000000  0.4615180000000  0.5043600000000 1.0
C      1  0.5400700000000  0.4584730000000  0.4535400000000 1.0
C      1  0.4896640000000  0.4620940000000  0.4455800000000 1.0
C      1  0.4507880000000  0.4651470000000  0.4748490000000 1.0
C      1  0.4453190000000  0.4647150000000  0.5245090000000 1.0
C      1  0.4815890000000  0.4614590000000  0.5596560000000 1.0
C      1  0.5274890000000  0.5205310000000  0.4875910000000 1.0
C      1  0.5137200000000  0.5359800000000  0.4521270000000 1.0
C      1  0.4713970000000  0.5055650000000  0.4436910000000 1.0
C      1  0.4480640000000  0.5247030000000  0.4870740000000 1.0
C      1  0.4627560000000  0.5186100000000  0.5344280000000 1.0
C      1  0.4962630000000  0.5207380000000  0.5290210000000 1.0
C      1  0.5010640000000  0.5275360000000  0.5012250000000 1.0
C      1  0.5636730000000  0.5121340000000  0.5373750000000 1.0
END
