TITL C-3289325-7307-191 -0.000696179871775114 125000 -1081.81238339866 0 0 193 (C1) n - 1
REM
REM in /nfs/bkarasulu/CARBON/AIRSS/Generating-Clusters/AIREBO/with-SteepDescent/Higher-Symm/SD-CG/HFTN-CG
REM
REM
REM
REM
REM
REM ./C.cell (b20cbc046b6831c77cfcea5457e17084)
REM
REM compiler GCC version 9.2.1 20190827 (Red Hat 9.2.1-1)
REM options -cpp -mtune=generic -march=x86-64 -g -O0 -fpre-include=/usr/include/finclude/math-vector-fortran.h
REM seed -894129976 187982067 -933873358 -282349452 1845505029 2001624652 -1687802671 1828805542 1015647372 -1179274881 294955974 -882146784 27039860 -1769448883 -1219101183 1281297207 -173066941 -1611868285 1190284257 1299393601 1197054918 -1043593015 -1577864550 1064539162 1045162740 624856627 -1667392307 821008556 427194313 568468179 886772680 1161774160 279836316
REM
CELL 1.54180   50.00000   50.00000   50.00000   90.00000   90.00000   90.00000
LATT -1
SFAC C  
C      1  0.6163810000000  0.4567290000000  0.4598770000000 1.0
C      1  0.5462110000000  0.3834400000000  0.4669130000000 1.0
C      1  0.4402380000000  0.3908230000000  0.4752640000000 1.0
C      1  0.3800840000000  0.4661820000000  0.4587460000000 1.0
C      1  0.4101890000000  0.5730110000000  0.4580340000000 1.0
C      1  0.5116340000000  0.6261240000000  0.4688600000000 1.0
C      1  0.6074580000000  0.5650300000000  0.4793320000000 1.0
C      1  0.5447110000000  0.4257150000000  0.5839010000000 1.0
C      1  0.4476130000000  0.4419730000000  0.5714710000000 1.0
C      1  0.4243740000000  0.4904320000000  0.5822280000000 1.0
C      1  0.4110660000000  0.5450630000000  0.5757840000000 1.0
C      1  0.5172950000000  0.5749940000000  0.5747150000000 1.0
C      1  0.5619220000000  0.5391050000000  0.5726960000000 1.0
C      1  0.5655190000000  0.4875360000000  0.5832780000000 1.0
C      1  0.6065970000000  0.4548370000000  0.5549580000000 1.0
C      1  0.5500760000000  0.4143060000000  0.5590080000000 1.0
C      1  0.4480720000000  0.4158420000000  0.5586590000000 1.0
C      1  0.3962530000000  0.4798220000000  0.5663230000000 1.0
C      1  0.4024270000000  0.5645970000000  0.5559720000000 1.0
C      1  0.5066870000000  0.5983330000000  0.5629050000000 1.0
C      1  0.5903580000000  0.5571030000000  0.5613970000000 1.0
C      1  0.5163600000000  0.5814860000000  0.4316500000000 1.0
C      1  0.5651680000000  0.5438990000000  0.4399630000000 1.0
C      1  0.5783870000000  0.4478750000000  0.4180770000000 1.0
C      1  0.5218370000000  0.4373560000000  0.4403050000000 1.0
C      1  0.4489970000000  0.4228650000000  0.4351050000000 1.0
C      1  0.4204920000000  0.4874340000000  0.4377440000000 1.0
C      1  0.4679420000000  0.5595370000000  0.4451300000000 1.0
C      1  0.4396540000000  0.5873450000000  0.5333620000000 1.0
C      1  0.5272200000000  0.5935810000000  0.5198390000000 1.0
C      1  0.5967400000000  0.5160420000000  0.5357110000000 1.0
C      1  0.5805990000000  0.4569870000000  0.5109100000000 1.0
C      1  0.5199070000000  0.4059980000000  0.5151660000000 1.0
C      1  0.4228760000000  0.4365460000000  0.5252850000000 1.0
C      1  0.3869310000000  0.5132520000000  0.5249390000000 1.0
C      1  0.4257290000000  0.5008460000000  0.4841650000000 1.0
C      1  0.4499060000000  0.5630620000000  0.4852690000000 1.0
C      1  0.5288490000000  0.5706180000000  0.4729430000000 1.0
C      1  0.5703900000000  0.5311540000000  0.4929100000000 1.0
C      1  0.5636300000000  0.4593850000000  0.4709430000000 1.0
C      1  0.5047800000000  0.4178270000000  0.4727900000000 1.0
C      1  0.4497710000000  0.4478960000000  0.4851510000000 1.0
C      1  0.4191650000000  0.5072720000000  0.5294320000000 1.0
C      1  0.4449350000000  0.5558820000000  0.5353450000000 1.0
C      1  0.5096720000000  0.5646280000000  0.5235590000000 1.0
C      1  0.5689020000000  0.5223450000000  0.5231800000000 1.0
C      1  0.5548660000000  0.4693070000000  0.5208540000000 1.0
C      1  0.5112310000000  0.4387540000000  0.5180740000000 1.0
C      1  0.4541060000000  0.4483910000000  0.5188960000000 1.0
C      1  0.5222980000000  0.4785660000000  0.3978050000000 1.0
C      1  0.4974830000000  0.4715230000000  0.3892130000000 1.0
C      1  0.4809910000000  0.4900760000000  0.3758060000000 1.0
C      1  0.4745390000000  0.5136110000000  0.3908990000000 1.0
C      1  0.4962390000000  0.5329140000000  0.3903060000000 1.0
C      1  0.5203370000000  0.5219960000000  0.3788260000000 1.0
C      1  0.5335330000000  0.5032110000000  0.3951030000000 1.0
C      1  0.5361810000000  0.4160730000000  0.4178820000000 1.0
C      1  0.4595180000000  0.4111290000000  0.4086690000000 1.0
C      1  0.4118940000000  0.4678910000000  0.4156070000000 1.0
C      1  0.4425960000000  0.5460850000000  0.4268740000000 1.0
C      1  0.4641820000000  0.5794410000000  0.3971420000000 1.0
C      1  0.5634120000000  0.5563810000000  0.4156000000000 1.0
C      1  0.5843640000000  0.4742380000000  0.4096450000000 1.0
C      1  0.6033730000000  0.4796450000000  0.5027040000000 1.0
C      1  0.5497980000000  0.4192320000000  0.5053460000000 1.0
C      1  0.4729030000000  0.4053830000000  0.5072590000000 1.0
C      1  0.3938950000000  0.4867750000000  0.5047090000000 1.0
C      1  0.4044560000000  0.5523730000000  0.5023300000000 1.0
C      1  0.4948070000000  0.5945970000000  0.5023620000000 1.0
C      1  0.5728220000000  0.5807270000000  0.5113450000000 1.0
C      1  0.3831760000000  0.5075330000000  0.5553630000000 1.0
C      1  0.4170520000000  0.5914990000000  0.5490180000000 1.0
C      1  0.5237720000000  0.6114200000000  0.5436300000000 1.0
C      1  0.5981820000000  0.5274840000000  0.5611560000000 1.0
C      1  0.5842210000000  0.4554910000000  0.5691690000000 1.0
C      1  0.5366170000000  0.3949610000000  0.5412600000000 1.0
C      1  0.4238520000000  0.4144440000000  0.5410210000000 1.0
C      1  0.5341000000000  0.4990640000000  0.5802630000000 1.0
C      1  0.5220790000000  0.4692970000000  0.5894560000000 1.0
C      1  0.4933260000000  0.4689200000000  0.5801680000000 1.0
C      1  0.4737310000000  0.4943870000000  0.5912810000000 1.0
C      1  0.4729520000000  0.5237280000000  0.6084580000000 1.0
C      1  0.4984050000000  0.5360340000000  0.5900000000000 1.0
C      1  0.5320060000000  0.5324540000000  0.5872200000000 1.0
C      1  0.4325180000000  0.5178410000000  0.4261580000000 1.0
C      1  0.4769210000000  0.5653800000000  0.4148370000000 1.0
C      1  0.5462440000000  0.5778470000000  0.4157880000000 1.0
C      1  0.5750370000000  0.4996060000000  0.4142300000000 1.0
C      1  0.5517660000000  0.4412420000000  0.4146110000000 1.0
C      1  0.4765370000000  0.4255080000000  0.3965990000000 1.0
C      1  0.4356290000000  0.4523250000000  0.4263560000000 1.0
C      1  0.5265900000000  0.5023550000000  0.5482740000000 1.0
C      1  0.5248260000000  0.4690480000000  0.5555630000000 1.0
C      1  0.4923330000000  0.4731730000000  0.5478120000000 1.0
C      1  0.4654870000000  0.4878290000000  0.5588060000000 1.0
C      1  0.4679190000000  0.5191920000000  0.5461640000000 1.0
C      1  0.4838370000000  0.5399090000000  0.5625010000000 1.0
C      1  0.5298470000000  0.5328960000000  0.5369900000000 1.0
C      1  0.5496220000000  0.5484040000000  0.6093580000000 1.0
C      1  0.5740400000000  0.5358060000000  0.6106510000000 1.0
C      1  0.5329450000000  0.4505670000000  0.6127230000000 1.0
C      1  0.5002910000000  0.4419110000000  0.6086240000000 1.0
C      1  0.4717430000000  0.4555460000000  0.6003680000000 1.0
C      1  0.4582110000000  0.5352110000000  0.6369030000000 1.0
C      1  0.4470980000000  0.5437390000000  0.6088250000000 1.0
C      1  0.5060690000000  0.5958880000000  0.4740410000000 1.0
C      1  0.5804740000000  0.5622040000000  0.4869960000000 1.0
C      1  0.5933130000000  0.4744130000000  0.4711260000000 1.0
C      1  0.5360860000000  0.4091200000000  0.4787260000000 1.0
C      1  0.4587830000000  0.4153310000000  0.4813030000000 1.0
C      1  0.4030900000000  0.4771100000000  0.4751910000000 1.0
C      1  0.4215980000000  0.5559580000000  0.4773650000000 1.0
C      1  0.5330400000000  0.5230660000000  0.5045950000000 1.0
C      1  0.5480600000000  0.4997330000000  0.5243360000000 1.0
C      1  0.5312490000000  0.4600290000000  0.5013450000000 1.0
C      1  0.4864200000000  0.4584830000000  0.5222070000000 1.0
C      1  0.4768190000000  0.4840470000000  0.5030230000000 1.0
C      1  0.4465390000000  0.5253560000000  0.5204480000000 1.0
C      1  0.4965880000000  0.5389960000000  0.5060470000000 1.0
C      1  0.5369560000000  0.4401880000000  0.4671630000000 1.0
C      1  0.4768210000000  0.4249710000000  0.4541290000000 1.0
C      1  0.4329060000000  0.4681620000000  0.4629410000000 1.0
C      1  0.4322210000000  0.5271450000000  0.4650010000000 1.0
C      1  0.4893080000000  0.5846050000000  0.4476510000000 1.0
C      1  0.5599490000000  0.5629340000000  0.4615430000000 1.0
C      1  0.5921350000000  0.5011000000000  0.4547380000000 1.0
C      1  0.5074320000000  0.5299540000000  0.4606710000000 1.0
C      1  0.5649240000000  0.5136600000000  0.4501550000000 1.0
C      1  0.5156340000000  0.4753480000000  0.4510560000000 1.0
C      1  0.4916920000000  0.4530170000000  0.4418040000000 1.0
C      1  0.4730770000000  0.4797240000000  0.4516750000000 1.0
C      1  0.4602060000000  0.5110970000000  0.4541710000000 1.0
C      1  0.4759870000000  0.5362060000000  0.4637860000000 1.0
C      1  0.4064650000000  0.5146850000000  0.4473100000000 1.0
C      1  0.4674710000000  0.6015220000000  0.4653490000000 1.0
C      1  0.5452610000000  0.5931310000000  0.4452710000000 1.0
C      1  0.6098830000000  0.5194380000000  0.4646120000000 1.0
C      1  0.5915980000000  0.4334220000000  0.4390180000000 1.0
C      1  0.4848040000000  0.3922030000000  0.4497610000000 1.0
C      1  0.4263140000000  0.4363440000000  0.4548840000000 1.0
C      1  0.4605450000000  0.4690130000000  0.4226500000000 1.0
C      1  0.4626070000000  0.5029070000000  0.4208960000000 1.0
C      1  0.5067140000000  0.5546500000000  0.4133360000000 1.0
C      1  0.5191930000000  0.5298250000000  0.4311540000000 1.0
C      1  0.5453460000000  0.5140640000000  0.4223490000000 1.0
C      1  0.5303160000000  0.4645970000000  0.4220830000000 1.0
C      1  0.4837750000000  0.4533050000000  0.4081890000000 1.0
C      1  0.5316090000000  0.5706570000000  0.5985750000000 1.0
C      1  0.5810190000000  0.5140450000000  0.5854820000000 1.0
C      1  0.5590180000000  0.4546780000000  0.5911700000000 1.0
C      1  0.5146190000000  0.4274270000000  0.5859780000000 1.0
C      1  0.4430250000000  0.4641520000000  0.5931470000000 1.0
C      1  0.4046330000000  0.5173610000000  0.5752600000000 1.0
C      1  0.4376350000000  0.5507930000000  0.5845590000000 1.0
C      1  0.4509650000000  0.4611170000000  0.5502710000000 1.0
C      1  0.4372130000000  0.5063330000000  0.5550320000000 1.0
C      1  0.4558150000000  0.5529930000000  0.5635980000000 1.0
C      1  0.5104170000000  0.5524240000000  0.5541640000000 1.0
C      1  0.5583130000000  0.5445690000000  0.5417950000000 1.0
C      1  0.5577560000000  0.4708120000000  0.5547030000000 1.0
C      1  0.5168840000000  0.4364650000000  0.5574260000000 1.0
C      1  0.5517980000000  0.5981950000000  0.5045740000000 1.0
C      1  0.6088620000000  0.5078730000000  0.5109570000000 1.0
C      1  0.5762700000000  0.4314040000000  0.4962270000000 1.0
C      1  0.4967200000000  0.3925570000000  0.5025910000000 1.0
C      1  0.4009160000000  0.4544340000000  0.5113010000000 1.0
C      1  0.3874940000000  0.5307750000000  0.4994800000000 1.0
C      1  0.4640340000000  0.5974270000000  0.5176230000000 1.0
C      1  0.3960150000000  0.5160450000000  0.4775980000000 1.0
C      1  0.4580990000000  0.5895780000000  0.4877190000000 1.0
C      1  0.5483730000000  0.5964360000000  0.4773840000000 1.0
C      1  0.6023820000000  0.5260850000000  0.4907030000000 1.0
C      1  0.5838990000000  0.4341250000000  0.4660670000000 1.0
C      1  0.5001230000000  0.3841760000000  0.4742330000000 1.0
C      1  0.4165580000000  0.4407670000000  0.4867080000000 1.0
C      1  0.6081390000000  0.4594380000000  0.5288260000000 1.0
C      1  0.5410620000000  0.4338930000000  0.5336540000000 1.0
C      1  0.4622010000000  0.4173400000000  0.5301430000000 1.0
C      1  0.4027000000000  0.4782120000000  0.5357920000000 1.0
C      1  0.4129170000000  0.5582920000000  0.5273410000000 1.0
C      1  0.4908700000000  0.5901630000000  0.5358430000000 1.0
C      1  0.5763620000000  0.5701370000000  0.5363120000000 1.0
C      1  0.5205120000000  0.5448490000000  0.4832940000000 1.0
C      1  0.5489510000000  0.5092700000000  0.4778500000000 1.0
C      1  0.5389920000000  0.4792950000000  0.4748220000000 1.0
C      1  0.5067020000000  0.4496200000000  0.4802090000000 1.0
C      1  0.4793470000000  0.4634870000000  0.4789320000000 1.0
C      1  0.4495340000000  0.4963400000000  0.5032110000000 1.0
C      1  0.4660550000000  0.5391620000000  0.4962130000000 1.0
C      1  0.5065450000000  0.5016760000000  0.4705650000000 1.0
C      1  0.4952750000000  0.5064920000000  0.4960010000000 1.0
C      1  0.4924920000000  0.5163710000000  0.4264540000000 1.0
C      1  0.5051410000000  0.5045940000000  0.5964510000000 1.0
END
