TITL C-3289333-7213-34 4.03109015260271e-05 125000 -515.821399718688 0 0 100 (C1) n - 1
REM
REM in /nfs/bkarasulu/CARBON/AIRSS/Generating-Clusters/AIREBO/with-SteepDescent/Higher-Symm/SD-CG/HFTN-CG
REM
REM
REM
REM
REM
REM ./C.cell (b20cbc046b6831c77cfcea5457e17084)
REM
REM compiler GCC version 9.2.1 20190827 (Red Hat 9.2.1-1)
REM options -cpp -mtune=generic -march=x86-64 -g -O0 -fpre-include=/usr/include/finclude/math-vector-fortran.h
REM seed 474251460 -1001740691 -1190086589 231220774 837728486 -1354297527 -1951839912 1577160400 852383156 -1435027414 591404626 -489197436 -464872662 1975115072 -1445391145 1043755798 92708177 1248014292 -1385513990 -873369604 209078308 -24657442 165809469 45760985 -2052032015 1494651332 -1045806337 977905457 2093493434 1983650273 851366839 1826164158 -2057661006
REM
CELL 1.54180   50.00000   50.00000   50.00000   90.00000   90.00000   90.00000
LATT -1
SFAC C  
C      1  0.5499950000000  0.4269460000000  0.5192940000000 1.0
C      1  0.5874620000000  0.5290250000000  0.5221480000000 1.0
C      1  0.4742390000000  0.5979130000000  0.5125780000000 1.0
C      1  0.4163560000000  0.5121720000000  0.5248410000000 1.0
C      1  0.4509070000000  0.4148910000000  0.5133480000000 1.0
C      1  0.5389290000000  0.5431960000000  0.5201710000000 1.0
C      1  0.4698060000000  0.5513280000000  0.5255960000000 1.0
C      1  0.4224520000000  0.4727800000000  0.5217380000000 1.0
C      1  0.5008030000000  0.4463220000000  0.5334940000000 1.0
C      1  0.5636440000000  0.4813800000000  0.5153380000000 1.0
C      1  0.4757630000000  0.4459920000000  0.4781860000000 1.0
C      1  0.5600360000000  0.4854620000000  0.4822480000000 1.0
C      1  0.5438740000000  0.5394760000000  0.4867240000000 1.0
C      1  0.4729720000000  0.5500270000000  0.4810730000000 1.0
C      1  0.4350280000000  0.4873590000000  0.4935970000000 1.0
C      1  0.5314430000000  0.4457620000000  0.4709570000000 1.0
C      1  0.5688110000000  0.5317350000000  0.4670510000000 1.0
C      1  0.5134400000000  0.5779010000000  0.4710760000000 1.0
C      1  0.4294470000000  0.5108060000000  0.4730600000000 1.0
C      1  0.4431830000000  0.4440170000000  0.4686360000000 1.0
C      1  0.4789520000000  0.4575960000000  0.5099870000000 1.0
C      1  0.5313460000000  0.4476640000000  0.5005690000000 1.0
C      1  0.5568520000000  0.5142600000000  0.5207520000000 1.0
C      1  0.4959030000000  0.5513000000000  0.5057810000000 1.0
C      1  0.4460030000000  0.5217170000000  0.5145600000000 1.0
C      1  0.5257180000000  0.5237960000000  0.4651800000000 1.0
C      1  0.4801130000000  0.5110910000000  0.4630470000000 1.0
C      1  0.4729360000000  0.4780130000000  0.4663190000000 1.0
C      1  0.5055600000000  0.4786320000000  0.4675830000000 1.0
C      1  0.5213020000000  0.4980780000000  0.4479110000000 1.0
C      1  0.5588080000000  0.4955980000000  0.5859780000000 1.0
C      1  0.5259640000000  0.5552700000000  0.5560040000000 1.0
C      1  0.4602440000000  0.5290720000000  0.5719120000000 1.0
C      1  0.4572290000000  0.4648740000000  0.5662400000000 1.0
C      1  0.5168910000000  0.4527330000000  0.5820510000000 1.0
C      1  0.4897530000000  0.5851860000000  0.5324970000000 1.0
C      1  0.4188160000000  0.5027880000000  0.5526930000000 1.0
C      1  0.4537970000000  0.4312630000000  0.5359720000000 1.0
C      1  0.5508750000000  0.4427600000000  0.5460900000000 1.0
C      1  0.5746440000000  0.5322330000000  0.5515620000000 1.0
C      1  0.5252710000000  0.4446240000000  0.5567960000000 1.0
C      1  0.5580090000000  0.5049660000000  0.5537860000000 1.0
C      1  0.5143200000000  0.5664230000000  0.5276830000000 1.0
C      1  0.4488560000000  0.5131320000000  0.5475470000000 1.0
C      1  0.4540760000000  0.4650280000000  0.5319620000000 1.0
C      1  0.5271980000000  0.4999940000000  0.5784850000000 1.0
C      1  0.5122860000000  0.5279270000000  0.5676060000000 1.0
C      1  0.4845840000000  0.5178120000000  0.5791310000000 1.0
C      1  0.4812620000000  0.4866660000000  0.5741110000000 1.0
C      1  0.5078220000000  0.4777780000000  0.5857250000000 1.0
C      1  0.5794480000000  0.5070550000000  0.4714310000000 1.0
C      1  0.5378630000000  0.5720270000000  0.4844050000000 1.0
C      1  0.4418440000000  0.5363900000000  0.4780800000000 1.0
C      1  0.4257100000000  0.4576320000000  0.4849030000000 1.0
C      1  0.5056650000000  0.4389100000000  0.4629500000000 1.0
C      1  0.5044630000000  0.4800390000000  0.5309540000000 1.0
C      1  0.5260570000000  0.4980130000000  0.5450270000000 1.0
C      1  0.5139300000000  0.5246040000000  0.5338060000000 1.0
C      1  0.4842610000000  0.5206570000000  0.5281490000000 1.0
C      1  0.4739400000000  0.4910550000000  0.5411910000000 1.0
C      1  0.5011010000000  0.5503000000000  0.4105220000000 1.0
C      1  0.4587310000000  0.5262960000000  0.4131940000000 1.0
C      1  0.4752510000000  0.4821690000000  0.3931360000000 1.0
C      1  0.5242630000000  0.4608350000000  0.4222530000000 1.0
C      1  0.5548510000000  0.4976030000000  0.3956430000000 1.0
C      1  0.6105640000000  0.5152890000000  0.5158280000000 1.0
C      1  0.5593180000000  0.5685040000000  0.5087140000000 1.0
C      1  0.4429430000000  0.5546660000000  0.5067400000000 1.0
C      1  0.4097120000000  0.4452680000000  0.5063450000000 1.0
C      1  0.5166290000000  0.4223070000000  0.5155420000000 1.0
C      1  0.4656620000000  0.4865150000000  0.4980210000000 1.0
C      1  0.5160180000000  0.4746780000000  0.4995910000000 1.0
C      1  0.5345740000000  0.5020490000000  0.4975280000000 1.0
C      1  0.5080940000000  0.5227920000000  0.4928470000000 1.0
C      1  0.4742220000000  0.5193390000000  0.4956830000000 1.0
C      1  0.4577780000000  0.4306650000000  0.4459460000000 1.0
C      1  0.5518700000000  0.4634050000000  0.4614580000000 1.0
C      1  0.5619190000000  0.5397110000000  0.4405490000000 1.0
C      1  0.4898930000000  0.5647620000000  0.4608780000000 1.0
C      1  0.4305760000000  0.5002850000000  0.4467210000000 1.0
C      1  0.5356330000000  0.5333640000000  0.4365700000000 1.0
C      1  0.4875970000000  0.5539990000000  0.4363770000000 1.0
C      1  0.4521840000000  0.4856020000000  0.4404740000000 1.0
C      1  0.4839310000000  0.4384970000000  0.4398340000000 1.0
C      1  0.5477220000000  0.4710430000000  0.4356360000000 1.0
C      1  0.4671830000000  0.4157130000000  0.4910640000000 1.0
C      1  0.5709830000000  0.4495220000000  0.5059870000000 1.0
C      1  0.5851200000000  0.5599960000000  0.5128480000000 1.0
C      1  0.4502850000000  0.5859620000000  0.5051520000000 1.0
C      1  0.3990870000000  0.4943510000000  0.5096430000000 1.0
C      1  0.5546850000000  0.5522560000000  0.5489200000000 1.0
C      1  0.4720340000000  0.5715270000000  0.5519870000000 1.0
C      1  0.4115550000000  0.4749890000000  0.5538750000000 1.0
C      1  0.4781700000000  0.4291480000000  0.5496670000000 1.0
C      1  0.5684420000000  0.4637930000000  0.5431310000000 1.0
C      1  0.4974050000000  0.4675320000000  0.4364800000000 1.0
C      1  0.5384960000000  0.4979430000000  0.4185400000000 1.0
C      1  0.5151800000000  0.5209820000000  0.4157620000000 1.0
C      1  0.4845090000000  0.5199260000000  0.4304100000000 1.0
C      1  0.4786700000000  0.4872690000000  0.4229380000000 1.0
END
