TITL C-3289332-8317-480 49.3660046867347 125000 -704.429138877663 0 0 131 (C1) n - 1
REM
REM in /nfs/bkarasulu/CARBON/AIRSS/Generating-Clusters/AIREBO/with-SteepDescent/Higher-Symm/SD-CG/HFTN-CG
REM
REM
REM
REM
REM
REM ./C.cell (b20cbc046b6831c77cfcea5457e17084)
REM
REM compiler GCC version 9.2.1 20190827 (Red Hat 9.2.1-1)
REM options -cpp -mtune=generic -march=x86-64 -g -O0 -fpre-include=/usr/include/finclude/math-vector-fortran.h
REM seed 1288043728 -1141308344 -271981611 -1789768668 54707110 -1971589342 1772235793 -121547321 -1439819751 831538206 -2108089094 700046186 -1693895968 -473171121 823891216 1990739126 1893268470 1715106626 1242139127 -2118576501 496657942 1885088999 941944755 687709757 1403835169 -1806152517 -1758486317 -410291452 1128891419 1380003908 1380813231 1899612232 -654619036
REM
CELL 1.54180   50.00000   50.00000   50.00000   90.00000   90.00000   90.00000
LATT -1
SFAC C  
C      1  0.4270540000000  0.4388780000000  0.4649660000000 1.0
C      1  0.5710740000000  0.4464510000000  0.4601600000000 1.0
C      1  0.5009180000000  0.4531550000000  0.5774170000000 1.0
C      1  0.5684580000000  0.5505330000000  0.4610690000000 1.0
C      1  0.4265410000000  0.5529960000000  0.4629740000000 1.0
C      1  0.4970440000000  0.5488960000000  0.5770040000000 1.0
C      1  0.5406710000000  0.5052910000000  0.4524420000000 1.0
C      1  0.5127100000000  0.5058360000000  0.5540230000000 1.0
C      1  0.4559800000000  0.5029860000000  0.4906570000000 1.0
C      1  0.4597810000000  0.4872900000000  0.4511590000000 1.0
C      1  0.4667570000000  0.4929220000000  0.5598470000000 1.0
C      1  0.5592380000000  0.4928420000000  0.4905850000000 1.0
C      1  0.4715890000000  0.5461570000000  0.4246470000000 1.0
C      1  0.5807260000000  0.5430330000000  0.5115520000000 1.0
C      1  0.4416350000000  0.5408990000000  0.5676750000000 1.0
C      1  0.5292130000000  0.4549560000000  0.4260720000000 1.0
C      1  0.4153910000000  0.4524350000000  0.5202450000000 1.0
C      1  0.5619590000000  0.4455490000000  0.5639900000000 1.0
C      1  0.5933020000000  0.5117030000000  0.5071440000000 1.0
C      1  0.4408360000000  0.5111380000000  0.5841720000000 1.0
C      1  0.4630140000000  0.5156900000000  0.4117620000000 1.0
C      1  0.4101860000000  0.4812530000000  0.5019340000000 1.0
C      1  0.5547420000000  0.4772290000000  0.5740400000000 1.0
C      1  0.5372120000000  0.4871030000000  0.4170540000000 1.0
C      1  0.4625850000000  0.5782720000000  0.5261870000000 1.0
C      1  0.5006350000000  0.5859430000000  0.4581980000000 1.0
C      1  0.5383350000000  0.5822890000000  0.5272810000000 1.0
C      1  0.5416390000000  0.4178050000000  0.5232160000000 1.0
C      1  0.4996150000000  0.4221630000000  0.4587010000000 1.0
C      1  0.4626010000000  0.4242790000000  0.5215300000000 1.0
C      1  0.5547060000000  0.5133500000000  0.5173300000000 1.0
C      1  0.4636350000000  0.5202790000000  0.5418480000000 1.0
C      1  0.4811180000000  0.5107360000000  0.4401140000000 1.0
C      1  0.4415330000000  0.4741050000000  0.4999560000000 1.0
C      1  0.5441400000000  0.4728170000000  0.5416740000000 1.0
C      1  0.5140260000000  0.4886130000000  0.4411170000000 1.0
C      1  0.5475380000000  0.5647300000000  0.4481430000000 1.0
C      1  0.5198510000000  0.5598620000000  0.5654350000000 1.0
C      1  0.4326090000000  0.5619030000000  0.4909540000000 1.0
C      1  0.4477060000000  0.4178170000000  0.4541080000000 1.0
C      1  0.4793480000000  0.4400170000000  0.5661910000000 1.0
C      1  0.5708640000000  0.4339620000000  0.4876810000000 1.0
C      1  0.5054510000000  0.5233380000000  0.5024770000000 1.0
C      1  0.4887500000000  0.5249790000000  0.4765790000000 1.0
C      1  0.5329670000000  0.5146860000000  0.4918290000000 1.0
C      1  0.5027150000000  0.4908050000000  0.5252050000000 1.0
C      1  0.5078380000000  0.4770460000000  0.4784820000000 1.0
C      1  0.4867030000000  0.4889560000000  0.4951370000000 1.0
C      1  0.5304840000000  0.5519820000000  0.4290140000000 1.0
C      1  0.5418670000000  0.5405140000000  0.5553810000000 1.0
C      1  0.4299780000000  0.5436760000000  0.5129230000000 1.0
C      1  0.4766850000000  0.4505960000000  0.4134180000000 1.0
C      1  0.4534300000000  0.4521840000000  0.5634180000000 1.0
C      1  0.5769820000000  0.4471140000000  0.5125670000000 1.0
C      1  0.5428240000000  0.4443820000000  0.4507550000000 1.0
C      1  0.5283790000000  0.4504650000000  0.5618750000000 1.0
C      1  0.4353160000000  0.4434610000000  0.4941670000000 1.0
C      1  0.4552340000000  0.5536420000000  0.4480090000000 1.0
C      1  0.4736770000000  0.5472880000000  0.5589740000000 1.0
C      1  0.5627730000000  0.5522560000000  0.4884340000000 1.0
C      1  0.4312330000000  0.5141580000000  0.5398650000000 1.0
C      1  0.5027960000000  0.5167670000000  0.4146170000000 1.0
C      1  0.5678460000000  0.5048980000000  0.5437120000000 1.0
C      1  0.5776990000000  0.4747950000000  0.5415210000000 1.0
C      1  0.4966030000000  0.4852440000000  0.4121140000000 1.0
C      1  0.4339140000000  0.4858610000000  0.5544150000000 1.0
C      1  0.4572830000000  0.5850390000000  0.4946350000000 1.0
C      1  0.5295110000000  0.5812820000000  0.4706800000000 1.0
C      1  0.5171050000000  0.5813770000000  0.5464730000000 1.0
C      1  0.5435870000000  0.4170370000000  0.4921060000000 1.0
C      1  0.4711640000000  0.4121180000000  0.4678320000000 1.0
C      1  0.4869270000000  0.4221660000000  0.5404100000000 1.0
C      1  0.4268780000000  0.5102200000000  0.5081960000000 1.0
C      1  0.5323160000000  0.5204560000000  0.4241490000000 1.0
C      1  0.5431440000000  0.5074810000000  0.5635650000000 1.0
C      1  0.5834510000000  0.4792610000000  0.5097460000000 1.0
C      1  0.4649650000000  0.4820270000000  0.4179650000000 1.0
C      1  0.4493640000000  0.4781680000000  0.5850660000000 1.0
C      1  0.5054120000000  0.4502240000000  0.5377560000000 1.0
C      1  0.4696930000000  0.4461810000000  0.4964970000000 1.0
C      1  0.5229870000000  0.4401540000000  0.4780550000000 1.0
C      1  0.4839460000000  0.5518240000000  0.5268730000000 1.0
C      1  0.5289720000000  0.5543970000000  0.4915010000000 1.0
C      1  0.4703550000000  0.5603150000000  0.4778430000000 1.0
C      1  0.5114740000000  0.4632110000000  0.3982640000000 1.0
C      1  0.5910760000000  0.4625460000000  0.5662650000000 1.0
C      1  0.4132980000000  0.4674050000000  0.5487850000000 1.0
C      1  0.4918090000000  0.5401680000000  0.3979760000000 1.0
C      1  0.4117300000000  0.5344150000000  0.5528520000000 1.0
C      1  0.5853600000000  0.5289200000000  0.5419390000000 1.0
C      1  0.5353600000000  0.4696790000000  0.4895290000000 1.0
C      1  0.4826030000000  0.4726100000000  0.5423750000000 1.0
C      1  0.4719840000000  0.4641030000000  0.4676060000000 1.0
C      1  0.4579370000000  0.5306230000000  0.4728630000000 1.0
C      1  0.5078190000000  0.5292890000000  0.5344800000000 1.0
C      1  0.5268100000000  0.5319600000000  0.4660340000000 1.0
C      1  0.4731860000000  0.5218510000000  0.5131110000000 1.0
C      1  0.5007700000000  0.5355140000000  0.4498150000000 1.0
C      1  0.5365290000000  0.5408960000000  0.5217930000000 1.0
C      1  0.5297010000000  0.4788790000000  0.5185270000000 1.0
C      1  0.5003030000000  0.4617070000000  0.4528120000000 1.0
C      1  0.4678820000000  0.4741720000000  0.5157150000000 1.0
C      1  0.4796630000000  0.5984620000000  0.4727650000000 1.0
C      1  0.5374860000000  0.5920060000000  0.5017900000000 1.0
C      1  0.4904900000000  0.5889510000000  0.5401820000000 1.0
C      1  0.5248690000000  0.4015890000000  0.4684480000000 1.0
C      1  0.4679130000000  0.4063370000000  0.4943850000000 1.0
C      1  0.5177620000000  0.4123690000000  0.5345810000000 1.0
C      1  0.4994760000000  0.5632790000000  0.4339550000000 1.0
C      1  0.5617730000000  0.5601110000000  0.5340530000000 1.0
C      1  0.4418960000000  0.5545880000000  0.5365010000000 1.0
C      1  0.4987530000000  0.4403310000000  0.4299620000000 1.0
C      1  0.4402290000000  0.4395150000000  0.5395610000000 1.0
C      1  0.5618790000000  0.4347980000000  0.5335710000000 1.0
C      1  0.4154520000000  0.4704380000000  0.4700640000000 1.0
C      1  0.5837600000000  0.4760770000000  0.4513550000000 1.0
C      1  0.4950380000000  0.4749700000000  0.5937430000000 1.0
C      1  0.5832140000000  0.5275610000000  0.4532750000000 1.0
C      1  0.4180030000000  0.5202610000000  0.4590990000000 1.0
C      1  0.4976650000000  0.5271510000000  0.5943920000000 1.0
C      1  0.3976600000000  0.4503040000000  0.4521730000000 1.0
C      1  0.6004740000000  0.4503770000000  0.4433250000000 1.0
C      1  0.4745220000000  0.4719370000000  0.6129920000000 1.0
C      1  0.6061760000000  0.5280500000000  0.4383950000000 1.0
C      1  0.3991170000000  0.5424460000000  0.4459570000000 1.0
C      1  0.5030210000000  0.5271500000000  0.6211070000000 1.0
C      1  0.4937210000000  0.5019290000000  0.5784980000000 1.0
C      1  0.5701800000000  0.5005880000000  0.4608610000000 1.0
C      1  0.4338410000000  0.4961340000000  0.4657450000000 1.0
C      1  0.5022350000000  0.4419460000000  0.5049310000000 1.0
C      1  0.4959440000000  0.5612730000000  0.4964920000000 1.0
END
