TITL C-3289322-3858-531 -0.00017952027386074 125000 -810.680765259058 0 0 150 (C1) n - 1
REM
REM in /nfs/bkarasulu/CARBON/AIRSS/Generating-Clusters/AIREBO/with-SteepDescent/Higher-Symm/SD-CG/HFTN-CG
REM
REM
REM
REM
REM
REM ./C.cell (b20cbc046b6831c77cfcea5457e17084)
REM
REM compiler GCC version 9.2.1 20190827 (Red Hat 9.2.1-1)
REM options -cpp -mtune=generic -march=x86-64 -g -O0 -fpre-include=/usr/include/finclude/math-vector-fortran.h
REM seed -586852039 -431442859 1397607179 1966972124 92464205 -1269942964 135119483 -407839521 -605617407 239261992 -1472642483 -659832484 17226876 1323214554 -550278841 -73763540 664250261 -1182447005 -424310669 1265873266 1697032019 1253789328 1704454889 1056957181 -395747376 96099207 -272290249 1010652083 -312768842 -1835911219 -1080727999 -1381662665 333352562
REM
CELL 1.54180   50.00000   50.00000   50.00000   90.00000   90.00000   90.00000
LATT -1
SFAC C  
C      1  0.4893820000000  0.5027150000000  0.5725690000000 1.0
C      1  0.4514050000000  0.5416520000000  0.5105930000000 1.0
C      1  0.4446530000000  0.5016640000000  0.5487420000000 1.0
C      1  0.4294510000000  0.4815000000000  0.5797350000000 1.0
C      1  0.4515180000000  0.5793460000000  0.5483200000000 1.0
C      1  0.5637850000000  0.5416390000000  0.4538540000000 1.0
C      1  0.5747560000000  0.5291360000000  0.4902010000000 1.0
C      1  0.4566140000000  0.4007060000000  0.4710610000000 1.0
C      1  0.4159310000000  0.5198670000000  0.5470010000000 1.0
C      1  0.5283730000000  0.5036420000000  0.5644110000000 1.0
C      1  0.5751250000000  0.4170120000000  0.4367640000000 1.0
C      1  0.5322210000000  0.5493200000000  0.4082360000000 1.0
C      1  0.5496750000000  0.5511330000000  0.4832720000000 1.0
C      1  0.4916110000000  0.4656430000000  0.4633100000000 1.0
C      1  0.5352390000000  0.5937150000000  0.4869580000000 1.0
C      1  0.3961800000000  0.5190830000000  0.5123660000000 1.0
C      1  0.5011170000000  0.4180560000000  0.5696790000000 1.0
C      1  0.4316730000000  0.5710270000000  0.4465480000000 1.0
C      1  0.4591060000000  0.5035030000000  0.4160000000000 1.0
C      1  0.5432780000000  0.5134420000000  0.5935700000000 1.0
C      1  0.5857680000000  0.4985060000000  0.5241150000000 1.0
C      1  0.4482690000000  0.5901420000000  0.5193580000000 1.0
C      1  0.5550870000000  0.5632500000000  0.5566250000000 1.0
C      1  0.4386280000000  0.4899090000000  0.5096050000000 1.0
C      1  0.4592110000000  0.5416450000000  0.4774950000000 1.0
C      1  0.4094600000000  0.4710400000000  0.4520010000000 1.0
C      1  0.4977070000000  0.5402110000000  0.5043250000000 1.0
C      1  0.4870950000000  0.5702030000000  0.4800910000000 1.0
C      1  0.4036180000000  0.5450820000000  0.5300720000000 1.0
C      1  0.5797970000000  0.4756430000000  0.5738590000000 1.0
C      1  0.4376070000000  0.4645180000000  0.4535410000000 1.0
C      1  0.5022900000000  0.4971360000000  0.4587830000000 1.0
C      1  0.5553220000000  0.4145650000000  0.5379960000000 1.0
C      1  0.5161000000000  0.4866800000000  0.5223770000000 1.0
C      1  0.5097900000000  0.6006880000000  0.5378610000000 1.0
C      1  0.5240080000000  0.4194150000000  0.5464130000000 1.0
C      1  0.5609080000000  0.5304290000000  0.5212310000000 1.0
C      1  0.5034820000000  0.5931360000000  0.4991180000000 1.0
C      1  0.5171140000000  0.5541910000000  0.4801450000000 1.0
C      1  0.5615680000000  0.6106980000000  0.4887560000000 1.0
C      1  0.5493740000000  0.4368480000000  0.4363100000000 1.0
C      1  0.5253510000000  0.5373130000000  0.5607770000000 1.0
C      1  0.4991300000000  0.5620910000000  0.4263960000000 1.0
C      1  0.4125290000000  0.4944130000000  0.5262550000000 1.0
C      1  0.4740370000000  0.4857570000000  0.4843590000000 1.0
C      1  0.5661860000000  0.4182020000000  0.4918690000000 1.0
C      1  0.4082250000000  0.4899440000000  0.5599530000000 1.0
C      1  0.5874980000000  0.4912920000000  0.4919210000000 1.0
C      1  0.5884060000000  0.5317540000000  0.4392770000000 1.0
C      1  0.4810140000000  0.5157400000000  0.4042170000000 1.0
C      1  0.4831200000000  0.4707020000000  0.4138110000000 1.0
C      1  0.4941180000000  0.5792260000000  0.5771290000000 1.0
C      1  0.5323550000000  0.5555780000000  0.5327090000000 1.0
C      1  0.4747460000000  0.5518620000000  0.5708850000000 1.0
C      1  0.4334430000000  0.5536980000000  0.5352210000000 1.0
C      1  0.4798970000000  0.4606300000000  0.5907940000000 1.0
C      1  0.5352550000000  0.5077100000000  0.4849020000000 1.0
C      1  0.5656580000000  0.4942100000000  0.5415610000000 1.0
C      1  0.5372700000000  0.4533950000000  0.5628040000000 1.0
C      1  0.5560730000000  0.4017850000000  0.5112520000000 1.0
C      1  0.4789500000000  0.5441780000000  0.4104070000000 1.0
C      1  0.4550050000000  0.4628870000000  0.4321380000000 1.0
C      1  0.5810330000000  0.5969770000000  0.4791100000000 1.0
C      1  0.5762600000000  0.4723000000000  0.4585920000000 1.0
C      1  0.5274660000000  0.4388820000000  0.5095610000000 1.0
C      1  0.4322210000000  0.5181200000000  0.4952660000000 1.0
C      1  0.4768820000000  0.5258300000000  0.5270340000000 1.0
C      1  0.4592120000000  0.4405850000000  0.5010880000000 1.0
C      1  0.4148770000000  0.4598570000000  0.4979170000000 1.0
C      1  0.5741160000000  0.4360660000000  0.5400910000000 1.0
C      1  0.4011630000000  0.4774780000000  0.4792390000000 1.0
C      1  0.4462790000000  0.4661750000000  0.4864860000000 1.0
C      1  0.4002690000000  0.4926080000000  0.4354570000000 1.0
C      1  0.5576000000000  0.5317100000000  0.5525210000000 1.0
C      1  0.5240030000000  0.4054210000000  0.5150500000000 1.0
C      1  0.5064620000000  0.4797030000000  0.5542380000000 1.0
C      1  0.4897350000000  0.6190240000000  0.4817220000000 1.0
C      1  0.4435780000000  0.5519690000000  0.5675510000000 1.0
C      1  0.5798870000000  0.4928570000000  0.4383240000000 1.0
C      1  0.5085170000000  0.4639110000000  0.6001220000000 1.0
C      1  0.5261620000000  0.4448740000000  0.5900700000000 1.0
C      1  0.5384210000000  0.5784150000000  0.4566330000000 1.0
C      1  0.4050090000000  0.5174570000000  0.4492470000000 1.0
C      1  0.4736240000000  0.3860500000000  0.4943620000000 1.0
C      1  0.5559970000000  0.4501620000000  0.4952860000000 1.0
C      1  0.4328250000000  0.4413250000000  0.5435610000000 1.0
C      1  0.4876580000000  0.5909760000000  0.4344760000000 1.0
C      1  0.5096560000000  0.4013470000000  0.4648030000000 1.0
C      1  0.5250120000000  0.4530730000000  0.4458510000000 1.0
C      1  0.4848660000000  0.5223350000000  0.4538490000000 1.0
C      1  0.5143620000000  0.4504430000000  0.5387650000000 1.0
C      1  0.4822000000000  0.5832930000000  0.5474640000000 1.0
C      1  0.5862780000000  0.5107960000000  0.4655580000000 1.0
C      1  0.5038470000000  0.3949080000000  0.4964870000000 1.0
C      1  0.5082770000000  0.5427240000000  0.4508180000000 1.0
C      1  0.4775660000000  0.4298670000000  0.5777870000000 1.0
C      1  0.5675140000000  0.5070430000000  0.5716660000000 1.0
C      1  0.4532760000000  0.4173390000000  0.5328790000000 1.0
C      1  0.5148550000000  0.4041140000000  0.4391330000000 1.0
C      1  0.4698550000000  0.4222290000000  0.4550170000000 1.0
C      1  0.5216790000000  0.5245060000000  0.4097520000000 1.0
C      1  0.5093280000000  0.5212340000000  0.5943120000000 1.0
C      1  0.5883870000000  0.5509610000000  0.5205260000000 1.0
C      1  0.5073840000000  0.4893810000000  0.4914950000000 1.0
C      1  0.5759440000000  0.4469430000000  0.4489540000000 1.0
C      1  0.5057020000000  0.5492080000000  0.5820260000000 1.0
C      1  0.5173660000000  0.4804940000000  0.4365930000000 1.0
C      1  0.5360820000000  0.5241670000000  0.4573050000000 1.0
C      1  0.4853100000000  0.4738790000000  0.5208380000000 1.0
C      1  0.5433910000000  0.4770760000000  0.5391680000000 1.0
C      1  0.4451390000000  0.4683370000000  0.5534210000000 1.0
C      1  0.6003400000000  0.4653900000000  0.5070620000000 1.0
C      1  0.4694390000000  0.5601860000000  0.4528090000000 1.0
C      1  0.5294830000000  0.5296640000000  0.5103130000000 1.0
C      1  0.4347510000000  0.5646100000000  0.4719460000000 1.0
C      1  0.5392210000000  0.4870210000000  0.3984480000000 1.0
C      1  0.5069970000000  0.4939600000000  0.4068680000000 1.0
C      1  0.5307380000000  0.5696440000000  0.4315810000000 1.0
C      1  0.4815520000000  0.5189160000000  0.4857420000000 1.0
C      1  0.4029720000000  0.5111560000000  0.4812740000000 1.0
C      1  0.4616130000000  0.4892720000000  0.5862560000000 1.0
C      1  0.5683270000000  0.4545620000000  0.5608380000000 1.0
C      1  0.4550040000000  0.5162070000000  0.4439500000000 1.0
C      1  0.5568230000000  0.4814060000000  0.4837980000000 1.0
C      1  0.4924190000000  0.5693280000000  0.5207320000000 1.0
C      1  0.4867830000000  0.5980780000000  0.4606240000000 1.0
C      1  0.5109100000000  0.4289620000000  0.4290280000000 1.0
C      1  0.4273800000000  0.5321930000000  0.4404660000000 1.0
C      1  0.5991300000000  0.5231090000000  0.5130740000000 1.0
C      1  0.4658940000000  0.4962050000000  0.5236010000000 1.0
C      1  0.4479660000000  0.5034450000000  0.4715550000000 1.0
C      1  0.5172930000000  0.4496670000000  0.4789030000000 1.0
C      1  0.4711400000000  0.4455890000000  0.5332850000000 1.0
C      1  0.5200260000000  0.4893540000000  0.5941240000000 1.0
C      1  0.5697930000000  0.5722540000000  0.4657090000000 1.0
C      1  0.4526610000000  0.4240980000000  0.5656440000000 1.0
C      1  0.5290860000000  0.5845710000000  0.5198130000000 1.0
C      1  0.4843170000000  0.4466200000000  0.4378130000000 1.0
C      1  0.4516050000000  0.5197290000000  0.5747980000000 1.0
C      1  0.5602480000000  0.4954120000000  0.4196390000000 1.0
C      1  0.4852720000000  0.5278990000000  0.5551020000000 1.0
C      1  0.4889660000000  0.4216120000000  0.4815980000000 1.0
C      1  0.4762420000000  0.4647190000000  0.5585260000000 1.0
C      1  0.5814860000000  0.4470640000000  0.5148980000000 1.0
C      1  0.5344400000000  0.5069630000000  0.4326500000000 1.0
C      1  0.4592610000000  0.5728400000000  0.4995360000000 1.0
C      1  0.4127650000000  0.4439550000000  0.5197240000000 1.0
C      1  0.4905240000000  0.4488350000000  0.4991550000000 1.0
C      1  0.4513770000000  0.5518690000000  0.4265030000000 1.0
C      1  0.4516610000000  0.4091020000000  0.5032440000000 1.0
END
