TITL C-3289334-2237-624 -0.000400560054635496 125000 -297.483693694873 0 0 63 (C1) n - 1
REM
REM in /nfs/bkarasulu/CARBON/AIRSS/Generating-Clusters/AIREBO/with-SteepDescent/Higher-Symm/SD-CG/HFTN-CG
REM
REM
REM
REM
REM
REM ./C.cell (b20cbc046b6831c77cfcea5457e17084)
REM
REM compiler GCC version 9.2.1 20190827 (Red Hat 9.2.1-1)
REM options -cpp -mtune=generic -march=x86-64 -g -O0 -fpre-include=/usr/include/finclude/math-vector-fortran.h
REM seed -810098562 1137527416 17124018 1246359334 1761807330 1657049992 -808444071 1360405125 -1669469166 -1154758867 1119823038 -774025193 2102806619 446198590 105488605 -2090959666 516865278 1988211714 -1071489855 -942717237 -783927681 26083839 21852578 -1886380675 2001182549 1458067007 -856431759 1842341403 -1258497470 -1094090284 1025828519 311774489 -1953124344
REM
CELL 1.54180   50.00000   50.00000   50.00000   90.00000   90.00000   90.00000
LATT -1
SFAC C  
C      1  0.5608480000000  0.5320300000000  0.4654120000000 1.0
C      1  0.4944150000000  0.5285830000000  0.5654830000000 1.0
C      1  0.4382060000000  0.5293060000000  0.4674260000000 1.0
C      1  0.5640030000000  0.4742020000000  0.4893380000000 1.0
C      1  0.5108380000000  0.4690960000000  0.5595830000000 1.0
C      1  0.4585480000000  0.4724050000000  0.4451450000000 1.0
C      1  0.5466050000000  0.5308350000000  0.5328450000000 1.0
C      1  0.5024540000000  0.5314390000000  0.4423210000000 1.0
C      1  0.4401090000000  0.5302730000000  0.5197730000000 1.0
C      1  0.5615120000000  0.4687690000000  0.5164150000000 1.0
C      1  0.4858750000000  0.4733410000000  0.4353340000000 1.0
C      1  0.4512930000000  0.4796440000000  0.5563500000000 1.0
C      1  0.4679460000000  0.4843230000000  0.5286130000000 1.0
C      1  0.5058020000000  0.4856160000000  0.4599970000000 1.0
C      1  0.5328050000000  0.4821380000000  0.5288150000000 1.0
C      1  0.4641870000000  0.5147640000000  0.5139260000000 1.0
C      1  0.4923080000000  0.5128130000000  0.4595410000000 1.0
C      1  0.5405880000000  0.5106170000000  0.5155200000000 1.0
C      1  0.4554600000000  0.4846030000000  0.4750760000000 1.0
C      1  0.5005980000000  0.4882360000000  0.5379090000000 1.0
C      1  0.5385070000000  0.4870540000000  0.4708580000000 1.0
C      1  0.4672370000000  0.5161210000000  0.4799930000000 1.0
C      1  0.4879960000000  0.5180930000000  0.5360440000000 1.0
C      1  0.5391200000000  0.5159270000000  0.4858790000000 1.0
C      1  0.4475750000000  0.4456740000000  0.4454820000000 1.0
C      1  0.5275670000000  0.4336860000000  0.4626040000000 1.0
C      1  0.5198480000000  0.4414000000000  0.5518110000000 1.0
C      1  0.4384730000000  0.5608970000000  0.4783770000000 1.0
C      1  0.5483600000000  0.5603960000000  0.4577550000000 1.0
C      1  0.5096260000000  0.5567280000000  0.5636080000000 1.0
C      1  0.4491290000000  0.4526140000000  0.5625340000000 1.0
C      1  0.5495820000000  0.4418750000000  0.5351100000000 1.0
C      1  0.5064550000000  0.4462080000000  0.4387600000000 1.0
C      1  0.4416780000000  0.5582260000000  0.5107220000000 1.0
C      1  0.5347480000000  0.5588030000000  0.5443370000000 1.0
C      1  0.5192270000000  0.5597030000000  0.4454170000000 1.0
C      1  0.4676040000000  0.4556660000000  0.4881640000000 1.0
C      1  0.5241210000000  0.4590730000000  0.4836010000000 1.0
C      1  0.4988760000000  0.4382650000000  0.5252310000000 1.0
C      1  0.4701350000000  0.5497740000000  0.4839380000000 1.0
C      1  0.5288610000000  0.5482140000000  0.4828870000000 1.0
C      1  0.4969740000000  0.5508650000000  0.5325500000000 1.0
C      1  0.4718550000000  0.4525220000000  0.5172280000000 1.0
C      1  0.5252240000000  0.4525180000000  0.5138930000000 1.0
C      1  0.4945370000000  0.4549310000000  0.4694000000000 1.0
C      1  0.4738370000000  0.5653330000000  0.5129370000000 1.0
C      1  0.5220590000000  0.5559360000000  0.5137090000000 1.0
C      1  0.4994840000000  0.5577050000000  0.4722230000000 1.0
C      1  0.4903550000000  0.4200250000000  0.5526450000000 1.0
C      1  0.4620130000000  0.4319030000000  0.4665310000000 1.0
C      1  0.5445330000000  0.4185260000000  0.4792220000000 1.0
C      1  0.4788910000000  0.5721690000000  0.5519300000000 1.0
C      1  0.4648130000000  0.5729570000000  0.4595650000000 1.0
C      1  0.5503660000000  0.5731060000000  0.4915170000000 1.0
C      1  0.4902050000000  0.4228160000000  0.4590060000000 1.0
C      1  0.4650540000000  0.4361480000000  0.5459640000000 1.0
C      1  0.5448590000000  0.4261940000000  0.5050480000000 1.0
C      1  0.4902380000000  0.5778500000000  0.4464380000000 1.0
C      1  0.4546710000000  0.5795690000000  0.5371990000000 1.0
C      1  0.5485690000000  0.5783080000000  0.5201430000000 1.0
C      1  0.4430680000000  0.4818800000000  0.5055490000000 1.0
C      1  0.5460460000000  0.4874820000000  0.5568050000000 1.0
C      1  0.5532230000000  0.4897510000000  0.4425640000000 1.0
END
