TITL C-3289325-7307-38 -0.00087591609881986 125000 -414.800874595729 0 0 78 (C1) n - 1
REM
REM in /nfs/bkarasulu/CARBON/AIRSS/Generating-Clusters/AIREBO/with-SteepDescent/Higher-Symm/SD-CG/HFTN-CG
REM
REM
REM
REM
REM
REM ./C.cell (b20cbc046b6831c77cfcea5457e17084)
REM
REM compiler GCC version 9.2.1 20190827 (Red Hat 9.2.1-1)
REM options -cpp -mtune=generic -march=x86-64 -g -O0 -fpre-include=/usr/include/finclude/math-vector-fortran.h
REM seed 313951911 1545060060 -1230933815 1892487505 734174909 -1204897989 1725360984 -1736780610 265448169 1687054309 527268815 -691532109 1777783900 216336443 -211820245 1488741336 -693497397 1664935660 -68737053 2091513082 -1339755491 -2044594956 -603845853 1415043362 1334917608 -190107956 2054046934 1543713294 1838528010 -1951804516 1966128391 326725289 -1506855666
REM
CELL 1.54180   50.00000   50.00000   50.00000   90.00000   90.00000   90.00000
LATT -1
SFAC C  
C      1  0.5700920000000  0.4942770000000  0.5609220000000 1.0
C      1  0.4596630000000  0.4522120000000  0.5650810000000 1.0
C      1  0.4783400000000  0.5529860000000  0.5686040000000 1.0
C      1  0.5200980000000  0.5075340000000  0.4738810000000 1.0
C      1  0.4992680000000  0.4735570000000  0.4730480000000 1.0
C      1  0.4868580000000  0.5140730000000  0.4767910000000 1.0
C      1  0.5025990000000  0.4368210000000  0.5410530000000 1.0
C      1  0.4515870000000  0.5274550000000  0.5287060000000 1.0
C      1  0.5413210000000  0.5342190000000  0.5535790000000 1.0
C      1  0.5039170000000  0.5319520000000  0.5004310000000 1.0
C      1  0.5197490000000  0.4824870000000  0.4970150000000 1.0
C      1  0.4774080000000  0.4799590000000  0.4951100000000 1.0
C      1  0.5537100000000  0.4664370000000  0.4812930000000 1.0
C      1  0.4393060000000  0.4731700000000  0.4857930000000 1.0
C      1  0.5068580000000  0.5661270000000  0.4804090000000 1.0
C      1  0.5127640000000  0.5796180000000  0.5376540000000 1.0
C      1  0.5504660000000  0.4559140000000  0.5319380000000 1.0
C      1  0.4401570000000  0.4866420000000  0.5324110000000 1.0
C      1  0.4531350000000  0.5342470000000  0.5555470000000 1.0
C      1  0.5525350000000  0.5193180000000  0.5702420000000 1.0
C      1  0.4920170000000  0.4442250000000  0.5653580000000 1.0
C      1  0.4220710000000  0.4358630000000  0.4578860000000 1.0
C      1  0.4882280000000  0.5938560000000  0.4442010000000 1.0
C      1  0.6015820000000  0.4658160000000  0.4666850000000 1.0
C      1  0.4425540000000  0.5747760000000  0.5245830000000 1.0
C      1  0.5806980000000  0.5278030000000  0.5147110000000 1.0
C      1  0.4596830000000  0.4279560000000  0.5231440000000 1.0
C      1  0.5517200000000  0.5359830000000  0.4582760000000 1.0
C      1  0.5235410000000  0.4397250000000  0.4461830000000 1.0
C      1  0.4416340000000  0.5267310000000  0.4699430000000 1.0
C      1  0.4343940000000  0.4602380000000  0.4594040000000 1.0
C      1  0.4993330000000  0.5700270000000  0.4518000000000 1.0
C      1  0.5751090000000  0.4680400000000  0.4603670000000 1.0
C      1  0.4862390000000  0.5456880000000  0.5363450000000 1.0
C      1  0.5538060000000  0.4957540000000  0.5311130000000 1.0
C      1  0.4730020000000  0.4642300000000  0.5365360000000 1.0
C      1  0.5504090000000  0.4931730000000  0.4977450000000 1.0
C      1  0.4582560000000  0.4551420000000  0.5075170000000 1.0
C      1  0.4844320000000  0.5571430000000  0.5043760000000 1.0
C      1  0.5266810000000  0.4563270000000  0.4676640000000 1.0
C      1  0.4555640000000  0.5015670000000  0.4814170000000 1.0
C      1  0.5284860000000  0.5401010000000  0.4789660000000 1.0
C      1  0.5089280000000  0.5286170000000  0.4110820000000 1.0
C      1  0.5384700000000  0.4720090000000  0.4280470000000 1.0
C      1  0.4644930000000  0.4902320000000  0.4284900000000 1.0
C      1  0.5245290000000  0.4310480000000  0.5007430000000 1.0
C      1  0.3960800000000  0.4743540000000  0.5134810000000 1.0
C      1  0.5385070000000  0.5664190000000  0.5219000000000 1.0
C      1  0.5149880000000  0.5827820000000  0.5056220000000 1.0
C      1  0.5514960000000  0.4447170000000  0.5032230000000 1.0
C      1  0.4232450000000  0.4772860000000  0.5126570000000 1.0
C      1  0.4443910000000  0.4743760000000  0.4376470000000 1.0
C      1  0.5035800000000  0.5488450000000  0.4361880000000 1.0
C      1  0.5646240000000  0.4744320000000  0.4351340000000 1.0
C      1  0.5307550000000  0.5338630000000  0.5212540000000 1.0
C      1  0.5184110000000  0.4582100000000  0.5208210000000 1.0
C      1  0.4654500000000  0.4997190000000  0.5198890000000 1.0
C      1  0.5559400000000  0.5239680000000  0.5030220000000 1.0
C      1  0.4863840000000  0.4188360000000  0.5259570000000 1.0
C      1  0.4542120000000  0.5497860000000  0.5114900000000 1.0
C      1  0.5433450000000  0.5222230000000  0.4381580000000 1.0
C      1  0.5124890000000  0.4539200000000  0.4207390000000 1.0
C      1  0.4544470000000  0.5345630000000  0.4491180000000 1.0
C      1  0.5129050000000  0.4075640000000  0.4948780000000 1.0
C      1  0.3704510000000  0.4690920000000  0.5149900000000 1.0
C      1  0.5649940000000  0.5735720000000  0.5236220000000 1.0
C      1  0.4908120000000  0.5153550000000  0.5343050000000 1.0
C      1  0.5228010000000  0.5038650000000  0.5351690000000 1.0
C      1  0.4979500000000  0.4817230000000  0.5344220000000 1.0
C      1  0.4426450000000  0.4786320000000  0.5581830000000 1.0
C      1  0.4994340000000  0.5778140000000  0.5601440000000 1.0
C      1  0.5627500000000  0.4640520000000  0.5537510000000 1.0
C      1  0.5104260000000  0.5146170000000  0.4420470000000 1.0
C      1  0.5088800000000  0.4809020000000  0.4417240000000 1.0
C      1  0.4764230000000  0.5145400000000  0.4416650000000 1.0
C      1  0.4638620000000  0.5709230000000  0.5438170000000 1.0
C      1  0.5853230000000  0.5091450000000  0.5355430000000 1.0
C      1  0.4463130000000  0.4288290000000  0.5473540000000 1.0
END
