TITL C-3289333-7213-329 -0.000438623030585293 125000 -916.52705854804 0 0 157 (C1) n - 1
REM
REM in /nfs/bkarasulu/CARBON/AIRSS/Generating-Clusters/AIREBO/with-SteepDescent/Higher-Symm/SD-CG/HFTN-CG
REM
REM
REM
REM
REM
REM ./C.cell (b20cbc046b6831c77cfcea5457e17084)
REM
REM compiler GCC version 9.2.1 20190827 (Red Hat 9.2.1-1)
REM options -cpp -mtune=generic -march=x86-64 -g -O0 -fpre-include=/usr/include/finclude/math-vector-fortran.h
REM seed -2085520599 -2057391315 700862746 -1331087022 -705663616 1408193842 981207548 -156355072 125268438 -389158698 119789940 -351450808 1582848264 -1435346913 -1376030773 -1319120952 -116814308 -435387341 1058087616 1478583620 -1839440912 1140328824 -1426399289 -1451897295 27001416 911679621 -1046664235 -1541987187 712985161 -306724779 999052801 715001205 1282409903
REM
CELL 1.54180   50.00000   50.00000   50.00000   90.00000   90.00000   90.00000
LATT -1
SFAC C  
C      1  0.5221680000000  0.4286940000000  0.4298250000000 1.0
C      1  0.5740700000000  0.4767190000000  0.4229230000000 1.0
C      1  0.5549240000000  0.5531120000000  0.4216750000000 1.0
C      1  0.4746800000000  0.5626070000000  0.4328130000000 1.0
C      1  0.4226930000000  0.5163780000000  0.4238960000000 1.0
C      1  0.4479130000000  0.4425790000000  0.4233340000000 1.0
C      1  0.5269000000000  0.4296270000000  0.5685630000000 1.0
C      1  0.5677140000000  0.4885320000000  0.5760920000000 1.0
C      1  0.5468590000000  0.5540880000000  0.5790030000000 1.0
C      1  0.4794200000000  0.5747330000000  0.5760590000000 1.0
C      1  0.4256110000000  0.5172030000000  0.5794760000000 1.0
C      1  0.4542440000000  0.4422600000000  0.5687090000000 1.0
C      1  0.4110100000000  0.5511050000000  0.4884780000000 1.0
C      1  0.4243820000000  0.4512690000000  0.4784340000000 1.0
C      1  0.5059350000000  0.4112810000000  0.4815170000000 1.0
C      1  0.5824660000000  0.4631620000000  0.4909240000000 1.0
C      1  0.5714220000000  0.5508590000000  0.4879320000000 1.0
C      1  0.5004740000000  0.5898070000000  0.4810090000000 1.0
C      1  0.4196100000000  0.5421310000000  0.5157340000000 1.0
C      1  0.4277550000000  0.4528030000000  0.5101810000000 1.0
C      1  0.5092590000000  0.4110890000000  0.5124110000000 1.0
C      1  0.5921850000000  0.4645320000000  0.5212130000000 1.0
C      1  0.5781950000000  0.5598920000000  0.5153650000000 1.0
C      1  0.4960650000000  0.6055590000000  0.5109270000000 1.0
C      1  0.4563290000000  0.4251380000000  0.5088280000000 1.0
C      1  0.5469330000000  0.4235300000000  0.5107900000000 1.0
C      1  0.5877740000000  0.5015390000000  0.5344950000000 1.0
C      1  0.5404100000000  0.5621880000000  0.5278020000000 1.0
C      1  0.4590650000000  0.5760080000000  0.5164150000000 1.0
C      1  0.4167780000000  0.5045110000000  0.5290130000000 1.0
C      1  0.4532980000000  0.4244790000000  0.4764520000000 1.0
C      1  0.5445830000000  0.4200480000000  0.4773490000000 1.0
C      1  0.5797770000000  0.4980400000000  0.4720220000000 1.0
C      1  0.5434540000000  0.5711180000000  0.4681060000000 1.0
C      1  0.4493450000000  0.5855960000000  0.4879410000000 1.0
C      1  0.4225720000000  0.5068060000000  0.4713030000000 1.0
C      1  0.5079860000000  0.5337470000000  0.5509470000000 1.0
C      1  0.4770800000000  0.5282910000000  0.5614680000000 1.0
C      1  0.4553650000000  0.4848840000000  0.5605430000000 1.0
C      1  0.5033310000000  0.4649090000000  0.5643510000000 1.0
C      1  0.5160470000000  0.4971160000000  0.5646770000000 1.0
C      1  0.5379590000000  0.5202670000000  0.5596790000000 1.0
C      1  0.5112780000000  0.5377260000000  0.4385530000000 1.0
C      1  0.4852990000000  0.5157760000000  0.4381160000000 1.0
C      1  0.4689940000000  0.4907290000000  0.4329140000000 1.0
C      1  0.4919270000000  0.4657540000000  0.4355630000000 1.0
C      1  0.5384540000000  0.4923090000000  0.4368570000000 1.0
C      1  0.5213260000000  0.5117230000000  0.4544850000000 1.0
C      1  0.5779410000000  0.5528160000000  0.4385100000000 1.0
C      1  0.4834820000000  0.5863730000000  0.4450400000000 1.0
C      1  0.4136260000000  0.5385560000000  0.4394360000000 1.0
C      1  0.4247370000000  0.4430350000000  0.4394810000000 1.0
C      1  0.5082430000000  0.4071810000000  0.4418300000000 1.0
C      1  0.5855220000000  0.4585760000000  0.4415240000000 1.0
C      1  0.5722300000000  0.5597990000000  0.5674440000000 1.0
C      1  0.4894950000000  0.5908020000000  0.5546320000000 1.0
C      1  0.4162390000000  0.5398510000000  0.5655810000000 1.0
C      1  0.4310290000000  0.4445380000000  0.5508510000000 1.0
C      1  0.5163310000000  0.4084010000000  0.5528000000000 1.0
C      1  0.5816390000000  0.4678390000000  0.5619950000000 1.0
C      1  0.5192010000000  0.4705610000000  0.5939030000000 1.0
C      1  0.5230390000000  0.5103290000000  0.5950870000000 1.0
C      1  0.5011260000000  0.5350220000000  0.6035780000000 1.0
C      1  0.4777670000000  0.5162960000000  0.5909800000000 1.0
C      1  0.4695050000000  0.4858540000000  0.5893790000000 1.0
C      1  0.4884900000000  0.4598570000000  0.6010200000000 1.0
C      1  0.5055550000000  0.4718180000000  0.4048930000000 1.0
C      1  0.5289900000000  0.4915320000000  0.4061030000000 1.0
C      1  0.5260030000000  0.5204850000000  0.3965400000000 1.0
C      1  0.5035470000000  0.5331760000000  0.4075820000000 1.0
C      1  0.4439640000000  0.4880790000000  0.3912720000000 1.0
C      1  0.4745620000000  0.4796800000000  0.4024490000000 1.0
C      1  0.5576540000000  0.4771670000000  0.4013750000000 1.0
C      1  0.5487150000000  0.5379960000000  0.3983010000000 1.0
C      1  0.4817740000000  0.5518380000000  0.4076710000000 1.0
C      1  0.4264120000000  0.5087450000000  0.3969610000000 1.0
C      1  0.4495130000000  0.4580560000000  0.4002280000000 1.0
C      1  0.5163250000000  0.4420080000000  0.4073850000000 1.0
C      1  0.5460170000000  0.4866020000000  0.5941640000000 1.0
C      1  0.5344580000000  0.5407380000000  0.6000410000000 1.0
C      1  0.4912170000000  0.5661320000000  0.6008280000000 1.0
C      1  0.4454340000000  0.5172970000000  0.5981670000000 1.0
C      1  0.4567220000000  0.4554580000000  0.5935880000000 1.0
C      1  0.5138970000000  0.4384860000000  0.5921620000000 1.0
C      1  0.4297540000000  0.4251390000000  0.5282020000000 1.0
C      1  0.5337440000000  0.3990200000000  0.5302390000000 1.0
C      1  0.6074220000000  0.4771160000000  0.5473360000000 1.0
C      1  0.5676990000000  0.5758930000000  0.5409760000000 1.0
C      1  0.4761590000000  0.5974780000000  0.5300570000000 1.0
C      1  0.4021820000000  0.5315850000000  0.5417010000000 1.0
C      1  0.4253550000000  0.4219550000000  0.4615130000000 1.0
C      1  0.5264560000000  0.3959080000000  0.4633040000000 1.0
C      1  0.5980960000000  0.4724840000000  0.4633830000000 1.0
C      1  0.5746130000000  0.5699980000000  0.4610770000000 1.0
C      1  0.4687700000000  0.5954420000000  0.4705280000000 1.0
C      1  0.4059540000000  0.5318760000000  0.4685550000000 1.0
C      1  0.5181280000000  0.4719860000000  0.4567620000000 1.0
C      1  0.5285720000000  0.4927390000000  0.4816070000000 1.0
C      1  0.5068460000000  0.5317380000000  0.4778480000000 1.0
C      1  0.4756530000000  0.5214860000000  0.4689500000000 1.0
C      1  0.4701140000000  0.4879950000000  0.4749100000000 1.0
C      1  0.4951120000000  0.4711110000000  0.4817850000000 1.0
C      1  0.5217430000000  0.4765340000000  0.5382150000000 1.0
C      1  0.5369990000000  0.5024700000000  0.5222840000000 1.0
C      1  0.4911760000000  0.5278940000000  0.5242150000000 1.0
C      1  0.4661470000000  0.5120880000000  0.5333680000000 1.0
C      1  0.4717720000000  0.4813940000000  0.5326210000000 1.0
C      1  0.4986040000000  0.4692430000000  0.5156180000000 1.0
C      1  0.5676080000000  0.5144940000000  0.5580740000000 1.0
C      1  0.5270120000000  0.5583450000000  0.5570420000000 1.0
C      1  0.4623450000000  0.5546620000000  0.5665950000000 1.0
C      1  0.4261440000000  0.4941910000000  0.5600430000000 1.0
C      1  0.4821090000000  0.4386100000000  0.5598310000000 1.0
C      1  0.5387940000000  0.4504930000000  0.5519360000000 1.0
C      1  0.5696840000000  0.5017980000000  0.4406080000000 1.0
C      1  0.5300360000000  0.5622000000000  0.4386250000000 1.0
C      1  0.4607610000000  0.5464060000000  0.4511640000000 1.0
C      1  0.4366980000000  0.4953910000000  0.4425210000000 1.0
C      1  0.4730780000000  0.4384740000000  0.4366140000000 1.0
C      1  0.5361680000000  0.4433700000000  0.4529820000000 1.0
C      1  0.5838500000000  0.5399360000000  0.5424050000000 1.0
C      1  0.5165140000000  0.5863420000000  0.5483180000000 1.0
C      1  0.4365000000000  0.5585570000000  0.5577760000000 1.0
C      1  0.4157010000000  0.4681950000000  0.5449980000000 1.0
C      1  0.4895330000000  0.4148890000000  0.5468430000000 1.0
C      1  0.5661150000000  0.4496810000000  0.5474710000000 1.0
C      1  0.5869760000000  0.5281450000000  0.4481120000000 1.0
C      1  0.5128080000000  0.5875740000000  0.4483930000000 1.0
C      1  0.4344910000000  0.5552980000000  0.4533230000000 1.0
C      1  0.4173470000000  0.4715070000000  0.4541260000000 1.0
C      1  0.4817410000000  0.4147780000000  0.4501050000000 1.0
C      1  0.5682270000000  0.4401930000000  0.4533360000000 1.0
C      1  0.4964650000000  0.5593120000000  0.4893280000000 1.0
C      1  0.4485540000000  0.5114110000000  0.4868640000000 1.0
C      1  0.4575460000000  0.4577910000000  0.4841800000000 1.0
C      1  0.5061670000000  0.4420870000000  0.4875930000000 1.0
C      1  0.5564230000000  0.4869800000000  0.4891040000000 1.0
C      1  0.5390190000000  0.5417930000000  0.4823440000000 1.0
C      1  0.4800830000000  0.5537290000000  0.5109430000000 1.0
C      1  0.4425890000000  0.5181940000000  0.5152680000000 1.0
C      1  0.4602320000000  0.4582040000000  0.5160180000000 1.0
C      1  0.5201720000000  0.4429630000000  0.5165930000000 1.0
C      1  0.5645290000000  0.4843190000000  0.5196390000000 1.0
C      1  0.5394420000000  0.5351210000000  0.5123780000000 1.0
C      1  0.5908460000000  0.5261020000000  0.4823090000000 1.0
C      1  0.5339250000000  0.5938810000000  0.4855380000000 1.0
C      1  0.4283460000000  0.5709770000000  0.4769770000000 1.0
C      1  0.4029250000000  0.4840450000000  0.4828800000000 1.0
C      1  0.4756100000000  0.4031560000000  0.4815440000000 1.0
C      1  0.5755370000000  0.4320320000000  0.4847170000000 1.0
C      1  0.5983210000000  0.5255370000000  0.5148560000000 1.0
C      1  0.5245720000000  0.5888790000000  0.5158540000000 1.0
C      1  0.4347330000000  0.5650580000000  0.5307550000000 1.0
C      1  0.4098590000000  0.4778620000000  0.5125450000000 1.0
C      1  0.4784720000000  0.4063890000000  0.5176950000000 1.0
C      1  0.5747130000000  0.4361120000000  0.5192060000000 1.0
C      1  0.5095250000000  0.5104720000000  0.5039000000000 1.0
END
