TITL C-3289320-4661-416 -0.00159668504084132 125000 -920.054675003525 0 0 174 (C1) n - 1
REM
REM in /nfs/bkarasulu/CARBON/AIRSS/Generating-Clusters/AIREBO/with-SteepDescent/Higher-Symm/SD-CG/HFTN-CG
REM
REM
REM
REM
REM
REM ./C.cell (b20cbc046b6831c77cfcea5457e17084)
REM
REM compiler GCC version 9.2.1 20190827 (Red Hat 9.2.1-1)
REM options -cpp -mtune=generic -march=x86-64 -g -O0 -fpre-include=/usr/include/finclude/math-vector-fortran.h
REM seed -895784634 1478236966 -80863772 -591259593 1107660260 476276468 23889153 -2018776112 1920731260 -59775383 1617349446 -1814740902 -822053483 -1068043818 -1505933775 -527000113 1635408732 538692275 1014301529 -2135786998 1254761690 -1816324505 -1091988813 -1223859620 -980251376 828432929 -193900754 -1103665641 92505297 1294777862 -121073559 279799546 2091803708
REM
CELL 1.54180   50.00000   50.00000   50.00000   90.00000   90.00000   90.00000
LATT -1
SFAC C  
C      1  0.6069300000000  0.5402810000000  0.4990260000000 1.0
C      1  0.5376880000000  0.6053460000000  0.5356530000000 1.0
C      1  0.4403860000000  0.5994630000000  0.5088170000000 1.0
C      1  0.3870660000000  0.5170060000000  0.4991390000000 1.0
C      1  0.4197260000000  0.4224540000000  0.5041350000000 1.0
C      1  0.5139720000000  0.3823170000000  0.5148670000000 1.0
C      1  0.6031820000000  0.4458200000000  0.5013700000000 1.0
C      1  0.5434110000000  0.4409280000000  0.4915600000000 1.0
C      1  0.5789890000000  0.4888500000000  0.4772890000000 1.0
C      1  0.5588610000000  0.5413480000000  0.4644180000000 1.0
C      1  0.4897840000000  0.5772890000000  0.4751380000000 1.0
C      1  0.4418460000000  0.5489480000000  0.4803610000000 1.0
C      1  0.4271230000000  0.4707620000000  0.4761920000000 1.0
C      1  0.4651490000000  0.4357500000000  0.4735670000000 1.0
C      1  0.4773290000000  0.5305810000000  0.5633630000000 1.0
C      1  0.4648520000000  0.4989550000000  0.5624310000000 1.0
C      1  0.4757540000000  0.4669940000000  0.5665770000000 1.0
C      1  0.5094880000000  0.4613930000000  0.5659830000000 1.0
C      1  0.5284030000000  0.4881590000000  0.5569250000000 1.0
C      1  0.5311500000000  0.5170480000000  0.5709750000000 1.0
C      1  0.5084270000000  0.5415470000000  0.5645190000000 1.0
C      1  0.4615450000000  0.4995970000000  0.5105860000000 1.0
C      1  0.4815360000000  0.4721360000000  0.5122390000000 1.0
C      1  0.5124530000000  0.4594140000000  0.5104480000000 1.0
C      1  0.5313110000000  0.4875240000000  0.5072110000000 1.0
C      1  0.5327100000000  0.5189110000000  0.5176880000000 1.0
C      1  0.5124080000000  0.5365620000000  0.5016880000000 1.0
C      1  0.4824940000000  0.5269550000000  0.5147310000000 1.0
C      1  0.5676710000000  0.5721150000000  0.4758970000000 1.0
C      1  0.5089310000000  0.6012070000000  0.4898990000000 1.0
C      1  0.4141970000000  0.5641060000000  0.4707060000000 1.0
C      1  0.3887410000000  0.4677850000000  0.4617560000000 1.0
C      1  0.4557230000000  0.4070550000000  0.4825030000000 1.0
C      1  0.5500370000000  0.4111500000000  0.4805330000000 1.0
C      1  0.6402340000000  0.5080820000000  0.5198560000000 1.0
C      1  0.4203620000000  0.4952610000000  0.4977050000000 1.0
C      1  0.4568040000000  0.4522960000000  0.4999550000000 1.0
C      1  0.5164100000000  0.4260710000000  0.5060080000000 1.0
C      1  0.5707780000000  0.4686400000000  0.5004020000000 1.0
C      1  0.5738870000000  0.5357470000000  0.4935040000000 1.0
C      1  0.5121810000000  0.5679190000000  0.4989760000000 1.0
C      1  0.4484440000000  0.5605830000000  0.5079670000000 1.0
C      1  0.4543310000000  0.5000350000000  0.4777790000000 1.0
C      1  0.4804870000000  0.4783210000000  0.4786530000000 1.0
C      1  0.5049980000000  0.4579800000000  0.4713200000000 1.0
C      1  0.5339750000000  0.4699620000000  0.4782080000000 1.0
C      1  0.5257890000000  0.5020470000000  0.4704910000000 1.0
C      1  0.5259030000000  0.5355840000000  0.4704770000000 1.0
C      1  0.4790970000000  0.5217370000000  0.4813000000000 1.0
C      1  0.5110600000000  0.5332180000000  0.4399750000000 1.0
C      1  0.4792280000000  0.5335630000000  0.4431240000000 1.0
C      1  0.4599100000000  0.5077470000000  0.4350730000000 1.0
C      1  0.4682840000000  0.4788940000000  0.4469170000000 1.0
C      1  0.4903660000000  0.4581510000000  0.4323120000000 1.0
C      1  0.5186750000000  0.4759820000000  0.4384030000000 1.0
C      1  0.5294990000000  0.5077980000000  0.4311760000000 1.0
C      1  0.4112640000000  0.4417630000000  0.4819250000000 1.0
C      1  0.4954430000000  0.4009580000000  0.4967220000000 1.0
C      1  0.5769160000000  0.4400580000000  0.4857170000000 1.0
C      1  0.6033120000000  0.5115940000000  0.4815600000000 1.0
C      1  0.5390770000000  0.5805740000000  0.5138310000000 1.0
C      1  0.4717570000000  0.5922020000000  0.5004680000000 1.0
C      1  0.4163140000000  0.5269440000000  0.4849260000000 1.0
C      1  0.4742470000000  0.4717590000000  0.6002210000000 1.0
C      1  0.5051290000000  0.4593850000000  0.5996480000000 1.0
C      1  0.5353660000000  0.4688400000000  0.5955250000000 1.0
C      1  0.5471890000000  0.4948250000000  0.5911810000000 1.0
C      1  0.5156150000000  0.5393990000000  0.6035940000000 1.0
C      1  0.4841370000000  0.5376260000000  0.5959250000000 1.0
C      1  0.4643390000000  0.5099990000000  0.5948800000000 1.0
C      1  0.5176900000000  0.5303120000000  0.3891310000000 1.0
C      1  0.4858800000000  0.5398330000000  0.3904020000000 1.0
C      1  0.4587540000000  0.5205200000000  0.3973880000000 1.0
C      1  0.4796300000000  0.4659090000000  0.3947620000000 1.0
C      1  0.5082970000000  0.4600740000000  0.3966090000000 1.0
C      1  0.5286780000000  0.4805680000000  0.3999480000000 1.0
C      1  0.5345840000000  0.5083750000000  0.3916090000000 1.0
C      1  0.6006630000000  0.4738010000000  0.5157760000000 1.0
C      1  0.5840590000000  0.5545640000000  0.5199350000000 1.0
C      1  0.5090270000000  0.6060760000000  0.5381330000000 1.0
C      1  0.4233830000000  0.5769080000000  0.5229700000000 1.0
C      1  0.3926980000000  0.4872950000000  0.5146820000000 1.0
C      1  0.4485290000000  0.4257470000000  0.5170020000000 1.0
C      1  0.5371490000000  0.3939730000000  0.5233610000000 1.0
C      1  0.5580450000000  0.5619430000000  0.5716450000000 1.0
C      1  0.4807930000000  0.5832500000000  0.5763050000000 1.0
C      1  0.4234670000000  0.5401530000000  0.5647910000000 1.0
C      1  0.4227520000000  0.4714380000000  0.5663380000000 1.0
C      1  0.4735870000000  0.4202580000000  0.5653920000000 1.0
C      1  0.5548560000000  0.4323490000000  0.5624320000000 1.0
C      1  0.5895080000000  0.4942550000000  0.5636410000000 1.0
C      1  0.5741040000000  0.5433040000000  0.5481650000000 1.0
C      1  0.5009860000000  0.5794760000000  0.5528860000000 1.0
C      1  0.4398950000000  0.5625190000000  0.5477900000000 1.0
C      1  0.4110260000000  0.4917880000000  0.5416450000000 1.0
C      1  0.4499770000000  0.4346810000000  0.5474880000000 1.0
C      1  0.5317930000000  0.4180270000000  0.5420100000000 1.0
C      1  0.5780620000000  0.4727950000000  0.5398770000000 1.0
C      1  0.6106330000000  0.5033640000000  0.5137560000000 1.0
C      1  0.5656580000000  0.5743430000000  0.5032810000000 1.0
C      1  0.4950650000000  0.6123820000000  0.5148120000000 1.0
C      1  0.4092460000000  0.5553350000000  0.5024480000000 1.0
C      1  0.3902670000000  0.4659820000000  0.4909370000000 1.0
C      1  0.4671450000000  0.4008850000000  0.5102800000000 1.0
C      1  0.5563960000000  0.3950640000000  0.5027300000000 1.0
C      1  0.4671850000000  0.5462720000000  0.4173410000000 1.0
C      1  0.4332630000000  0.5180040000000  0.4202050000000 1.0
C      1  0.4627300000000  0.4485650000000  0.4149760000000 1.0
C      1  0.5148270000000  0.4394050000000  0.4179450000000 1.0
C      1  0.5478490000000  0.4721530000000  0.4247220000000 1.0
C      1  0.5567580000000  0.5101490000000  0.4162060000000 1.0
C      1  0.5074820000000  0.5512980000000  0.4140290000000 1.0
C      1  0.5544610000000  0.5553350000000  0.4333910000000 1.0
C      1  0.4845800000000  0.5888880000000  0.4435890000000 1.0
C      1  0.4237590000000  0.5484020000000  0.4306770000000 1.0
C      1  0.4107840000000  0.4694380000000  0.4399140000000 1.0
C      1  0.4688550000000  0.4098920000000  0.4434500000000 1.0
C      1  0.5456500000000  0.4160200000000  0.4510730000000 1.0
C      1  0.5834350000000  0.4929830000000  0.4285900000000 1.0
C      1  0.4721110000000  0.5721020000000  0.5263070000000 1.0
C      1  0.4276300000000  0.5347730000000  0.5223360000000 1.0
C      1  0.4347370000000  0.4703880000000  0.5154360000000 1.0
C      1  0.4987980000000  0.4224440000000  0.5345940000000 1.0
C      1  0.5495700000000  0.4642000000000  0.5234100000000 1.0
C      1  0.5651920000000  0.5190350000000  0.5178960000000 1.0
C      1  0.5308400000000  0.5669070000000  0.5432000000000 1.0
C      1  0.4452860000000  0.4313500000000  0.4371160000000 1.0
C      1  0.5214950000000  0.4204810000000  0.4390200000000 1.0
C      1  0.5796000000000  0.4607970000000  0.4315450000000 1.0
C      1  0.5786200000000  0.5325470000000  0.4294880000000 1.0
C      1  0.5047690000000  0.5809600000000  0.4250840000000 1.0
C      1  0.4458720000000  0.5656470000000  0.4250280000000 1.0
C      1  0.4086950000000  0.4990660000000  0.4315510000000 1.0
C      1  0.5423050000000  0.5363430000000  0.5452820000000 1.0
C      1  0.4953470000000  0.5513140000000  0.5346870000000 1.0
C      1  0.4585350000000  0.5360680000000  0.5371210000000 1.0
C      1  0.4447660000000  0.4938920000000  0.5378720000000 1.0
C      1  0.4784320000000  0.4495640000000  0.5375010000000 1.0
C      1  0.5270430000000  0.4497290000000  0.5395910000000 1.0
C      1  0.5555570000000  0.4981190000000  0.5429120000000 1.0
C      1  0.5780980000000  0.4422090000000  0.5518820000000 1.0
C      1  0.5913380000000  0.5153290000000  0.5391090000000 1.0
C      1  0.5533180000000  0.5886940000000  0.5570260000000 1.0
C      1  0.4613210000000  0.5845000000000  0.5546590000000 1.0
C      1  0.4102900000000  0.5227580000000  0.5448300000000 1.0
C      1  0.4272250000000  0.4552220000000  0.5420790000000 1.0
C      1  0.4824080000000  0.3971850000000  0.5488360000000 1.0
C      1  0.5333050000000  0.5541590000000  0.5840880000000 1.0
C      1  0.4775160000000  0.5682990000000  0.5983840000000 1.0
C      1  0.4413690000000  0.5265330000000  0.5790480000000 1.0
C      1  0.4454630000000  0.4672340000000  0.5820530000000 1.0
C      1  0.4942700000000  0.4337650000000  0.5787110000000 1.0
C      1  0.5482550000000  0.4444910000000  0.5868930000000 1.0
C      1  0.5754600000000  0.4957980000000  0.5867360000000 1.0
C      1  0.4576460000000  0.5896010000000  0.4341530000000 1.0
C      1  0.4103540000000  0.5264600000000  0.4516300000000 1.0
C      1  0.4144470000000  0.4402750000000  0.4483790000000 1.0
C      1  0.4918970000000  0.4005510000000  0.4669730000000 1.0
C      1  0.5675820000000  0.4384440000000  0.4548320000000 1.0
C      1  0.6027420000000  0.5148910000000  0.4475440000000 1.0
C      1  0.5338550000000  0.5737450000000  0.4359090000000 1.0
C      1  0.5184130000000  0.5670240000000  0.4599210000000 1.0
C      1  0.4709220000000  0.5494960000000  0.4694710000000 1.0
C      1  0.4290020000000  0.4993920000000  0.4589630000000 1.0
C      1  0.4487740000000  0.4578270000000  0.4581720000000 1.0
C      1  0.4926030000000  0.4319260000000  0.4538520000000 1.0
C      1  0.5593400000000  0.4713910000000  0.4567260000000 1.0
C      1  0.5696120000000  0.5108090000000  0.4540410000000 1.0
C      1  0.4989980000000  0.4987620000000  0.5241940000000 1.0
C      1  0.4968520000000  0.5027000000000  0.4614160000000 1.0
C      1  0.4947200000000  0.4961760000000  0.5883450000000 1.0
C      1  0.4742640000000  0.4934080000000  0.4077750000000 1.0
C      1  0.4978770000000  0.4977390000000  0.5544310000000 1.0
C      1  0.4975230000000  0.4979390000000  0.4277430000000 1.0
END
