TITL C-3289330-4660-46 0.00302144126856009 125000 -625.689973074518 0 0 117 (C1) n - 1
REM
REM in /nfs/bkarasulu/CARBON/AIRSS/Generating-Clusters/AIREBO/with-SteepDescent/Higher-Symm/SD-CG/HFTN-CG
REM
REM
REM
REM
REM
REM ./C.cell (b20cbc046b6831c77cfcea5457e17084)
REM
REM compiler GCC version 9.2.1 20190827 (Red Hat 9.2.1-1)
REM options -cpp -mtune=generic -march=x86-64 -g -O0 -fpre-include=/usr/include/finclude/math-vector-fortran.h
REM seed -164276966 -2113078813 -1646452357 -1715998536 -1372080991 1129708685 -1263794073 -2092225924 483556780 1867287202 -1157060540 -346495852 564127915 -833806890 -420922394 2092835008 1327155118 -924418073 1981189166 1221702732 -233573590 992959771 -1266857694 -1608668481 401757545 816709732 -310417203 366225443 238310277 1099514185 1803570298 -2072806383 -2072372761
REM
CELL 1.54180   50.00000   50.00000   50.00000   90.00000   90.00000   90.00000
LATT -1
SFAC C  
C      1  0.5660040000000  0.5586180000000  0.5605590000000 1.0
C      1  0.4679400000000  0.5730270000000  0.5699810000000 1.0
C      1  0.4210130000000  0.4936380000000  0.5582510000000 1.0
C      1  0.4846630000000  0.4153100000000  0.5567940000000 1.0
C      1  0.5713820000000  0.4610200000000  0.5652570000000 1.0
C      1  0.5604620000000  0.5424880000000  0.4335080000000 1.0
C      1  0.4624380000000  0.5740940000000  0.4254840000000 1.0
C      1  0.4294990000000  0.4953000000000  0.4316190000000 1.0
C      1  0.4852660000000  0.4139370000000  0.4344580000000 1.0
C      1  0.5630960000000  0.4554700000000  0.4368030000000 1.0
C      1  0.5112060000000  0.4792490000000  0.4774540000000 1.0
C      1  0.5149080000000  0.5092930000000  0.4782720000000 1.0
C      1  0.5043930000000  0.5404270000000  0.4785080000000 1.0
C      1  0.4688490000000  0.5233200000000  0.4839320000000 1.0
C      1  0.4715560000000  0.4761210000000  0.4799430000000 1.0
C      1  0.5160600000000  0.4677630000000  0.5248660000000 1.0
C      1  0.5384350000000  0.5106060000000  0.5200010000000 1.0
C      1  0.5084690000000  0.5437270000000  0.5275570000000 1.0
C      1  0.4650150000000  0.5201920000000  0.5175760000000 1.0
C      1  0.4693650000000  0.4708170000000  0.5224020000000 1.0
C      1  0.5379100000000  0.4652580000000  0.4672140000000 1.0
C      1  0.5395610000000  0.5281710000000  0.4644120000000 1.0
C      1  0.5041850000000  0.5519510000000  0.4488150000000 1.0
C      1  0.4587160000000  0.5092970000000  0.4607400000000 1.0
C      1  0.4713210000000  0.4585780000000  0.4508120000000 1.0
C      1  0.5250210000000  0.4495970000000  0.5521740000000 1.0
C      1  0.5493780000000  0.5163730000000  0.5487880000000 1.0
C      1  0.5126370000000  0.5565580000000  0.5548230000000 1.0
C      1  0.4587580000000  0.5213200000000  0.5487720000000 1.0
C      1  0.4620940000000  0.4577510000000  0.5486700000000 1.0
C      1  0.5045340000000  0.5186200000000  0.5902570000000 1.0
C      1  0.4824000000000  0.4972160000000  0.5895020000000 1.0
C      1  0.4895360000000  0.4714840000000  0.6026870000000 1.0
C      1  0.5158990000000  0.4742310000000  0.6117660000000 1.0
C      1  0.5288450000000  0.4948620000000  0.5918710000000 1.0
C      1  0.5152180000000  0.5126370000000  0.4067100000000 1.0
C      1  0.4846370000000  0.5179610000000  0.4150910000000 1.0
C      1  0.4741010000000  0.4895540000000  0.4006770000000 1.0
C      1  0.4952270000000  0.4707330000000  0.4017090000000 1.0
C      1  0.5180270000000  0.4875880000000  0.3950590000000 1.0
C      1  0.5778480000000  0.4969660000000  0.5286940000000 1.0
C      1  0.5276840000000  0.5759250000000  0.5136890000000 1.0
C      1  0.4381560000000  0.5490860000000  0.5248390000000 1.0
C      1  0.4336210000000  0.4576860000000  0.5103130000000 1.0
C      1  0.5178650000000  0.4301980000000  0.5074310000000 1.0
C      1  0.5833810000000  0.4910670000000  0.4773900000000 1.0
C      1  0.5148140000000  0.5787930000000  0.4827200000000 1.0
C      1  0.4403290000000  0.5512080000000  0.4740300000000 1.0
C      1  0.4296930000000  0.4588180000000  0.4769250000000 1.0
C      1  0.5115870000000  0.4178900000000  0.4763600000000 1.0
C      1  0.4700750000000  0.4946980000000  0.5614940000000 1.0
C      1  0.4848140000000  0.4597420000000  0.5739250000000 1.0
C      1  0.5310820000000  0.4817440000000  0.5625660000000 1.0
C      1  0.5340150000000  0.5242310000000  0.5759260000000 1.0
C      1  0.4938700000000  0.5433070000000  0.5765550000000 1.0
C      1  0.4790890000000  0.4983650000000  0.4393440000000 1.0
C      1  0.4971840000000  0.4571640000000  0.4287680000000 1.0
C      1  0.5338840000000  0.4926360000000  0.4474160000000 1.0
C      1  0.5273490000000  0.5201070000000  0.4337060000000 1.0
C      1  0.4796190000000  0.5438060000000  0.4278720000000 1.0
C      1  0.5404250000000  0.5576800000000  0.4767770000000 1.0
C      1  0.4681000000000  0.5679620000000  0.4837670000000 1.0
C      1  0.4349580000000  0.4904600000000  0.4734970000000 1.0
C      1  0.4883150000000  0.4405640000000  0.4741240000000 1.0
C      1  0.5592710000000  0.4707330000000  0.4873740000000 1.0
C      1  0.5545010000000  0.5548010000000  0.5153160000000 1.0
C      1  0.4662870000000  0.5683650000000  0.5238170000000 1.0
C      1  0.4206300000000  0.4888810000000  0.5149120000000 1.0
C      1  0.4842610000000  0.4310960000000  0.5126390000000 1.0
C      1  0.5673830000000  0.4647090000000  0.5256580000000 1.0
C      1  0.5558030000000  0.4413810000000  0.5475180000000 1.0
C      1  0.5735820000000  0.5370910000000  0.5452950000000 1.0
C      1  0.4925440000000  0.5820060000000  0.5586030000000 1.0
C      1  0.4284310000000  0.5156100000000  0.5435110000000 1.0
C      1  0.4619230000000  0.4256150000000  0.5453120000000 1.0
C      1  0.5375430000000  0.4372670000000  0.4501870000000 1.0
C      1  0.5675720000000  0.5154710000000  0.4505770000000 1.0
C      1  0.4871980000000  0.5804670000000  0.4414430000000 1.0
C      1  0.4306030000000  0.5232400000000  0.4476470000000 1.0
C      1  0.4627500000000  0.4248520000000  0.4480640000000 1.0
C      1  0.5583770000000  0.5836780000000  0.5012780000000 1.0
C      1  0.4362400000000  0.5792820000000  0.5149100000000 1.0
C      1  0.4009540000000  0.4640390000000  0.5039700000000 1.0
C      1  0.4926530000000  0.4000960000000  0.5150150000000 1.0
C      1  0.6037670000000  0.4787070000000  0.5187930000000 1.0
C      1  0.5651810000000  0.5800620000000  0.4726470000000 1.0
C      1  0.4365900000000  0.5805030000000  0.4862580000000 1.0
C      1  0.3960360000000  0.4534400000000  0.4761170000000 1.0
C      1  0.5037070000000  0.3922400000000  0.4932340000000 1.0
C      1  0.5929420000000  0.4682950000000  0.4951030000000 1.0
C      1  0.4524530000000  0.4805400000000  0.4337320000000 1.0
C      1  0.5097500000000  0.4301810000000  0.4362820000000 1.0
C      1  0.5637480000000  0.4828820000000  0.4425780000000 1.0
C      1  0.5328600000000  0.5531410000000  0.4341800000000 1.0
C      1  0.4474940000000  0.5473410000000  0.4365670000000 1.0
C      1  0.4423600000000  0.4777710000000  0.5642530000000 1.0
C      1  0.5019770000000  0.4348030000000  0.5656990000000 1.0
C      1  0.5630310000000  0.4883210000000  0.5573030000000 1.0
C      1  0.5406190000000  0.5550810000000  0.5699120000000 1.0
C      1  0.4653580000000  0.5431710000000  0.5690830000000 1.0
C      1  0.4526600000000  0.4351590000000  0.5156070000000 1.0
C      1  0.5482670000000  0.4388590000000  0.5144890000000 1.0
C      1  0.5740630000000  0.5270260000000  0.5128200000000 1.0
C      1  0.4973140000000  0.5817590000000  0.5278210000000 1.0
C      1  0.4217320000000  0.5227940000000  0.5124340000000 1.0
C      1  0.4549820000000  0.4361040000000  0.4792070000000 1.0
C      1  0.5424810000000  0.4286830000000  0.4826540000000 1.0
C      1  0.5790710000000  0.5202000000000  0.4822470000000 1.0
C      1  0.4901680000000  0.5823150000000  0.4706040000000 1.0
C      1  0.4275590000000  0.5228640000000  0.4815160000000 1.0
C      1  0.5409890000000  0.4813310000000  0.5140140000000 1.0
C      1  0.5289540000000  0.5377930000000  0.5018860000000 1.0
C      1  0.4833520000000  0.5459670000000  0.5047460000000 1.0
C      1  0.4522060000000  0.4922790000000  0.5027600000000 1.0
C      1  0.4940480000000  0.4614560000000  0.5008130000000 1.0
C      1  0.5032240000000  0.4820720000000  0.4465820000000 1.0
C      1  0.4990880000000  0.4799710000000  0.5515700000000 1.0
END
