TITL C-3289322-3858-321 -0.00098245234091625 125000 -476.010520332908 0 0 83 (C1) n - 1
REM
REM in /nfs/bkarasulu/CARBON/AIRSS/Generating-Clusters/AIREBO/with-SteepDescent/Higher-Symm/SD-CG/HFTN-CG
REM
REM
REM
REM
REM
REM ./C.cell (b20cbc046b6831c77cfcea5457e17084)
REM
REM compiler GCC version 9.2.1 20190827 (Red Hat 9.2.1-1)
REM options -cpp -mtune=generic -march=x86-64 -g -O0 -fpre-include=/usr/include/finclude/math-vector-fortran.h
REM seed 2050972213 -1216824172 996725219 83721446 -1541303926 80527082 1012488251 -1523092506 -859368627 1061877122 1620967328 377380317 195112086 687706271 -191667547 1224669822 -1668435660 -1250660404 -874335636 -479697546 -250352239 1579260746 -2040517488 -819702099 595951704 -1985008204 -709569165 2136534832 -960036757 -527615734 545654409 -936303069 -1059104307
REM
CELL 1.54180   50.00000   50.00000   50.00000   90.00000   90.00000   90.00000
LATT -1
SFAC C  
C      1  0.4546280000000  0.4243260000000  0.5300150000000 1.0
C      1  0.4647620000000  0.5643820000000  0.5349000000000 1.0
C      1  0.4761340000000  0.5078670000000  0.4224600000000 1.0
C      1  0.5209170000000  0.4344440000000  0.4649290000000 1.0
C      1  0.5468360000000  0.5612360000000  0.4490380000000 1.0
C      1  0.5401580000000  0.5042420000000  0.5675480000000 1.0
C      1  0.4464040000000  0.4632410000000  0.4313840000000 1.0
C      1  0.4485440000000  0.4747290000000  0.5623290000000 1.0
C      1  0.4380580000000  0.5538500000000  0.4924600000000 1.0
C      1  0.5564380000000  0.4631790000000  0.5387760000000 1.0
C      1  0.5530980000000  0.4697340000000  0.4381040000000 1.0
C      1  0.5524250000000  0.5606810000000  0.5132020000000 1.0
C      1  0.5325690000000  0.5485090000000  0.4287450000000 1.0
C      1  0.5167510000000  0.4143630000000  0.4895340000000 1.0
C      1  0.5213350000000  0.5319980000000  0.5733620000000 1.0
C      1  0.4777470000000  0.5505170000000  0.5570320000000 1.0
C      1  0.4742380000000  0.4102670000000  0.5160110000000 1.0
C      1  0.4681030000000  0.5368470000000  0.4284430000000 1.0
C      1  0.4844390000000  0.5216460000000  0.4810540000000 1.0
C      1  0.4925990000000  0.4742170000000  0.4876780000000 1.0
C      1  0.4879190000000  0.5064550000000  0.5332010000000 1.0
C      1  0.5079080000000  0.5241550000000  0.5203030000000 1.0
C      1  0.5136830000000  0.4765180000000  0.5142970000000 1.0
C      1  0.5111760000000  0.5044460000000  0.4692920000000 1.0
C      1  0.4324830000000  0.5302860000000  0.4701960000000 1.0
C      1  0.4567290000000  0.4503090000000  0.4922670000000 1.0
C      1  0.4472580000000  0.5106050000000  0.5646910000000 1.0
C      1  0.5557720000000  0.5385340000000  0.5314760000000 1.0
C      1  0.5471630000000  0.4456810000000  0.5111050000000 1.0
C      1  0.5493090000000  0.5219410000000  0.4557680000000 1.0
C      1  0.4755090000000  0.5710020000000  0.4594330000000 1.0
C      1  0.4694230000000  0.4353970000000  0.4673200000000 1.0
C      1  0.4691980000000  0.5085080000000  0.5906130000000 1.0
C      1  0.5120760000000  0.5744770000000  0.5378040000000 1.0
C      1  0.5133990000000  0.4304270000000  0.5396990000000 1.0
C      1  0.5525400000000  0.5139670000000  0.4273100000000 1.0
C      1  0.5021690000000  0.5012110000000  0.4304840000000 1.0
C      1  0.4958380000000  0.4518300000000  0.5399380000000 1.0
C      1  0.4893390000000  0.5697220000000  0.5198900000000 1.0
C      1  0.5135240000000  0.4930080000000  0.5708110000000 1.0
C      1  0.4974780000000  0.4470090000000  0.4588710000000 1.0
C      1  0.4970230000000  0.5579140000000  0.4706010000000 1.0
C      1  0.4244330000000  0.5087310000000  0.4499200000000 1.0
C      1  0.4417880000000  0.4769520000000  0.4905260000000 1.0
C      1  0.4390860000000  0.5227860000000  0.5342170000000 1.0
C      1  0.5709700000000  0.5125740000000  0.5330730000000 1.0
C      1  0.5624850000000  0.4437460000000  0.4884900000000 1.0
C      1  0.5606820000000  0.5034100000000  0.4763550000000 1.0
C      1  0.4533190000000  0.5765110000000  0.4767170000000 1.0
C      1  0.4511910000000  0.4411260000000  0.4425340000000 1.0
C      1  0.4552220000000  0.4826560000000  0.5917310000000 1.0
C      1  0.5369520000000  0.5811750000000  0.5258230000000 1.0
C      1  0.5395080000000  0.4365590000000  0.5491610000000 1.0
C      1  0.5625260000000  0.4882600000000  0.4213170000000 1.0
C      1  0.4609740000000  0.4885050000000  0.5338350000000 1.0
C      1  0.4536100000000  0.5233540000000  0.4954370000000 1.0
C      1  0.4651570000000  0.4836020000000  0.4722660000000 1.0
C      1  0.5382750000000  0.4844660000000  0.4642600000000 1.0
C      1  0.5327160000000  0.5283600000000  0.5006210000000 1.0
C      1  0.5425690000000  0.4843260000000  0.5181790000000 1.0
C      1  0.5051240000000  0.5579090000000  0.5607640000000 1.0
C      1  0.5223700000000  0.5197640000000  0.4232600000000 1.0
C      1  0.5045930000000  0.4116250000000  0.5205160000000 1.0
C      1  0.4706400000000  0.5642690000000  0.4321550000000 1.0
C      1  0.4961070000000  0.5119990000000  0.5856590000000 1.0
C      1  0.4828480000000  0.4129250000000  0.4871440000000 1.0
C      1  0.5295810000000  0.5328550000000  0.5417360000000 1.0
C      1  0.5198950000000  0.5364970000000  0.4646780000000 1.0
C      1  0.5160000000000  0.4456450000000  0.5028510000000 1.0
C      1  0.4613810000000  0.5223880000000  0.4564440000000 1.0
C      1  0.4736460000000  0.5234360000000  0.5541190000000 1.0
C      1  0.4794490000000  0.4559790000000  0.5132530000000 1.0
C      1  0.5457200000000  0.4512270000000  0.4638390000000 1.0
C      1  0.5606490000000  0.4940980000000  0.5523190000000 1.0
C      1  0.5438950000000  0.5533400000000  0.4819030000000 1.0
C      1  0.4561680000000  0.4549810000000  0.5380120000000 1.0
C      1  0.4537170000000  0.4921260000000  0.4429550000000 1.0
C      1  0.4432100000000  0.5494600000000  0.5238600000000 1.0
C      1  0.5003040000000  0.4773710000000  0.4546700000000 1.0
C      1  0.5023930000000  0.4814190000000  0.5459980000000 1.0
C      1  0.4951580000000  0.5472010000000  0.5008240000000 1.0
C      1  0.4420550000000  0.4988700000000  0.5116480000000 1.0
C      1  0.5554020000000  0.5085450000000  0.5050290000000 1.0
END
