TITL C-3289330-4660-425 -0.00103209914267023 125000 -362.377375210715 0 0 66 (C1) n - 1
REM
REM in /nfs/bkarasulu/CARBON/AIRSS/Generating-Clusters/AIREBO/with-SteepDescent/Higher-Symm/SD-CG/HFTN-CG
REM
REM
REM
REM
REM
REM ./C.cell (b20cbc046b6831c77cfcea5457e17084)
REM
REM compiler GCC version 9.2.1 20190827 (Red Hat 9.2.1-1)
REM options -cpp -mtune=generic -march=x86-64 -g -O0 -fpre-include=/usr/include/finclude/math-vector-fortran.h
REM seed 2088865076 -492438475 -571418408 1637080930 1456858554 1697996530 -1021115235 -1910458478 -1045789985 -552612904 -1535417636 459582116 -531322318 -598622834 1024194558 -2004640788 -1504417915 -1382081342 -67943191 -55524427 148183026 2143504119 396766491 -954462237 -296406272 -1216736854 559949784 -1024762336 626284122 -1362652245 -1809798483 -1541960568 81893441
REM
CELL 1.54180   50.00000   50.00000   50.00000   90.00000   90.00000   90.00000
LATT -1
SFAC C  
C      1  0.4887540000000  0.5259730000000  0.4788970000000 1.0
C      1  0.5140340000000  0.5250700000000  0.5241120000000 1.0
C      1  0.5215550000000  0.5209120000000  0.4778490000000 1.0
C      1  0.4819750000000  0.5235640000000  0.5208990000000 1.0
C      1  0.4296170000000  0.5072550000000  0.5063990000000 1.0
C      1  0.5748290000000  0.5099180000000  0.4822850000000 1.0
C      1  0.5652080000000  0.5002760000000  0.5119910000000 1.0
C      1  0.4248370000000  0.5131250000000  0.4767970000000 1.0
C      1  0.4916680000000  0.4667740000000  0.5793460000000 1.0
C      1  0.5006790000000  0.4595040000000  0.4252500000000 1.0
C      1  0.5184510000000  0.4716530000000  0.5751260000000 1.0
C      1  0.4763040000000  0.4667770000000  0.4373350000000 1.0
C      1  0.4760110000000  0.5480690000000  0.4564160000000 1.0
C      1  0.5248940000000  0.5490910000000  0.5456770000000 1.0
C      1  0.5285560000000  0.5520410000000  0.4660820000000 1.0
C      1  0.4729480000000  0.5481200000000  0.5426250000000 1.0
C      1  0.5757950000000  0.4985540000000  0.5417230000000 1.0
C      1  0.4297690000000  0.4893810000000  0.4599040000000 1.0
C      1  0.4267700000000  0.4953450000000  0.5371640000000 1.0
C      1  0.5642620000000  0.4953850000000  0.4599910000000 1.0
C      1  0.5150330000000  0.5647220000000  0.5193890000000 1.0
C      1  0.4822160000000  0.5649370000000  0.4837580000000 1.0
C      1  0.4842150000000  0.5632200000000  0.5167410000000 1.0
C      1  0.5120620000000  0.5656040000000  0.4886490000000 1.0
C      1  0.5255130000000  0.4617710000000  0.5482840000000 1.0
C      1  0.4785910000000  0.4502920000000  0.4668150000000 1.0
C      1  0.4751230000000  0.4739080000000  0.5528650000000 1.0
C      1  0.5209550000000  0.4579080000000  0.4462370000000 1.0
C      1  0.4736330000000  0.4979870000000  0.4435720000000 1.0
C      1  0.5298990000000  0.4996210000000  0.5600260000000 1.0
C      1  0.5244530000000  0.5000630000000  0.4284280000000 1.0
C      1  0.4659220000000  0.5025640000000  0.5614280000000 1.0
C      1  0.5452970000000  0.4725550000000  0.4743100000000 1.0
C      1  0.4490930000000  0.4822420000000  0.5161040000000 1.0
C      1  0.4491650000000  0.4753100000000  0.4766520000000 1.0
C      1  0.5453880000000  0.4766690000000  0.5049470000000 1.0
C      1  0.4489590000000  0.5314380000000  0.5158660000000 1.0
C      1  0.5520150000000  0.5307190000000  0.4898930000000 1.0
C      1  0.5477390000000  0.5281350000000  0.5208290000000 1.0
C      1  0.4551260000000  0.5283220000000  0.4839310000000 1.0
C      1  0.5263690000000  0.4949120000000  0.5265310000000 1.0
C      1  0.4766340000000  0.4945510000000  0.4772760000000 1.0
C      1  0.4793690000000  0.4924350000000  0.5111060000000 1.0
C      1  0.5243750000000  0.4944400000000  0.4619620000000 1.0
C      1  0.5117260000000  0.5248330000000  0.5639330000000 1.0
C      1  0.4931730000000  0.5241710000000  0.4392980000000 1.0
C      1  0.4842980000000  0.5234260000000  0.5607450000000 1.0
C      1  0.5252990000000  0.5320690000000  0.4398750000000 1.0
C      1  0.4896460000000  0.4269570000000  0.4839220000000 1.0
C      1  0.5177600000000  0.4337790000000  0.5109050000000 1.0
C      1  0.5224180000000  0.4253050000000  0.4817820000000 1.0
C      1  0.4871140000000  0.4340730000000  0.5147570000000 1.0
C      1  0.5338140000000  0.4528360000000  0.5224180000000 1.0
C      1  0.4576190000000  0.4509200000000  0.4930430000000 1.0
C      1  0.4658920000000  0.4553700000000  0.5257300000000 1.0
C      1  0.5375810000000  0.4425050000000  0.4652290000000 1.0
C      1  0.5562340000000  0.5411200000000  0.5509470000000 1.0
C      1  0.4458210000000  0.5358680000000  0.4521060000000 1.0
C      1  0.4412940000000  0.5401330000000  0.5471060000000 1.0
C      1  0.5597930000000  0.5591670000000  0.4730000000000 1.0
C      1  0.4444030000000  0.5083830000000  0.4411410000000 1.0
C      1  0.5587640000000  0.5118580000000  0.5586930000000 1.0
C      1  0.5528330000000  0.5110730000000  0.4395740000000 1.0
C      1  0.4396530000000  0.5115560000000  0.5562400000000 1.0
C      1  0.5000970000000  0.4755020000000  0.5303010000000 1.0
C      1  0.5007090000000  0.4746890000000  0.4677910000000 1.0
END
