TITL C-3289322-3858-4 0.00133895982489351 125000 -550.229363054145 0 0 101 (C1) n - 1
REM
REM in /nfs/bkarasulu/CARBON/AIRSS/Generating-Clusters/AIREBO/with-SteepDescent/Higher-Symm/SD-CG/HFTN-CG
REM
REM
REM
REM
REM
REM ./C.cell (b20cbc046b6831c77cfcea5457e17084)
REM
REM compiler GCC version 9.2.1 20190827 (Red Hat 9.2.1-1)
REM options -cpp -mtune=generic -march=x86-64 -g -O0 -fpre-include=/usr/include/finclude/math-vector-fortran.h
REM seed -1676382347 80402677 -955558417 -1402811681 827817148 1056339288 1281722792 1523499157 -144372602 239705561 -984283510 523726550 1294113746 -992891973 -325026198 812733154 -1347878835 -1847359421 1649839935 2080527424 -1600979798 11083190 696042911 -1487286736 1492703970 -890177848 64465360 -2082398712 -991767375 -1953089513 -269241294 2045679864 832942690
REM
CELL 1.54180   50.00000   50.00000   50.00000   90.00000   90.00000   90.00000
LATT -1
SFAC C  
C      1  0.5294920000000  0.3917620000000  0.5024750000000 1.0
C      1  0.6124660000000  0.5343070000000  0.4610450000000 1.0
C      1  0.4994900000000  0.4771810000000  0.4432010000000 1.0
C      1  0.5272690000000  0.5026160000000  0.5585650000000 1.0
C      1  0.4805370000000  0.5449580000000  0.4839870000000 1.0
C      1  0.4261820000000  0.4456170000000  0.5138250000000 1.0
C      1  0.4325560000000  0.5439060000000  0.5155380000000 1.0
C      1  0.4315620000000  0.4517710000000  0.4833920000000 1.0
C      1  0.5184370000000  0.5363190000000  0.4925320000000 1.0
C      1  0.5599390000000  0.5633930000000  0.4964620000000 1.0
C      1  0.5538370000000  0.5047860000000  0.5155440000000 1.0
C      1  0.5525280000000  0.5627610000000  0.5536080000000 1.0
C      1  0.5622680000000  0.4941120000000  0.4465840000000 1.0
C      1  0.4589790000000  0.4529690000000  0.5370990000000 1.0
C      1  0.5353260000000  0.5742660000000  0.5089570000000 1.0
C      1  0.4467640000000  0.5100790000000  0.5312720000000 1.0
C      1  0.4955960000000  0.4249010000000  0.4845840000000 1.0
C      1  0.4436190000000  0.4877760000000  0.5793890000000 1.0
C      1  0.4093580000000  0.4996360000000  0.4933330000000 1.0
C      1  0.4166270000000  0.5179240000000  0.5176080000000 1.0
C      1  0.4367450000000  0.5137140000000  0.4789030000000 1.0
C      1  0.5463670000000  0.5262760000000  0.4906840000000 1.0
C      1  0.4835480000000  0.4549520000000  0.4923490000000 1.0
C      1  0.5083340000000  0.4934130000000  0.5857680000000 1.0
C      1  0.5343650000000  0.4905790000000  0.4749930000000 1.0
C      1  0.4244190000000  0.4760760000000  0.4739910000000 1.0
C      1  0.4983970000000  0.4508500000000  0.5710110000000 1.0
C      1  0.4810800000000  0.5783710000000  0.4902610000000 1.0
C      1  0.4329990000000  0.4727530000000  0.5276150000000 1.0
C      1  0.4313360000000  0.4902230000000  0.5541670000000 1.0
C      1  0.5542720000000  0.5580940000000  0.4680430000000 1.0
C      1  0.5036470000000  0.5082660000000  0.4300100000000 1.0
C      1  0.5197650000000  0.4509440000000  0.5523330000000 1.0
C      1  0.5468680000000  0.4421510000000  0.4830090000000 1.0
C      1  0.4669010000000  0.4595280000000  0.4646900000000 1.0
C      1  0.5841370000000  0.4757770000000  0.4922230000000 1.0
C      1  0.5015720000000  0.5266270000000  0.4654810000000 1.0
C      1  0.5268750000000  0.5110440000000  0.4546990000000 1.0
C      1  0.4809580000000  0.5877170000000  0.5201340000000 1.0
C      1  0.5156070000000  0.5327530000000  0.5691980000000 1.0
C      1  0.4160820000000  0.5186150000000  0.4523450000000 1.0
C      1  0.4419580000000  0.4216920000000  0.4953580000000 1.0
C      1  0.4934350000000  0.4923130000000  0.4017700000000 1.0
C      1  0.4924050000000  0.5058480000000  0.4978970000000 1.0
C      1  0.5597270000000  0.4684440000000  0.5311500000000 1.0
C      1  0.4699750000000  0.4787360000000  0.4119580000000 1.0
C      1  0.5135890000000  0.4408350000000  0.5249500000000 1.0
C      1  0.5047470000000  0.4676960000000  0.5930280000000 1.0
C      1  0.4592430000000  0.5477210000000  0.5345450000000 1.0
C      1  0.4678130000000  0.5262240000000  0.5096300000000 1.0
C      1  0.5466020000000  0.5250610000000  0.5418620000000 1.0
C      1  0.4572640000000  0.5119780000000  0.5864090000000 1.0
C      1  0.4508040000000  0.4973390000000  0.4276280000000 1.0
C      1  0.5900200000000  0.5241350000000  0.4679630000000 1.0
C      1  0.5645140000000  0.5487960000000  0.5250070000000 1.0
C      1  0.5468630000000  0.5358740000000  0.4278540000000 1.0
C      1  0.4671790000000  0.4344580000000  0.5136390000000 1.0
C      1  0.5277950000000  0.5680110000000  0.4622440000000 1.0
C      1  0.4704140000000  0.4498740000000  0.5651460000000 1.0
C      1  0.4527280000000  0.4901300000000  0.4603220000000 1.0
C      1  0.5190370000000  0.5383970000000  0.4265910000000 1.0
C      1  0.4912780000000  0.4177150000000  0.5233980000000 1.0
C      1  0.4396270000000  0.5459880000000  0.4879560000000 1.0
C      1  0.4617070000000  0.5261780000000  0.5572270000000 1.0
C      1  0.4221260000000  0.5087210000000  0.4298480000000 1.0
C      1  0.5528970000000  0.4699020000000  0.4663670000000 1.0
C      1  0.4659910000000  0.4271540000000  0.4415390000000 1.0
C      1  0.5061900000000  0.5274770000000  0.5202230000000 1.0
C      1  0.5309400000000  0.5680920000000  0.5349620000000 1.0
C      1  0.5651660000000  0.4590710000000  0.5040280000000 1.0
C      1  0.5027540000000  0.4986590000000  0.5356480000000 1.0
C      1  0.5327880000000  0.4388610000000  0.4522040000000 1.0
C      1  0.4876040000000  0.5052730000000  0.5617250000000 1.0
C      1  0.5242410000000  0.4943630000000  0.5024070000000 1.0
C      1  0.4711270000000  0.4791550000000  0.5218070000000 1.0
C      1  0.5930630000000  0.5096510000000  0.5489270000000 1.0
C      1  0.4650420000000  0.4262260000000  0.4719140000000 1.0
C      1  0.5788390000000  0.4909830000000  0.5340160000000 1.0
C      1  0.4657890000000  0.5458990000000  0.4343920000000 1.0
C      1  0.5421020000000  0.5503940000000  0.5759200000000 1.0
C      1  0.4718030000000  0.5202030000000  0.4294140000000 1.0
C      1  0.5772960000000  0.5067250000000  0.4909840000000 1.0
C      1  0.5253290000000  0.4604630000000  0.4367640000000 1.0
C      1  0.5783540000000  0.5325280000000  0.5514610000000 1.0
C      1  0.4822980000000  0.5588290000000  0.4529520000000 1.0
C      1  0.4999380000000  0.3968470000000  0.5033290000000 1.0
C      1  0.4876120000000  0.5270880000000  0.5876500000000 1.0
C      1  0.5269760000000  0.4254340000000  0.4983390000000 1.0
C      1  0.4761690000000  0.4561980000000  0.4321420000000 1.0
C      1  0.5573860000000  0.5255880000000  0.4585200000000 1.0
C      1  0.5120930000000  0.5692220000000  0.4889210000000 1.0
C      1  0.4473550000000  0.4917950000000  0.5026610000000 1.0
C      1  0.4814100000000  0.5669460000000  0.5383100000000 1.0
C      1  0.4852970000000  0.4982130000000  0.4658340000000 1.0
C      1  0.4500270000000  0.5698620000000  0.4793290000000 1.0
C      1  0.5094990000000  0.5594190000000  0.4430730000000 1.0
C      1  0.4530920000000  0.4614740000000  0.5847550000000 1.0
C      1  0.5467340000000  0.4768080000000  0.4274770000000 1.0
C      1  0.5025700000000  0.4714880000000  0.5151840000000 1.0
C      1  0.5392170000000  0.4714810000000  0.5511780000000 1.0
C      1  0.5070560000000  0.5503050000000  0.5413560000000 1.0
END
