TITL C-3289330-4660-35 -0.00152401540770288 125000 -476.811596985623 0 0 85 (C1) n - 1
REM
REM in /nfs/bkarasulu/CARBON/AIRSS/Generating-Clusters/AIREBO/with-SteepDescent/Higher-Symm/SD-CG/HFTN-CG
REM
REM
REM
REM
REM
REM ./C.cell (b20cbc046b6831c77cfcea5457e17084)
REM
REM compiler GCC version 9.2.1 20190827 (Red Hat 9.2.1-1)
REM options -cpp -mtune=generic -march=x86-64 -g -O0 -fpre-include=/usr/include/finclude/math-vector-fortran.h
REM seed 780014628 622445806 -690975408 -1416368373 1228772406 -104092605 1121962147 -1001859867 617702924 -1013822560 882495840 2124417649 -2047860239 1886723730 1333417198 1378251091 201267099 1386190189 -1702929119 1042925418 1193445104 2060934078 70038686 -1033490210 -277987159 561844345 -1633949452 1588843114 2067523680 -1116119827 1916582112 479183850 1178954091
REM
CELL 1.54180   50.00000   50.00000   50.00000   90.00000   90.00000   90.00000
LATT -1
SFAC C  
C      1  0.4536040000000  0.5488700000000  0.5821300000000 1.0
C      1  0.4551080000000  0.5800530000000  0.4859410000000 1.0
C      1  0.4521010000000  0.5112990000000  0.4173800000000 1.0
C      1  0.4504210000000  0.4259510000000  0.4572280000000 1.0
C      1  0.4565720000000  0.4433780000000  0.5557460000000 1.0
C      1  0.4566770000000  0.4644360000000  0.5696160000000 1.0
C      1  0.4551760000000  0.4090690000000  0.4786990000000 1.0
C      1  0.4549950000000  0.4842750000000  0.4213430000000 1.0
C      1  0.4498570000000  0.5644850000000  0.4635410000000 1.0
C      1  0.4549160000000  0.5698930000000  0.5641100000000 1.0
C      1  0.4692270000000  0.4918830000000  0.5590670000000 1.0
C      1  0.4644210000000  0.5440640000000  0.5440320000000 1.0
C      1  0.4671910000000  0.5367030000000  0.4636020000000 1.0
C      1  0.4666050000000  0.4773490000000  0.4490590000000 1.0
C      1  0.4640990000000  0.4389020000000  0.4923540000000 1.0
C      1  0.4668330000000  0.5223270000000  0.5700670000000 1.0
C      1  0.4684580000000  0.4438480000000  0.5257220000000 1.0
C      1  0.4518000000000  0.4572000000000  0.4661640000000 1.0
C      1  0.4548370000000  0.5119270000000  0.4501240000000 1.0
C      1  0.4763100000000  0.5540490000000  0.4914650000000 1.0
C      1  0.4433330000000  0.5348380000000  0.5253890000000 1.0
C      1  0.4269870000000  0.5363950000000  0.4804850000000 1.0
C      1  0.4144390000000  0.4897370000000  0.4666980000000 1.0
C      1  0.4238650000000  0.4606370000000  0.5054530000000 1.0
C      1  0.4458510000000  0.4873980000000  0.5387060000000 1.0
C      1  0.4437160000000  0.4646770000000  0.5245030000000 1.0
C      1  0.4260570000000  0.4674650000000  0.4785410000000 1.0
C      1  0.4282730000000  0.5136850000000  0.4643050000000 1.0
C      1  0.4455890000000  0.5438330000000  0.4998920000000 1.0
C      1  0.4315910000000  0.5106940000000  0.5327620000000 1.0
C      1  0.5601960000000  0.4864640000000  0.4569600000000 1.0
C      1  0.5533140000000  0.4541520000000  0.5037490000000 1.0
C      1  0.5360990000000  0.4895010000000  0.5445650000000 1.0
C      1  0.5549400000000  0.5353990000000  0.5252670000000 1.0
C      1  0.5563160000000  0.5420380000000  0.4739630000000 1.0
C      1  0.5520620000000  0.5153710000000  0.4597590000000 1.0
C      1  0.5416420000000  0.5472880000000  0.4999750000000 1.0
C      1  0.5546660000000  0.5140740000000  0.5417050000000 1.0
C      1  0.5323230000000  0.4651100000000  0.5252680000000 1.0
C      1  0.5498980000000  0.4643470000000  0.4757470000000 1.0
C      1  0.5021660000000  0.4495060000000  0.5273880000000 1.0
C      1  0.4971660000000  0.5157910000000  0.5741980000000 1.0
C      1  0.5083590000000  0.5550190000000  0.5028670000000 1.0
C      1  0.5204480000000  0.5186110000000  0.4524050000000 1.0
C      1  0.5181270000000  0.4569110000000  0.4675400000000 1.0
C      1  0.4916840000000  0.5443510000000  0.5305270000000 1.0
C      1  0.5031810000000  0.4898060000000  0.5531110000000 1.0
C      1  0.4947200000000  0.4423070000000  0.4963180000000 1.0
C      1  0.4966860000000  0.4755850000000  0.4488840000000 1.0
C      1  0.4983720000000  0.5421240000000  0.4604210000000 1.0
C      1  0.5099150000000  0.5692650000000  0.4583210000000 1.0
C      1  0.5124710000000  0.4827550000000  0.4233270000000 1.0
C      1  0.5127630000000  0.4209600000000  0.4870590000000 1.0
C      1  0.5092050000000  0.4632290000000  0.5734440000000 1.0
C      1  0.5116420000000  0.5553040000000  0.5513940000000 1.0
C      1  0.5169560000000  0.4246110000000  0.4578380000000 1.0
C      1  0.5161190000000  0.5114650000000  0.4213190000000 1.0
C      1  0.5081900000000  0.5826150000000  0.4840660000000 1.0
C      1  0.5156620000000  0.5382090000000  0.5736440000000 1.0
C      1  0.5071070000000  0.4400950000000  0.5578980000000 1.0
C      1  0.5550840000000  0.5628540000000  0.5369890000000 1.0
C      1  0.5563510000000  0.5632840000000  0.4561670000000 1.0
C      1  0.5595690000000  0.4781200000000  0.4303640000000 1.0
C      1  0.5560430000000  0.4266320000000  0.5049040000000 1.0
C      1  0.5482620000000  0.4704660000000  0.5699790000000 1.0
C      1  0.5428900000000  0.4380950000000  0.5407850000000 1.0
C      1  0.5541170000000  0.4387080000000  0.4556840000000 1.0
C      1  0.5530060000000  0.5246680000000  0.4282960000000 1.0
C      1  0.5433310000000  0.5793150000000  0.5025440000000 1.0
C      1  0.5604140000000  0.5202010000000  0.5693070000000 1.0
C      1  0.5296720000000  0.5429200000000  0.4220720000000 1.0
C      1  0.5330920000000  0.4393990000000  0.4338150000000 1.0
C      1  0.5209170000000  0.4158890000000  0.5381740000000 1.0
C      1  0.5358900000000  0.5176030000000  0.5838100000000 1.0
C      1  0.5182190000000  0.5916470000000  0.5152790000000 1.0
C      1  0.5351140000000  0.4655330000000  0.4213450000000 1.0
C      1  0.5320690000000  0.5659280000000  0.4406990000000 1.0
C      1  0.5289000000000  0.5741820000000  0.5395470000000 1.0
C      1  0.5273370000000  0.4896860000000  0.5849610000000 1.0
C      1  0.5306710000000  0.4134220000000  0.5081740000000 1.0
C      1  0.5057510000000  0.4733750000000  0.4956420000000 1.0
C      1  0.4976470000000  0.5210160000000  0.4847210000000 1.0
C      1  0.5074520000000  0.4948120000000  0.4715990000000 1.0
C      1  0.4952440000000  0.5185070000000  0.5118470000000 1.0
C      1  0.4986880000000  0.4921580000000  0.5202430000000 1.0
END
