TITL C-3289325-7307-285 0.000931890190782129 125000 -952.816159560111 0 0 178 (C1) n - 1
REM
REM in /nfs/bkarasulu/CARBON/AIRSS/Generating-Clusters/AIREBO/with-SteepDescent/Higher-Symm/SD-CG/HFTN-CG
REM
REM
REM
REM
REM
REM ./C.cell (b20cbc046b6831c77cfcea5457e17084)
REM
REM compiler GCC version 9.2.1 20190827 (Red Hat 9.2.1-1)
REM options -cpp -mtune=generic -march=x86-64 -g -O0 -fpre-include=/usr/include/finclude/math-vector-fortran.h
REM seed -1613839013 1387754785 518736659 -1520249181 267299883 -150559132 1952978348 -503737260 114185820 739600915 -1665210119 1999416141 -1463862883 471415308 -152289345 672398146 -1117456855 -1495868921 -298136584 -771373451 1113125294 1579636280 1727757858 -1576569947 -1647811653 277768159 -1470191730 -484798222 -1737016924 976082681 -1999987987 -1960018482 -991691483
REM
CELL 1.54180   50.00000   50.00000   50.00000   90.00000   90.00000   90.00000
LATT -1
SFAC C  
C      1  0.3933390000000  0.5213880000000  0.4734580000000 1.0
C      1  0.5327070000000  0.3926890000000  0.4802020000000 1.0
C      1  0.5734220000000  0.5754060000000  0.4726830000000 1.0
C      1  0.4714290000000  0.4582710000000  0.4033630000000 1.0
C      1  0.5556560000000  0.5035370000000  0.4009080000000 1.0
C      1  0.4784030000000  0.5431420000000  0.4068870000000 1.0
C      1  0.4550150000000  0.5192010000000  0.4009000000000 1.0
C      1  0.5030030000000  0.4638920000000  0.3987510000000 1.0
C      1  0.5425290000000  0.5312430000000  0.3937780000000 1.0
C      1  0.5309640000000  0.5518750000000  0.4786320000000 1.0
C      1  0.4395330000000  0.5024670000000  0.4737590000000 1.0
C      1  0.5245540000000  0.4447230000000  0.4876270000000 1.0
C      1  0.5115450000000  0.4201850000000  0.5072490000000 1.0
C      1  0.5652410000000  0.5515880000000  0.5112460000000 1.0
C      1  0.4293580000000  0.5284950000000  0.5102500000000 1.0
C      1  0.5013040000000  0.5922750000000  0.4640100000000 1.0
C      1  0.4184240000000  0.4543310000000  0.4616480000000 1.0
C      1  0.5707190000000  0.4478970000000  0.4654650000000 1.0
C      1  0.4400440000000  0.4440490000000  0.5567370000000 1.0
C      1  0.5886980000000  0.4639130000000  0.5677990000000 1.0
C      1  0.4858620000000  0.5865370000000  0.5677490000000 1.0
C      1  0.5653140000000  0.5547890000000  0.3996660000000 1.0
C      1  0.4451680000000  0.5500000000000  0.4091930000000 1.0
C      1  0.4940010000000  0.4330070000000  0.4093090000000 1.0
C      1  0.4076990000000  0.4313260000000  0.5081010000000 1.0
C      1  0.6046700000000  0.4497950000000  0.5103120000000 1.0
C      1  0.4931100000000  0.6195820000000  0.5080400000000 1.0
C      1  0.5129570000000  0.4842670000000  0.4207790000000 1.0
C      1  0.5208400000000  0.5167480000000  0.4149310000000 1.0
C      1  0.4752720000000  0.5076590000000  0.4257730000000 1.0
C      1  0.4673330000000  0.4698930000000  0.5700680000000 1.0
C      1  0.5447090000000  0.4828350000000  0.5721110000000 1.0
C      1  0.4821870000000  0.5433090000000  0.5677250000000 1.0
C      1  0.4174700000000  0.4572950000000  0.4303980000000 1.0
C      1  0.5589290000000  0.4492680000000  0.4335480000000 1.0
C      1  0.5027870000000  0.5906540000000  0.4339720000000 1.0
C      1  0.5209380000000  0.4168670000000  0.5908130000000 1.0
C      1  0.5569020000000  0.5605110000000  0.5860950000000 1.0
C      1  0.4171380000000  0.5223360000000  0.5850040000000 1.0
C      1  0.5393390000000  0.4597860000000  0.5932640000000 1.0
C      1  0.5110780000000  0.5533470000000  0.5816030000000 1.0
C      1  0.4465580000000  0.4861540000000  0.5883340000000 1.0
C      1  0.5790520000000  0.4482060000000  0.5425970000000 1.0
C      1  0.5076710000000  0.5956000000000  0.5365540000000 1.0
C      1  0.4191780000000  0.4559510000000  0.5371530000000 1.0
C      1  0.4580420000000  0.4753670000000  0.5392900000000 1.0
C      1  0.5434940000000  0.4728710000000  0.5430360000000 1.0
C      1  0.5037050000000  0.5504330000000  0.5423500000000 1.0
C      1  0.5032140000000  0.4792380000000  0.5135970000000 1.0
C      1  0.5061340000000  0.5083270000000  0.5185820000000 1.0
C      1  0.4776180000000  0.5204190000000  0.5148680000000 1.0
C      1  0.4719750000000  0.5518720000000  0.5302070000000 1.0
C      1  0.4787890000000  0.4570870000000  0.5219640000000 1.0
C      1  0.5664490000000  0.4962780000000  0.5379810000000 1.0
C      1  0.4825140000000  0.4434440000000  0.5855620000000 1.0
C      1  0.5528790000000  0.5106860000000  0.5812420000000 1.0
C      1  0.4551680000000  0.5468680000000  0.5873660000000 1.0
C      1  0.5572620000000  0.4382690000000  0.4943340000000 1.0
C      1  0.5206900000000  0.5808210000000  0.4895730000000 1.0
C      1  0.4231260000000  0.4760120000000  0.4875930000000 1.0
C      1  0.4808280000000  0.5017120000000  0.4588120000000 1.0
C      1  0.5087290000000  0.4826710000000  0.4547600000000 1.0
C      1  0.5100770000000  0.5153850000000  0.4455840000000 1.0
C      1  0.3995970000000  0.4563350000000  0.5023010000000 1.0
C      1  0.5872600000000  0.4297510000000  0.5081480000000 1.0
C      1  0.5186030000000  0.6123980000000  0.5020400000000 1.0
C      1  0.5472620000000  0.4250680000000  0.5486620000000 1.0
C      1  0.5415640000000  0.5751150000000  0.5394650000000 1.0
C      1  0.4211610000000  0.4956680000000  0.5386620000000 1.0
C      1  0.5116210000000  0.5349990000000  0.5002580000000 1.0
C      1  0.4686030000000  0.4980780000000  0.4908500000000 1.0
C      1  0.5181210000000  0.4765520000000  0.4872540000000 1.0
C      1  0.5084540000000  0.5462430000000  0.4164940000000 1.0
C      1  0.4563230000000  0.4824060000000  0.4155300000000 1.0
C      1  0.5397270000000  0.4790050000000  0.4023800000000 1.0
C      1  0.5426440000000  0.3894760000000  0.5057720000000 1.0
C      1  0.5724010000000  0.5882270000000  0.4971050000000 1.0
C      1  0.3872560000000  0.5138330000000  0.5001350000000 1.0
C      1  0.4272760000000  0.4745570000000  0.5646450000000 1.0
C      1  0.5603510000000  0.4454670000000  0.5712900000000 1.0
C      1  0.5190680000000  0.5799500000000  0.5645050000000 1.0
C      1  0.5062280000000  0.3936890000000  0.4612590000000 1.0
C      1  0.5872980000000  0.5521330000000  0.4574950000000 1.0
C      1  0.4006070000000  0.5514630000000  0.4671540000000 1.0
C      1  0.4078010000000  0.5061290000000  0.4468980000000 1.0
C      1  0.5409330000000  0.4129600000000  0.4585380000000 1.0
C      1  0.5538420000000  0.5715700000000  0.4483960000000 1.0
C      1  0.4690760000000  0.4501900000000  0.4354300000000 1.0
C      1  0.5557820000000  0.4985710000000  0.4331740000000 1.0
C      1  0.4721850000000  0.5515310000000  0.4380660000000 1.0
C      1  0.6016950000000  0.4736190000000  0.4978490000000 1.0
C      1  0.4718300000000  0.6037910000000  0.5011340000000 1.0
C      1  0.4305120000000  0.4210070000000  0.4975070000000 1.0
C      1  0.4451590000000  0.5308860000000  0.4377260000000 1.0
C      1  0.5016880000000  0.4416660000000  0.4405310000000 1.0
C      1  0.5506980000000  0.5284740000000  0.4400480000000 1.0
C      1  0.4030890000000  0.4889500000000  0.5118440000000 1.0
C      1  0.5587440000000  0.4143760000000  0.5184930000000 1.0
C      1  0.5444230000000  0.5917450000000  0.5113560000000 1.0
C      1  0.5678160000000  0.5680720000000  0.5565050000000 1.0
C      1  0.4108550000000  0.5234500000000  0.5539350000000 1.0
C      1  0.5232360000000  0.4082480000000  0.5632390000000 1.0
C      1  0.5927120000000  0.5273260000000  0.4691140000000 1.0
C      1  0.4192420000000  0.5701840000000  0.4815920000000 1.0
C      1  0.4818030000000  0.4042320000000  0.4709300000000 1.0
C      1  0.5631580000000  0.4615960000000  0.5183650000000 1.0
C      1  0.5030500000000  0.5733110000000  0.5171240000000 1.0
C      1  0.4399960000000  0.4621520000000  0.5136700000000 1.0
C      1  0.5236340000000  0.5267300000000  0.5372870000000 1.0
C      1  0.4599510000000  0.5053600000000  0.5397100000000 1.0
C      1  0.5150570000000  0.4633940000000  0.5373210000000 1.0
C      1  0.4126490000000  0.5377850000000  0.4429590000000 1.0
C      1  0.5165550000000  0.4126920000000  0.4386630000000 1.0
C      1  0.5724380000000  0.5514350000000  0.4282870000000 1.0
C      1  0.4429170000000  0.5015550000000  0.5131800000000 1.0
C      1  0.5280780000000  0.4381460000000  0.5276230000000 1.0
C      1  0.5358370000000  0.5506510000000  0.5182780000000 1.0
C      1  0.5356010000000  0.5647900000000  0.3942590000000 1.0
C      1  0.4303650000000  0.4995180000000  0.3913380000000 1.0
C      1  0.5240840000000  0.4365770000000  0.3947760000000 1.0
C      1  0.4789420000000  0.5212450000000  0.6086770000000 1.0
C      1  0.4908590000000  0.4730450000000  0.6109870000000 1.0
C      1  0.5252390000000  0.5076070000000  0.6097880000000 1.0
C      1  0.5263030000000  0.5516510000000  0.4449530000000 1.0
C      1  0.4404080000000  0.4974280000000  0.4415890000000 1.0
C      1  0.5323990000000  0.4457920000000  0.4545500000000 1.0
C      1  0.5801100000000  0.4754150000000  0.4384750000000 1.0
C      1  0.4699600000000  0.5840740000000  0.4406740000000 1.0
C      1  0.4400500000000  0.4324990000000  0.4362340000000 1.0
C      1  0.4866160000000  0.5444220000000  0.4842830000000 1.0
C      1  0.4699520000000  0.4648190000000  0.4838780000000 1.0
C      1  0.5456940000000  0.4928320000000  0.4857600000000 1.0
C      1  0.4030630000000  0.5276860000000  0.5215200000000 1.0
C      1  0.5240240000000  0.3984880000000  0.5302700000000 1.0
C      1  0.5788480000000  0.5751430000000  0.5251000000000 1.0
C      1  0.5423780000000  0.4783090000000  0.4555050000000 1.0
C      1  0.4951810000000  0.5421850000000  0.4549200000000 1.0
C      1  0.4622860000000  0.4745250000000  0.4540510000000 1.0
C      1  0.5899580000000  0.4740230000000  0.4699160000000 1.0
C      1  0.4705300000000  0.5949800000000  0.4719990000000 1.0
C      1  0.4351380000000  0.4279230000000  0.4687230000000 1.0
C      1  0.4269260000000  0.5508570000000  0.5436210000000 1.0
C      1  0.4953520000000  0.3971730000000  0.5472380000000 1.0
C      1  0.5822540000000  0.5412890000000  0.5459480000000 1.0
C      1  0.4240570000000  0.4767240000000  0.4117320000000 1.0
C      1  0.5470380000000  0.4518310000000  0.4055290000000 1.0
C      1  0.5179780000000  0.5777040000000  0.4152870000000 1.0
C      1  0.4636580000000  0.4688730000000  0.6098780000000 1.0
C      1  0.5429290000000  0.4866720000000  0.6118300000000 1.0
C      1  0.4901310000000  0.5462260000000  0.6066590000000 1.0
C      1  0.4450860000000  0.5530570000000  0.4953720000000 1.0
C      1  0.4818560000000  0.4123030000000  0.5000470000000 1.0
C      1  0.5801280000000  0.5243810000000  0.4974160000000 1.0
C      1  0.4449280000000  0.5761790000000  0.4627500000000 1.0
C      1  0.4630490000000  0.4163430000000  0.4556360000000 1.0
C      1  0.5877530000000  0.5040830000000  0.4554230000000 1.0
C      1  0.5992920000000  0.5346180000000  0.5235720000000 1.0
C      1  0.4221580000000  0.5672880000000  0.5160690000000 1.0
C      1  0.4783730000000  0.3911250000000  0.5238420000000 1.0
C      1  0.4862690000000  0.4228530000000  0.5606470000000 1.0
C      1  0.5794320000000  0.5186690000000  0.5683880000000 1.0
C      1  0.4424940000000  0.5661220000000  0.5676550000000 1.0
C      1  0.4730250000000  0.5698160000000  0.5028110000000 1.0
C      1  0.4600100000000  0.4374690000000  0.5014970000000 1.0
C      1  0.5736200000000  0.4913800000000  0.5051080000000 1.0
C      1  0.4546830000000  0.5323570000000  0.5505170000000 1.0
C      1  0.4962000000000  0.4566760000000  0.5578990000000 1.0
C      1  0.5534270000000  0.5241730000000  0.5439390000000 1.0
C      1  0.4642340000000  0.4366170000000  0.5448890000000 1.0
C      1  0.5898800000000  0.4905430000000  0.5600000000000 1.0
C      1  0.4653770000000  0.5763360000000  0.5528950000000 1.0
C      1  0.4481960000000  0.5161760000000  0.5960540000000 1.0
C      1  0.5114900000000  0.4481130000000  0.6005270000000 1.0
C      1  0.5357400000000  0.5348150000000  0.5931470000000 1.0
C      1  0.4924550000000  0.4447690000000  0.4793070000000 1.0
C      1  0.5477960000000  0.5249510000000  0.4868970000000 1.0
C      1  0.4566880000000  0.5318470000000  0.4741350000000 1.0
C      1  0.4980370000000  0.5004620000000  0.6113120000000 1.0
END
