TITL C-3289330-4660-59 -0.00159753337419775 125000 -510.149458408121 0 0 93 (C1) n - 1
REM
REM in /nfs/bkarasulu/CARBON/AIRSS/Generating-Clusters/AIREBO/with-SteepDescent/Higher-Symm/SD-CG/HFTN-CG
REM
REM
REM
REM
REM
REM ./C.cell (b20cbc046b6831c77cfcea5457e17084)
REM
REM compiler GCC version 9.2.1 20190827 (Red Hat 9.2.1-1)
REM options -cpp -mtune=generic -march=x86-64 -g -O0 -fpre-include=/usr/include/finclude/math-vector-fortran.h
REM seed 1964494999 2102604255 -1855939681 -907924159 1597972081 -880220439 -1914376955 874272576 -1978658711 520747777 1321106459 231851747 190015629 232365256 31080408 -1615881093 -253074543 -2033285808 -299663545 -81656788 76615007 -1700855845 -195215445 1674625004 -98324301 924172478 -1810932443 -719453856 420156766 1684270509 1928233248 16325972 1422049160
REM
CELL 1.54180   50.00000   50.00000   50.00000   90.00000   90.00000   90.00000
LATT -1
SFAC C  
C      1  0.4665030000000  0.5541630000000  0.4538200000000 1.0
C      1  0.4762560000000  0.4372810000000  0.5466270000000 1.0
C      1  0.5431230000000  0.4499890000000  0.4438380000000 1.0
C      1  0.5328050000000  0.5525890000000  0.5499140000000 1.0
C      1  0.5055680000000  0.5226080000000  0.5912710000000 1.0
C      1  0.5081010000000  0.4883580000000  0.4043280000000 1.0
C      1  0.4771880000000  0.5081450000000  0.5845170000000 1.0
C      1  0.4844550000000  0.5104770000000  0.4045960000000 1.0
C      1  0.4374970000000  0.5454030000000  0.5232260000000 1.0
C      1  0.4246210000000  0.4535190000000  0.4910950000000 1.0
C      1  0.5750050000000  0.4479950000000  0.5445130000000 1.0
C      1  0.5604210000000  0.5468770000000  0.4755050000000 1.0
C      1  0.5650460000000  0.5544490000000  0.5317570000000 1.0
C      1  0.5626570000000  0.4478190000000  0.4716020000000 1.0
C      1  0.4476270000000  0.4341590000000  0.5325540000000 1.0
C      1  0.4428530000000  0.5578650000000  0.4753820000000 1.0
C      1  0.5168910000000  0.5173680000000  0.4717160000000 1.0
C      1  0.5257640000000  0.4690660000000  0.5278490000000 1.0
C      1  0.4789600000000  0.4822520000000  0.4809830000000 1.0
C      1  0.4892100000000  0.5192960000000  0.5186370000000 1.0
C      1  0.4417240000000  0.4960250000000  0.5238530000000 1.0
C      1  0.4317030000000  0.4960260000000  0.4951370000000 1.0
C      1  0.5578580000000  0.4915600000000  0.5198640000000 1.0
C      1  0.5604450000000  0.4989590000000  0.4883530000000 1.0
C      1  0.5780200000000  0.5027420000000  0.4435780000000 1.0
C      1  0.5646120000000  0.5019270000000  0.5774300000000 1.0
C      1  0.4333980000000  0.4952120000000  0.4411020000000 1.0
C      1  0.4258100000000  0.4996000000000  0.5712200000000 1.0
C      1  0.5484220000000  0.5537740000000  0.5044550000000 1.0
C      1  0.5541170000000  0.4420860000000  0.4980770000000 1.0
C      1  0.4519650000000  0.4439390000000  0.5031500000000 1.0
C      1  0.4480520000000  0.5614890000000  0.5028130000000 1.0
C      1  0.4689110000000  0.4395830000000  0.4752950000000 1.0
C      1  0.4738200000000  0.5778000000000  0.5105500000000 1.0
C      1  0.5307790000000  0.5722150000000  0.4836650000000 1.0
C      1  0.5294860000000  0.4246870000000  0.5025340000000 1.0
C      1  0.4781510000000  0.5928790000000  0.4825810000000 1.0
C      1  0.4850780000000  0.4222800000000  0.4997010000000 1.0
C      1  0.5267370000000  0.4108720000000  0.4749070000000 1.0
C      1  0.5127940000000  0.5717540000000  0.5057400000000 1.0
C      1  0.4205410000000  0.5436500000000  0.4689060000000 1.0
C      1  0.4280020000000  0.4480480000000  0.5462730000000 1.0
C      1  0.5864380000000  0.4629770000000  0.4688190000000 1.0
C      1  0.5813870000000  0.5352130000000  0.5387690000000 1.0
C      1  0.5573430000000  0.4596980000000  0.5230530000000 1.0
C      1  0.5506420000000  0.5220190000000  0.4653560000000 1.0
C      1  0.4395760000000  0.5235450000000  0.5387040000000 1.0
C      1  0.4311280000000  0.4749970000000  0.4684120000000 1.0
C      1  0.5053770000000  0.4465830000000  0.5123370000000 1.0
C      1  0.5016020000000  0.5456420000000  0.4776400000000 1.0
C      1  0.4891830000000  0.5477330000000  0.5072810000000 1.0
C      1  0.4982360000000  0.4546400000000  0.4808940000000 1.0
C      1  0.5230870000000  0.4625270000000  0.4649070000000 1.0
C      1  0.5341660000000  0.5301860000000  0.5243730000000 1.0
C      1  0.4777090000000  0.5256750000000  0.4647300000000 1.0
C      1  0.4756710000000  0.4603000000000  0.5216090000000 1.0
C      1  0.5101300000000  0.5707970000000  0.5495530000000 1.0
C      1  0.5342210000000  0.4197680000000  0.4527030000000 1.0
C      1  0.4976640000000  0.4162700000000  0.5438970000000 1.0
C      1  0.4853050000000  0.5778380000000  0.4605130000000 1.0
C      1  0.4715020000000  0.4903040000000  0.5200240000000 1.0
C      1  0.4576060000000  0.5049920000000  0.4750150000000 1.0
C      1  0.5257100000000  0.4995610000000  0.5129820000000 1.0
C      1  0.5337840000000  0.4881110000000  0.4755470000000 1.0
C      1  0.5684370000000  0.5065830000000  0.5439660000000 1.0
C      1  0.5825600000000  0.4908700000000  0.4679160000000 1.0
C      1  0.4357820000000  0.4785190000000  0.5503090000000 1.0
C      1  0.4257910000000  0.5142310000000  0.4670350000000 1.0
C      1  0.5048760000000  0.5312900000000  0.4201830000000 1.0
C      1  0.4858510000000  0.4815340000000  0.5712290000000 1.0
C      1  0.4978260000000  0.4667120000000  0.4262740000000 1.0
C      1  0.4979870000000  0.5364280000000  0.5656560000000 1.0
C      1  0.4718240000000  0.5437460000000  0.5671070000000 1.0
C      1  0.4676460000000  0.4723790000000  0.4344930000000 1.0
C      1  0.5173060000000  0.4786360000000  0.5812870000000 1.0
C      1  0.5330970000000  0.5284620000000  0.4159310000000 1.0
C      1  0.5465940000000  0.5065200000000  0.4351840000000 1.0
C      1  0.5317610000000  0.5067190000000  0.5847710000000 1.0
C      1  0.4590920000000  0.5024900000000  0.4247090000000 1.0
C      1  0.4496690000000  0.5210550000000  0.5703400000000 1.0
C      1  0.5472700000000  0.5265500000000  0.5618920000000 1.0
C      1  0.5299850000000  0.4775360000000  0.4285800000000 1.0
C      1  0.4641230000000  0.4639490000000  0.5611940000000 1.0
C      1  0.4715820000000  0.5345110000000  0.4263360000000 1.0
C      1  0.5079860000000  0.5188860000000  0.5429320000000 1.0
C      1  0.5001900000000  0.4839280000000  0.4543450000000 1.0
C      1  0.5109710000000  0.4883140000000  0.5494990000000 1.0
C      1  0.4993490000000  0.5128440000000  0.4448730000000 1.0
C      1  0.4564700000000  0.4608650000000  0.4557620000000 1.0
C      1  0.4921460000000  0.5841340000000  0.5374000000000 1.0
C      1  0.5143460000000  0.5707160000000  0.4593270000000 1.0
C      1  0.5187000000000  0.4138210000000  0.5309440000000 1.0
C      1  0.5002730000000  0.5008530000000  0.4948090000000 1.0
END
