TITL C-3289328-6581-211 -0.00201875702099217 125000 -620.592310147054 0 0 113 (C1) n - 1
REM
REM in /nfs/bkarasulu/CARBON/AIRSS/Generating-Clusters/AIREBO/with-SteepDescent/Higher-Symm/SD-CG/HFTN-CG
REM
REM
REM
REM
REM
REM ./C.cell (b20cbc046b6831c77cfcea5457e17084)
REM
REM compiler GCC version 9.2.1 20190827 (Red Hat 9.2.1-1)
REM options -cpp -mtune=generic -march=x86-64 -g -O0 -fpre-include=/usr/include/finclude/math-vector-fortran.h
REM seed -753899317 1181945119 -1575663201 -1359409219 -1004502137 -454944843 -572188775 -44178656 708792085 -2005839841 2084979304 -1826812909 -2113710174 1050035882 868386737 -667616878 -1422655777 -406451701 1367688196 -2035676317 1910237376 1223339014 1736544953 -1562680761 -489299597 -1429463118 23571750 -1945746143 1917660307 199835346 1288209750 -2052961530 -1622069660
REM
CELL 1.54180   50.00000   50.00000   50.00000   90.00000   90.00000   90.00000
LATT -1
SFAC C  
C      1  0.4965690000000  0.4375490000000  0.5509610000000 1.0
C      1  0.5462780000000  0.4869660000000  0.4316740000000 1.0
C      1  0.4521160000000  0.5411570000000  0.4870930000000 1.0
C      1  0.5215310000000  0.4378030000000  0.4595700000000 1.0
C      1  0.4940570000000  0.5740640000000  0.4665380000000 1.0
C      1  0.5191240000000  0.5667930000000  0.5410650000000 1.0
C      1  0.4617300000000  0.4846870000000  0.5474450000000 1.0
C      1  0.5370280000000  0.5089440000000  0.5560460000000 1.0
C      1  0.4578420000000  0.5100170000000  0.4331390000000 1.0
C      1  0.5627480000000  0.5488870000000  0.5238130000000 1.0
C      1  0.4379740000000  0.4478100000000  0.5151780000000 1.0
C      1  0.5404470000000  0.4650250000000  0.4892330000000 1.0
C      1  0.5528550000000  0.4201710000000  0.4770920000000 1.0
C      1  0.4636810000000  0.5434150000000  0.4348260000000 1.0
C      1  0.4158050000000  0.4722450000000  0.5498640000000 1.0
C      1  0.4690820000000  0.4314710000000  0.5427120000000 1.0
C      1  0.5495950000000  0.5822810000000  0.5407030000000 1.0
C      1  0.4425100000000  0.5763700000000  0.4709080000000 1.0
C      1  0.5277480000000  0.5566190000000  0.5785690000000 1.0
C      1  0.4566680000000  0.4542150000000  0.5796010000000 1.0
C      1  0.5307960000000  0.4674680000000  0.4174810000000 1.0
C      1  0.5747490000000  0.4664370000000  0.4505820000000 1.0
C      1  0.4172320000000  0.5326440000000  0.4465150000000 1.0
C      1  0.5760220000000  0.5282000000000  0.5553170000000 1.0
C      1  0.4207280000000  0.5022920000000  0.5583610000000 1.0
C      1  0.5563370000000  0.4165300000000  0.5074250000000 1.0
C      1  0.4902970000000  0.5615840000000  0.4351340000000 1.0
C      1  0.5787780000000  0.4942660000000  0.4313470000000 1.0
C      1  0.4252230000000  0.5026240000000  0.4315240000000 1.0
C      1  0.5744520000000  0.4965520000000  0.5541990000000 1.0
C      1  0.4216730000000  0.4188490000000  0.5058010000000 1.0
C      1  0.5676670000000  0.5801770000000  0.5114530000000 1.0
C      1  0.4344530000000  0.5817960000000  0.5008930000000 1.0
C      1  0.4978230000000  0.5622390000000  0.5753940000000 1.0
C      1  0.5137460000000  0.4213940000000  0.5749030000000 1.0
C      1  0.5174610000000  0.4410530000000  0.4269710000000 1.0
C      1  0.5625150000000  0.5054940000000  0.4752560000000 1.0
C      1  0.4889350000000  0.5545330000000  0.5009950000000 1.0
C      1  0.5018100000000  0.4846920000000  0.5719080000000 1.0
C      1  0.4409570000000  0.4933380000000  0.5066080000000 1.0
C      1  0.5619520000000  0.5150330000000  0.5027430000000 1.0
C      1  0.4404180000000  0.5018120000000  0.4786530000000 1.0
C      1  0.5200680000000  0.5581240000000  0.4999620000000 1.0
C      1  0.4734870000000  0.4436600000000  0.4963690000000 1.0
C      1  0.5043210000000  0.4486650000000  0.4938860000000 1.0
C      1  0.5085660000000  0.4915250000000  0.4441310000000 1.0
C      1  0.4946550000000  0.5191330000000  0.4457120000000 1.0
C      1  0.5020670000000  0.5144180000000  0.5743420000000 1.0
C      1  0.4500230000000  0.5049820000000  0.5628810000000 1.0
C      1  0.5702290000000  0.4375260000000  0.5206440000000 1.0
C      1  0.5179730000000  0.5798140000000  0.4427420000000 1.0
C      1  0.5559100000000  0.5150190000000  0.4179210000000 1.0
C      1  0.4492560000000  0.4784980000000  0.4273450000000 1.0
C      1  0.5511290000000  0.4833130000000  0.5680620000000 1.0
C      1  0.4281210000000  0.4398970000000  0.4837260000000 1.0
C      1  0.5648230000000  0.5538490000000  0.4901250000000 1.0
C      1  0.4387850000000  0.5537600000000  0.5078160000000 1.0
C      1  0.4899300000000  0.5754520000000  0.5496580000000 1.0
C      1  0.5216490000000  0.4154130000000  0.5447970000000 1.0
C      1  0.4902540000000  0.4244630000000  0.4587360000000 1.0
C      1  0.5051580000000  0.4657430000000  0.5438610000000 1.0
C      1  0.5373730000000  0.4941250000000  0.4623110000000 1.0
C      1  0.4811100000000  0.5244360000000  0.4931890000000 1.0
C      1  0.5075460000000  0.4679120000000  0.4667000000000 1.0
C      1  0.5059650000000  0.5422170000000  0.4663390000000 1.0
C      1  0.5085260000000  0.5352840000000  0.5482120000000 1.0
C      1  0.4848910000000  0.4834500000000  0.5262710000000 1.0
C      1  0.5204870000000  0.5166340000000  0.5273440000000 1.0
C      1  0.4669110000000  0.5131100000000  0.4644440000000 1.0
C      1  0.5371300000000  0.5335840000000  0.5099440000000 1.0
C      1  0.4612370000000  0.4706840000000  0.5101180000000 1.0
C      1  0.5167980000000  0.4894510000000  0.4889760000000 1.0
C      1  0.5305950000000  0.4699820000000  0.5810490000000 1.0
C      1  0.5581430000000  0.5423820000000  0.4606980000000 1.0
C      1  0.4710580000000  0.5680880000000  0.5265470000000 1.0
C      1  0.4612920000000  0.4510360000000  0.4342070000000 1.0
C      1  0.5441100000000  0.5383230000000  0.4312320000000 1.0
C      1  0.4587680000000  0.5318130000000  0.5629480000000 1.0
C      1  0.4478870000000  0.5456300000000  0.5373040000000 1.0
C      1  0.5560580000000  0.4646840000000  0.5176130000000 1.0
C      1  0.4348240000000  0.4547490000000  0.4585150000000 1.0
C      1  0.5325170000000  0.5633390000000  0.4686860000000 1.0
C      1  0.4649060000000  0.4406680000000  0.4658010000000 1.0
C      1  0.5221450000000  0.4621350000000  0.5180930000000 1.0
C      1  0.5292820000000  0.4103260000000  0.5199620000000 1.0
C      1  0.5150510000000  0.5395150000000  0.4276270000000 1.0
C      1  0.4315270000000  0.5168070000000  0.5295620000000 1.0
C      1  0.4459060000000  0.4033540000000  0.5113320000000 1.0
C      1  0.5462010000000  0.5888310000000  0.4865460000000 1.0
C      1  0.4586250000000  0.5962140000000  0.5137010000000 1.0
C      1  0.4815830000000  0.5377580000000  0.5772320000000 1.0
C      1  0.5100060000000  0.4486990000000  0.5869140000000 1.0
C      1  0.4869110000000  0.4497430000000  0.4200260000000 1.0
C      1  0.5828920000000  0.5204660000000  0.4526370000000 1.0
C      1  0.4240760000000  0.4813840000000  0.4580540000000 1.0
C      1  0.5691830000000  0.4900970000000  0.5231540000000 1.0
C      1  0.4102910000000  0.5106480000000  0.4674920000000 1.0
C      1  0.4674860000000  0.4208740000000  0.5163730000000 1.0
C      1  0.5013840000000  0.4759630000000  0.4169380000000 1.0
C      1  0.5872510000000  0.5195340000000  0.5250160000000 1.0
C      1  0.4121220000000  0.4890510000000  0.5227160000000 1.0
C      1  0.5912020000000  0.4905040000000  0.4680900000000 1.0
C      1  0.5211000000000  0.4206200000000  0.4893110000000 1.0
C      1  0.4715710000000  0.5798970000000  0.4864530000000 1.0
C      1  0.5283930000000  0.5858610000000  0.5148570000000 1.0
C      1  0.4821430000000  0.4603020000000  0.5852650000000 1.0
C      1  0.5318480000000  0.5273880000000  0.5792810000000 1.0
C      1  0.4856580000000  0.5280830000000  0.4141390000000 1.0
C      1  0.4417910000000  0.5484450000000  0.4556430000000 1.0
C      1  0.5529090000000  0.4501090000000  0.4642000000000 1.0
C      1  0.4450730000000  0.4550460000000  0.5476440000000 1.0
C      1  0.5530890000000  0.5522520000000  0.5562650000000 1.0
C      1  0.4998850000000  0.5032540000000  0.5091120000000 1.0
END
