TITL C-3289330-4660-729 -0.000794297873332996 125000 -1011.39249374335 0 0 185 (C1) n - 1
REM
REM in /nfs/bkarasulu/CARBON/AIRSS/Generating-Clusters/AIREBO/with-SteepDescent/Higher-Symm/SD-CG/HFTN-CG
REM
REM
REM
REM
REM
REM ./C.cell (b20cbc046b6831c77cfcea5457e17084)
REM
REM compiler GCC version 9.2.1 20190827 (Red Hat 9.2.1-1)
REM options -cpp -mtune=generic -march=x86-64 -g -O0 -fpre-include=/usr/include/finclude/math-vector-fortran.h
REM seed 1097923253 -119407593 -405373756 1554284967 -112642180 -833414639 17550059 1833897066 -304539921 717951214 -1762077433 -1057750455 -1856630523 1780019164 -1411380974 -52928475 1548782095 346693976 -193011276 -1937530470 -1199205900 -1199265666 986287568 -65799228 799310097 1792175598 1922698565 364480721 505927452 469266029 1119253109 -1553561057 -1275290637
REM
CELL 1.54180   50.00000   50.00000   50.00000   90.00000   90.00000   90.00000
LATT -1
SFAC C  
C      1  0.4947330000000  0.5039320000000  0.4092500000000 1.0
C      1  0.5102380000000  0.5005860000000  0.5906760000000 1.0
C      1  0.3975880000000  0.4410200000000  0.4349030000000 1.0
C      1  0.5966560000000  0.5446190000000  0.5511010000000 1.0
C      1  0.4304160000000  0.4740060000000  0.4062350000000 1.0
C      1  0.5639130000000  0.5322020000000  0.5902110000000 1.0
C      1  0.4219200000000  0.4203820000000  0.4721230000000 1.0
C      1  0.5704470000000  0.5898270000000  0.5433840000000 1.0
C      1  0.4373660000000  0.4159760000000  0.5415120000000 1.0
C      1  0.5587140000000  0.5791050000000  0.4609910000000 1.0
C      1  0.5357040000000  0.4596550000000  0.5384100000000 1.0
C      1  0.4679620000000  0.5491790000000  0.4612560000000 1.0
C      1  0.6071000000000  0.4646740000000  0.4904410000000 1.0
C      1  0.3966580000000  0.5377720000000  0.5075580000000 1.0
C      1  0.5479930000000  0.5211260000000  0.6181430000000 1.0
C      1  0.4546080000000  0.4805560000000  0.3847490000000 1.0
C      1  0.4017580000000  0.4208900000000  0.4541520000000 1.0
C      1  0.5963300000000  0.5710090000000  0.5367180000000 1.0
C      1  0.5409660000000  0.5761030000000  0.5416880000000 1.0
C      1  0.4501760000000  0.4231990000000  0.4605130000000 1.0
C      1  0.4429610000000  0.5414210000000  0.5998810000000 1.0
C      1  0.5480000000000  0.4541960000000  0.4235140000000 1.0
C      1  0.5097540000000  0.5294470000000  0.4829810000000 1.0
C      1  0.4956980000000  0.4792250000000  0.5229930000000 1.0
C      1  0.5401420000000  0.4849120000000  0.5828800000000 1.0
C      1  0.4652510000000  0.5238090000000  0.4122700000000 1.0
C      1  0.4738650000000  0.4327020000000  0.4090940000000 1.0
C      1  0.5185550000000  0.5576970000000  0.5931150000000 1.0
C      1  0.5068050000000  0.4127650000000  0.6027680000000 1.0
C      1  0.5084270000000  0.5635170000000  0.3993260000000 1.0
C      1  0.5041280000000  0.4446940000000  0.4038650000000 1.0
C      1  0.4968670000000  0.5313990000000  0.5960170000000 1.0
C      1  0.4327010000000  0.5223870000000  0.5568880000000 1.0
C      1  0.5752740000000  0.4809150000000  0.4334710000000 1.0
C      1  0.5859930000000  0.5409390000000  0.5127450000000 1.0
C      1  0.4140150000000  0.4660090000000  0.4853430000000 1.0
C      1  0.5310570000000  0.5070330000000  0.5346500000000 1.0
C      1  0.4826240000000  0.5009330000000  0.4621220000000 1.0
C      1  0.4675230000000  0.4637900000000  0.5907830000000 1.0
C      1  0.5233860000000  0.5450470000000  0.3866210000000 1.0
C      1  0.5318260000000  0.4799970000000  0.4744540000000 1.0
C      1  0.4679250000000  0.5203310000000  0.5142830000000 1.0
C      1  0.5314930000000  0.4734950000000  0.4008060000000 1.0
C      1  0.4629290000000  0.5162840000000  0.6109840000000 1.0
C      1  0.5326140000000  0.5792170000000  0.4431140000000 1.0
C      1  0.4681860000000  0.4226390000000  0.5542560000000 1.0
C      1  0.4836140000000  0.5503700000000  0.5208800000000 1.0
C      1  0.5084380000000  0.4546250000000  0.4727130000000 1.0
C      1  0.5235900000000  0.5524860000000  0.4346580000000 1.0
C      1  0.4998840000000  0.4346210000000  0.5571260000000 1.0
C      1  0.5834310000000  0.5309250000000  0.4386230000000 1.0
C      1  0.4145260000000  0.4745160000000  0.5599180000000 1.0
C      1  0.4210970000000  0.5492120000000  0.5190460000000 1.0
C      1  0.5756770000000  0.4596470000000  0.4805280000000 1.0
C      1  0.4717600000000  0.4981110000000  0.4335780000000 1.0
C      1  0.5292660000000  0.5119160000000  0.5652820000000 1.0
C      1  0.4218240000000  0.4364930000000  0.4970220000000 1.0
C      1  0.5712180000000  0.5715550000000  0.5138020000000 1.0
C      1  0.5304960000000  0.4953780000000  0.4249490000000 1.0
C      1  0.4660700000000  0.5029010000000  0.5829010000000 1.0
C      1  0.5613050000000  0.4960910000000  0.5240270000000 1.0
C      1  0.4428310000000  0.5045890000000  0.4627250000000 1.0
C      1  0.5083290000000  0.5994790000000  0.4787910000000 1.0
C      1  0.4875530000000  0.3941490000000  0.5142890000000 1.0
C      1  0.5451560000000  0.4276320000000  0.5602420000000 1.0
C      1  0.4574630000000  0.5803570000000  0.4390840000000 1.0
C      1  0.4190060000000  0.4384890000000  0.5286040000000 1.0
C      1  0.5786880000000  0.5564420000000  0.4559580000000 1.0
C      1  0.4736990000000  0.6022010000000  0.5154520000000 1.0
C      1  0.5392810000000  0.4021500000000  0.4952730000000 1.0
C      1  0.5795730000000  0.4816800000000  0.5775190000000 1.0
C      1  0.4264800000000  0.5286540000000  0.4203640000000 1.0
C      1  0.4227430000000  0.4603860000000  0.4321340000000 1.0
C      1  0.5649360000000  0.5365230000000  0.5608860000000 1.0
C      1  0.4835980000000  0.5767690000000  0.4735380000000 1.0
C      1  0.5181390000000  0.4321510000000  0.5288560000000 1.0
C      1  0.5090260000000  0.5952450000000  0.4486460000000 1.0
C      1  0.4952660000000  0.4027070000000  0.5463140000000 1.0
C      1  0.5273630000000  0.4056320000000  0.5572170000000 1.0
C      1  0.4812640000000  0.5959770000000  0.4386520000000 1.0
C      1  0.5001810000000  0.5405440000000  0.4546110000000 1.0
C      1  0.5046280000000  0.4673080000000  0.5535650000000 1.0
C      1  0.5382950000000  0.4477390000000  0.5837930000000 1.0
C      1  0.4612040000000  0.5571700000000  0.4175530000000 1.0
C      1  0.5948260000000  0.4545140000000  0.5430230000000 1.0
C      1  0.4108560000000  0.5529310000000  0.4576700000000 1.0
C      1  0.5539380000000  0.4655940000000  0.4550650000000 1.0
C      1  0.4407850000000  0.5299250000000  0.5316410000000 1.0
C      1  0.5212250000000  0.5156910000000  0.3993080000000 1.0
C      1  0.4906600000000  0.4797910000000  0.5787360000000 1.0
C      1  0.5384580000000  0.4769210000000  0.5076830000000 1.0
C      1  0.4666080000000  0.5215680000000  0.4803180000000 1.0
C      1  0.5190300000000  0.5433910000000  0.5650850000000 1.0
C      1  0.4807030000000  0.4492970000000  0.4355440000000 1.0
C      1  0.3741680000000  0.4469470000000  0.4221380000000 1.0
C      1  0.6215940000000  0.5368000000000  0.5659700000000 1.0
C      1  0.4305980000000  0.5018740000000  0.4910220000000 1.0
C      1  0.5715470000000  0.4923950000000  0.4918000000000 1.0
C      1  0.6069770000000  0.4683640000000  0.5223580000000 1.0
C      1  0.3988100000000  0.5367120000000  0.4763680000000 1.0
C      1  0.4790720000000  0.4130090000000  0.4676090000000 1.0
C      1  0.5185890000000  0.5899210000000  0.5277090000000 1.0
C      1  0.5135210000000  0.4561600000000  0.5054410000000 1.0
C      1  0.4935640000000  0.5538990000000  0.4915360000000 1.0
C      1  0.4433420000000  0.4640340000000  0.5709430000000 1.0
C      1  0.5537340000000  0.5439170000000  0.3904440000000 1.0
C      1  0.5802090000000  0.4471490000000  0.4320400000000 1.0
C      1  0.4267350000000  0.5433640000000  0.5759440000000 1.0
C      1  0.6031780000000  0.4961170000000  0.5027680000000 1.0
C      1  0.4008570000000  0.5078820000000  0.4949000000000 1.0
C      1  0.5350840000000  0.5798070000000  0.5923220000000 1.0
C      1  0.4496310000000  0.4219370000000  0.4109340000000 1.0
C      1  0.5885390000000  0.4233790000000  0.4911960000000 1.0
C      1  0.4170310000000  0.5870430000000  0.5242770000000 1.0
C      1  0.4703960000000  0.5532060000000  0.5986760000000 1.0
C      1  0.5273810000000  0.4320940000000  0.4173730000000 1.0
C      1  0.4910440000000  0.5550180000000  0.4251840000000 1.0
C      1  0.5130220000000  0.4308640000000  0.5846940000000 1.0
C      1  0.6027440000000  0.5258740000000  0.4933850000000 1.0
C      1  0.3996900000000  0.4788450000000  0.5113110000000 1.0
C      1  0.4847300000000  0.5228780000000  0.5654080000000 1.0
C      1  0.4978030000000  0.4726200000000  0.4223170000000 1.0
C      1  0.5651510000000  0.4426670000000  0.5372150000000 1.0
C      1  0.4401320000000  0.5681910000000  0.4658020000000 1.0
C      1  0.4568630000000  0.5440570000000  0.3862630000000 1.0
C      1  0.5418960000000  0.4650730000000  0.6104470000000 1.0
C      1  0.5213070000000  0.5236930000000  0.6267120000000 1.0
C      1  0.4784840000000  0.4738850000000  0.3715680000000 1.0
C      1  0.4819010000000  0.5565800000000  0.5689660000000 1.0
C      1  0.5194480000000  0.4176220000000  0.4397220000000 1.0
C      1  0.4906970000000  0.5097260000000  0.5371990000000 1.0
C      1  0.5111000000000  0.4887030000000  0.4489360000000 1.0
C      1  0.5026170000000  0.5652660000000  0.5448270000000 1.0
C      1  0.4985570000000  0.4325060000000  0.4550740000000 1.0
C      1  0.5940080000000  0.5288060000000  0.4679750000000 1.0
C      1  0.4072460000000  0.4638310000000  0.5349120000000 1.0
C      1  0.5571990000000  0.4801110000000  0.5537640000000 1.0
C      1  0.4496800000000  0.5279850000000  0.4422150000000 1.0
C      1  0.5171230000000  0.4066670000000  0.5134930000000 1.0
C      1  0.4786970000000  0.6060690000000  0.4886670000000 1.0
C      1  0.5401140000000  0.5362340000000  0.4845520000000 1.0
C      1  0.4663520000000  0.4663700000000  0.5233540000000 1.0
C      1  0.4388060000000  0.5059830000000  0.4001810000000 1.0
C      1  0.5646440000000  0.5009640000000  0.5979110000000 1.0
C      1  0.4345510000000  0.5729540000000  0.4987600000000 1.0
C      1  0.5662130000000  0.4398140000000  0.5066300000000 1.0
C      1  0.4360330000000  0.4305210000000  0.4329520000000 1.0
C      1  0.5516910000000  0.5833020000000  0.5712130000000 1.0
C      1  0.5121730000000  0.5323210000000  0.5248650000000 1.0
C      1  0.4854250000000  0.4752620000000  0.4812840000000 1.0
C      1  0.4657570000000  0.4531870000000  0.4646130000000 1.0
C      1  0.5398490000000  0.5454730000000  0.5396720000000 1.0
C      1  0.4536010000000  0.4391820000000  0.5088210000000 1.0
C      1  0.5493120000000  0.5689900000000  0.4895790000000 1.0
C      1  0.5585800000000  0.5101470000000  0.4378630000000 1.0
C      1  0.4395670000000  0.4962650000000  0.5676680000000 1.0
C      1  0.4515380000000  0.4911590000000  0.5106940000000 1.0
C      1  0.5501970000000  0.5084030000000  0.4708660000000 1.0
C      1  0.4473420000000  0.4657280000000  0.4884840000000 1.0
C      1  0.5531560000000  0.5362900000000  0.5120730000000 1.0
C      1  0.4938060000000  0.6071840000000  0.5342110000000 1.0
C      1  0.4920320000000  0.3929920000000  0.4828550000000 1.0
C      1  0.4904580000000  0.5184740000000  0.6268080000000 1.0
C      1  0.5043790000000  0.4688200000000  0.3831330000000 1.0
C      1  0.5378320000000  0.4350620000000  0.4944280000000 1.0
C      1  0.4602280000000  0.5752270000000  0.5199770000000 1.0
C      1  0.5272840000000  0.5893790000000  0.4987600000000 1.0
C      1  0.4606900000000  0.4096450000000  0.5176660000000 1.0
C      1  0.5560980000000  0.4143560000000  0.4697980000000 1.0
C      1  0.4483010000000  0.5797850000000  0.5472890000000 1.0
C      1  0.4076330000000  0.5456540000000  0.4302160000000 1.0
C      1  0.5987230000000  0.4640880000000  0.5695200000000 1.0
C      1  0.4847570000000  0.6063550000000  0.5610280000000 1.0
C      1  0.5153190000000  0.3821250000000  0.4703690000000 1.0
C      1  0.5789550000000  0.5195540000000  0.5369200000000 1.0
C      1  0.4255790000000  0.4781130000000  0.4573680000000 1.0
C      1  0.4231950000000  0.3953730000000  0.5539000000000 1.0
C      1  0.5711370000000  0.6045180000000  0.4611710000000 1.0
C      1  0.4563620000000  0.4505180000000  0.5478190000000 1.0
C      1  0.5410590000000  0.5334930000000  0.4204230000000 1.0
C      1  0.4680350000000  0.5842240000000  0.5663340000000 1.0
C      1  0.5329310000000  0.3997110000000  0.4559020000000 1.0
C      1  0.5809300000000  0.4332720000000  0.4597160000000 1.0
C      1  0.4226300000000  0.5635610000000  0.5498400000000 1.0
C      1  0.5000630000000  0.5013250000000  0.4975010000000 1.0
END
