TITL C-3289330-4660-386 0.00258448768695389 125000 -533.388133449552 0 0 99 (C1) n - 1
REM
REM in /nfs/bkarasulu/CARBON/AIRSS/Generating-Clusters/AIREBO/with-SteepDescent/Higher-Symm/SD-CG/HFTN-CG
REM
REM
REM
REM
REM
REM ./C.cell (b20cbc046b6831c77cfcea5457e17084)
REM
REM compiler GCC version 9.2.1 20190827 (Red Hat 9.2.1-1)
REM options -cpp -mtune=generic -march=x86-64 -g -O0 -fpre-include=/usr/include/finclude/math-vector-fortran.h
REM seed -11776592 1224234360 -1101005220 961790530 1369794293 -698244763 1101899808 -2099665506 1797936937 599022675 1611521375 -353480300 -1528921407 1405034795 2951530 626663516 -623250895 -1279311316 -965257584 -723056070 -920807270 1834694390 -1756161820 2008290577 1016152617 471436793 1652967859 1708809156 -1150508144 1474429433 -1061195799 1162342629 -130744643
REM
CELL 1.54180   50.00000   50.00000   50.00000   90.00000   90.00000   90.00000
LATT -1
SFAC C  
C      1  0.4679540000000  0.5356540000000  0.5739380000000 1.0
C      1  0.4739570000000  0.5777720000000  0.4759870000000 1.0
C      1  0.4672390000000  0.5088120000000  0.4286410000000 1.0
C      1  0.4708900000000  0.4318010000000  0.4619890000000 1.0
C      1  0.4769490000000  0.4563740000000  0.5491970000000 1.0
C      1  0.5285510000000  0.5400140000000  0.5695890000000 1.0
C      1  0.5295940000000  0.5834670000000  0.4896880000000 1.0
C      1  0.5220040000000  0.5020570000000  0.4243100000000 1.0
C      1  0.5235580000000  0.4264630000000  0.4753860000000 1.0
C      1  0.5341940000000  0.4498840000000  0.5521270000000 1.0
C      1  0.5568650000000  0.5061810000000  0.4777970000000 1.0
C      1  0.5523190000000  0.4754090000000  0.4917440000000 1.0
C      1  0.5744840000000  0.4728640000000  0.5285300000000 1.0
C      1  0.5697950000000  0.5225490000000  0.5227410000000 1.0
C      1  0.5622610000000  0.5326100000000  0.4944700000000 1.0
C      1  0.4332530000000  0.4884200000000  0.4771470000000 1.0
C      1  0.4435760000000  0.4630950000000  0.4977410000000 1.0
C      1  0.4381190000000  0.4978860000000  0.5297440000000 1.0
C      1  0.4285240000000  0.5246830000000  0.5111260000000 1.0
C      1  0.4426220000000  0.5303950000000  0.4842830000000 1.0
C      1  0.5316620000000  0.5478280000000  0.4470740000000 1.0
C      1  0.5068510000000  0.4788010000000  0.4550510000000 1.0
C      1  0.5316790000000  0.4235580000000  0.5089920000000 1.0
C      1  0.5261410000000  0.4897340000000  0.5618440000000 1.0
C      1  0.5326290000000  0.5549750000000  0.5314440000000 1.0
C      1  0.4758760000000  0.5509560000000  0.4521560000000 1.0
C      1  0.4944710000000  0.4623440000000  0.4314560000000 1.0
C      1  0.4813650000000  0.4180810000000  0.5082200000000 1.0
C      1  0.4925710000000  0.4844270000000  0.5603970000000 1.0
C      1  0.4700250000000  0.5563080000000  0.5238980000000 1.0
C      1  0.5741150000000  0.5505550000000  0.4698240000000 1.0
C      1  0.5702870000000  0.4838290000000  0.4571810000000 1.0
C      1  0.5714260000000  0.4493180000000  0.4964020000000 1.0
C      1  0.5780370000000  0.4733510000000  0.5564060000000 1.0
C      1  0.5773730000000  0.5462440000000  0.5424270000000 1.0
C      1  0.4283520000000  0.5474470000000  0.4612980000000 1.0
C      1  0.4144370000000  0.4740600000000  0.4533290000000 1.0
C      1  0.4240780000000  0.4386580000000  0.4992660000000 1.0
C      1  0.4167330000000  0.4907150000000  0.5551920000000 1.0
C      1  0.4230250000000  0.5487740000000  0.5270210000000 1.0
C      1  0.5556760000000  0.5610270000000  0.5492550000000 1.0
C      1  0.5558130000000  0.5648190000000  0.4546870000000 1.0
C      1  0.5505080000000  0.4675350000000  0.4465970000000 1.0
C      1  0.5582080000000  0.4242920000000  0.4951310000000 1.0
C      1  0.5569010000000  0.4958550000000  0.5678010000000 1.0
C      1  0.4443100000000  0.5599590000000  0.5397480000000 1.0
C      1  0.4471190000000  0.5640840000000  0.4499230000000 1.0
C      1  0.4416370000000  0.4675020000000  0.4444150000000 1.0
C      1  0.4286090000000  0.4161490000000  0.4841440000000 1.0
C      1  0.4437540000000  0.4895660000000  0.5682820000000 1.0
C      1  0.4831060000000  0.5270290000000  0.5300100000000 1.0
C      1  0.4872040000000  0.5338950000000  0.4793100000000 1.0
C      1  0.4875150000000  0.5044890000000  0.4622430000000 1.0
C      1  0.4800560000000  0.4768120000000  0.4895980000000 1.0
C      1  0.4880380000000  0.4875810000000  0.5269890000000 1.0
C      1  0.5171060000000  0.5249840000000  0.5305480000000 1.0
C      1  0.5167280000000  0.5474790000000  0.4760820000000 1.0
C      1  0.5171090000000  0.5076020000000  0.4755300000000 1.0
C      1  0.5082600000000  0.4739790000000  0.4946900000000 1.0
C      1  0.5203820000000  0.4815320000000  0.5320450000000 1.0
C      1  0.5463790000000  0.5210390000000  0.5474720000000 1.0
C      1  0.5374070000000  0.5518140000000  0.4994120000000 1.0
C      1  0.5366070000000  0.5154640000000  0.4520880000000 1.0
C      1  0.5293550000000  0.4598330000000  0.4720820000000 1.0
C      1  0.5438470000000  0.4626710000000  0.5221130000000 1.0
C      1  0.4606520000000  0.5132180000000  0.5506310000000 1.0
C      1  0.4644040000000  0.5531080000000  0.4944020000000 1.0
C      1  0.4540470000000  0.5093100000000  0.4600910000000 1.0
C      1  0.4594560000000  0.4593830000000  0.4688900000000 1.0
C      1  0.4587390000000  0.4714580000000  0.5240020000000 1.0
C      1  0.4456980000000  0.4132650000000  0.4627230000000 1.0
C      1  0.4549650000000  0.4650060000000  0.5726790000000 1.0
C      1  0.4477950000000  0.5577500000000  0.5667170000000 1.0
C      1  0.4498010000000  0.5926740000000  0.4576220000000 1.0
C      1  0.4512040000000  0.4812850000000  0.4231940000000 1.0
C      1  0.5529330000000  0.4108750000000  0.4682570000000 1.0
C      1  0.5530620000000  0.4620900000000  0.5719500000000 1.0
C      1  0.5484280000000  0.5650080000000  0.5771130000000 1.0
C      1  0.5478530000000  0.5888210000000  0.4657220000000 1.0
C      1  0.5400570000000  0.4760200000000  0.4227410000000 1.0
C      1  0.4910900000000  0.4320980000000  0.5300310000000 1.0
C      1  0.4852580000000  0.5095520000000  0.5816790000000 1.0
C      1  0.4901100000000  0.5795570000000  0.5279190000000 1.0
C      1  0.4841740000000  0.5353310000000  0.4289270000000 1.0
C      1  0.4901740000000  0.4357510000000  0.4383360000000 1.0
C      1  0.5187230000000  0.4309740000000  0.5312530000000 1.0
C      1  0.5144070000000  0.5129110000000  0.5776520000000 1.0
C      1  0.5159470000000  0.5787600000000  0.5193670000000 1.0
C      1  0.5126320000000  0.5328870000000  0.4254920000000 1.0
C      1  0.5129920000000  0.4210310000000  0.4435280000000 1.0
C      1  0.4906650000000  0.4221560000000  0.4832240000000 1.0
C      1  0.4928150000000  0.4899160000000  0.4195700000000 1.0
C      1  0.4973630000000  0.5487800000000  0.5770210000000 1.0
C      1  0.4988690000000  0.5911650000000  0.4854200000000 1.0
C      1  0.5039180000000  0.4441040000000  0.5659040000000 1.0
C      1  0.4162110000000  0.4907190000000  0.5047420000000 1.0
C      1  0.5833710000000  0.4953320000000  0.5165070000000 1.0
C      1  0.5199650000000  0.5025200000000  0.5067730000000 1.0
C      1  0.4809610000000  0.5087650000000  0.5013780000000 1.0
END
