TITL C-3289328-6581-569 -0.000916614550175688 125000 -201.580803883544 0 0 44 (C1) n - 1
REM
REM in /nfs/bkarasulu/CARBON/AIRSS/Generating-Clusters/AIREBO/with-SteepDescent/Higher-Symm/SD-CG/HFTN-CG
REM
REM
REM
REM
REM
REM ./C.cell (b20cbc046b6831c77cfcea5457e17084)
REM
REM compiler GCC version 9.2.1 20190827 (Red Hat 9.2.1-1)
REM options -cpp -mtune=generic -march=x86-64 -g -O0 -fpre-include=/usr/include/finclude/math-vector-fortran.h
REM seed -1926346188 790767665 -777350067 1127058166 50648059 539001709 632132633 -1609723238 -1533722898 -1304005588 -1164434310 1220116068 -1430306749 -630714803 -1866211031 -1368854142 -1544884128 334834939 -644812949 884214645 -310466848 764064673 1601597980 681007021 1494555634 1026821477 -1293725889 -2015819189 -1088694822 -402217577 -2001461687 1218738125 369396820
REM
CELL 1.54180   50.00000   50.00000   50.00000   90.00000   90.00000   90.00000
LATT -1
SFAC C  
C      1  0.4658130000000  0.5460100000000  0.5406020000000 1.0
C      1  0.4504940000000  0.5479910000000  0.4941600000000 1.0
C      1  0.4896600000000  0.5500790000000  0.4512430000000 1.0
C      1  0.5517210000000  0.5446880000000  0.4865110000000 1.0
C      1  0.5380070000000  0.5487400000000  0.5305940000000 1.0
C      1  0.5239270000000  0.4311720000000  0.4888060000000 1.0
C      1  0.5175150000000  0.4317700000000  0.5175460000000 1.0
C      1  0.4878630000000  0.4329290000000  0.5208800000000 1.0
C      1  0.4753070000000  0.4308690000000  0.4935900000000 1.0
C      1  0.4984190000000  0.4309700000000  0.4736730000000 1.0
C      1  0.5029970000000  0.5262360000000  0.4653570000000 1.0
C      1  0.5316170000000  0.5200130000000  0.4919830000000 1.0
C      1  0.5169510000000  0.5266360000000  0.5282840000000 1.0
C      1  0.4779980000000  0.5210770000000  0.5239870000000 1.0
C      1  0.4687910000000  0.5246700000000  0.4855470000000 1.0
C      1  0.4565740000000  0.4930800000000  0.4821730000000 1.0
C      1  0.5042980000000  0.4939320000000  0.4547290000000 1.0
C      1  0.5454230000000  0.4895920000000  0.4855430000000 1.0
C      1  0.5214070000000  0.4945780000000  0.5387940000000 1.0
C      1  0.4711900000000  0.4903750000000  0.5369700000000 1.0
C      1  0.4828770000000  0.5073920000000  0.5611950000000 1.0
C      1  0.4357490000000  0.5079210000000  0.5011600000000 1.0
C      1  0.4794730000000  0.5066850000000  0.4396430000000 1.0
C      1  0.5503320000000  0.5066210000000  0.4593360000000 1.0
C      1  0.5507640000000  0.5066850000000  0.5359010000000 1.0
C      1  0.4450080000000  0.5195660000000  0.5216790000000 1.0
C      1  0.4634270000000  0.5200980000000  0.4536100000000 1.0
C      1  0.5322710000000  0.5223670000000  0.4520680000000 1.0
C      1  0.5564400000000  0.5175640000000  0.5137390000000 1.0
C      1  0.5010650000000  0.5240650000000  0.5565000000000 1.0
C      1  0.4784420000000  0.4570410000000  0.5364530000000 1.0
C      1  0.4662730000000  0.4628750000000  0.4944780000000 1.0
C      1  0.4962790000000  0.4633750000000  0.4673370000000 1.0
C      1  0.5413610000000  0.4559350000000  0.4812670000000 1.0
C      1  0.5185710000000  0.4640270000000  0.5241070000000 1.0
C      1  0.5285070000000  0.4700580000000  0.4552070000000 1.0
C      1  0.5483990000000  0.4695520000000  0.5110490000000 1.0
C      1  0.5018880000000  0.4712720000000  0.5540350000000 1.0
C      1  0.4501030000000  0.4685410000000  0.5230820000000 1.0
C      1  0.4639190000000  0.4689330000000  0.4593690000000 1.0
C      1  0.4992430000000  0.4978390000000  0.4995000000000 1.0
C      1  0.4981230000000  0.4709290000000  0.5001030000000 1.0
C      1  0.4996700000000  0.5293660000000  0.4990850000000 1.0
C      1  0.5003020000000  0.5628420000000  0.4993420000000 1.0
END
