TITL C-3289335-9438-698 -0.000146588531251108 125000 -795.636332439182 0 0 143 (C1) n - 1
REM
REM in /nfs/bkarasulu/CARBON/AIRSS/Generating-Clusters/AIREBO/with-SteepDescent/Higher-Symm/SD-CG/HFTN-CG
REM
REM
REM
REM
REM
REM ./C.cell (b20cbc046b6831c77cfcea5457e17084)
REM
REM compiler GCC version 9.2.1 20190827 (Red Hat 9.2.1-1)
REM options -cpp -mtune=generic -march=x86-64 -g -O0 -fpre-include=/usr/include/finclude/math-vector-fortran.h
REM seed 1497683201 1859528415 1586818942 1596140364 -1672293920 -2056933336 2029546514 -621981374 1887168670 1303742359 -1870296425 144168610 -1259526199 -233488868 -1773181051 -813802928 1019379439 -1335850287 -919719152 -1834843799 -154743739 238318714 -943261406 -346788286 2056664368 -1423934935 2147159616 854931557 -7517453 -645087815 -1758614830 -595214516 -980346450
REM
CELL 1.54180   50.00000   50.00000   50.00000   90.00000   90.00000   90.00000
LATT -1
SFAC C  
C      1  0.4445690000000  0.4902970000000  0.4178400000000 1.0
C      1  0.4407900000000  0.5075830000000  0.5779400000000 1.0
C      1  0.5596080000000  0.5100330000000  0.4182180000000 1.0
C      1  0.5581920000000  0.4916370000000  0.5766190000000 1.0
C      1  0.4419050000000  0.4244910000000  0.4944720000000 1.0
C      1  0.4421780000000  0.5773380000000  0.5060160000000 1.0
C      1  0.5584520000000  0.4168530000000  0.5082850000000 1.0
C      1  0.5545480000000  0.5768560000000  0.4942210000000 1.0
C      1  0.5439480000000  0.5160260000000  0.4634050000000 1.0
C      1  0.5398240000000  0.4843110000000  0.5308810000000 1.0
C      1  0.4548840000000  0.4838810000000  0.4640580000000 1.0
C      1  0.4524250000000  0.5110330000000  0.5398490000000 1.0
C      1  0.5424240000000  0.4656030000000  0.5042360000000 1.0
C      1  0.5464130000000  0.5382950000000  0.4874090000000 1.0
C      1  0.4516950000000  0.4653940000000  0.4900290000000 1.0
C      1  0.4574010000000  0.5323840000000  0.5162340000000 1.0
C      1  0.5188190000000  0.5975920000000  0.5321340000000 1.0
C      1  0.5229010000000  0.3990690000000  0.4725380000000 1.0
C      1  0.4753940000000  0.4007940000000  0.5291100000000 1.0
C      1  0.4774900000000  0.5979410000000  0.4723910000000 1.0
C      1  0.5234060000000  0.5299270000000  0.6018260000000 1.0
C      1  0.5277120000000  0.4745080000000  0.3928210000000 1.0
C      1  0.4800640000000  0.5192390000000  0.3911990000000 1.0
C      1  0.4913040000000  0.4769690000000  0.6079910000000 1.0
C      1  0.5197630000000  0.5185520000000  0.5697960000000 1.0
C      1  0.5234920000000  0.4913030000000  0.4218160000000 1.0
C      1  0.4772130000000  0.4917250000000  0.5802370000000 1.0
C      1  0.4840500000000  0.5049850000000  0.4218200000000 1.0
C      1  0.5129050000000  0.5752730000000  0.5071740000000 1.0
C      1  0.5156960000000  0.4200800000000  0.4982840000000 1.0
C      1  0.4813930000000  0.5773010000000  0.4983770000000 1.0
C      1  0.4829780000000  0.4207320000000  0.5032700000000 1.0
C      1  0.5357120000000  0.4707540000000  0.5810610000000 1.0
C      1  0.5342860000000  0.5288820000000  0.4155210000000 1.0
C      1  0.4654340000000  0.5293210000000  0.5868910000000 1.0
C      1  0.4689680000000  0.4689110000000  0.4147300000000 1.0
C      1  0.5349430000000  0.5766330000000  0.4710510000000 1.0
C      1  0.5389380000000  0.4208070000000  0.5304670000000 1.0
C      1  0.4617910000000  0.5826550000000  0.5325390000000 1.0
C      1  0.4612730000000  0.4211850000000  0.4698940000000 1.0
C      1  0.5848400000000  0.4657750000000  0.4225130000000 1.0
C      1  0.5813080000000  0.5365900000000  0.5740010000000 1.0
C      1  0.4242100000000  0.5346030000000  0.4245040000000 1.0
C      1  0.4158700000000  0.4679680000000  0.5701900000000 1.0
C      1  0.5721900000000  0.4414210000000  0.4642200000000 1.0
C      1  0.5772020000000  0.5651220000000  0.5283730000000 1.0
C      1  0.4397480000000  0.4362120000000  0.5421320000000 1.0
C      1  0.4408960000000  0.5635050000000  0.4593680000000 1.0
C      1  0.4293590000000  0.4873490000000  0.4458460000000 1.0
C      1  0.4229210000000  0.5114380000000  0.5514860000000 1.0
C      1  0.5707420000000  0.5150950000000  0.4474230000000 1.0
C      1  0.5671300000000  0.4874050000000  0.5467270000000 1.0
C      1  0.4237240000000  0.4494240000000  0.4903290000000 1.0
C      1  0.4304900000000  0.5482170000000  0.5092620000000 1.0
C      1  0.5702880000000  0.4471860000000  0.4984850000000 1.0
C      1  0.5750760000000  0.5531280000000  0.4922840000000 1.0
C      1  0.5828490000000  0.4605910000000  0.5465800000000 1.0
C      1  0.5856810000000  0.5423390000000  0.4461640000000 1.0
C      1  0.4083730000000  0.5382000000000  0.5524150000000 1.0
C      1  0.4112170000000  0.4624360000000  0.4445430000000 1.0
C      1  0.5908200000000  0.5567080000000  0.4660090000000 1.0
C      1  0.5885070000000  0.4474960000000  0.5261440000000 1.0
C      1  0.4121250000000  0.5546750000000  0.5339410000000 1.0
C      1  0.4079520000000  0.4474210000000  0.4642730000000 1.0
C      1  0.4812450000000  0.5589980000000  0.5824160000000 1.0
C      1  0.4826050000000  0.4381630000000  0.4198790000000 1.0
C      1  0.5233260000000  0.4390520000000  0.5813210000000 1.0
C      1  0.5263980000000  0.5596790000000  0.4227610000000 1.0
C      1  0.4677690000000  0.5767570000000  0.5654860000000 1.0
C      1  0.4854290000000  0.4234530000000  0.4460630000000 1.0
C      1  0.5418270000000  0.5755060000000  0.4392550000000 1.0
C      1  0.5171660000000  0.4222650000000  0.5565440000000 1.0
C      1  0.4475160000000  0.4186900000000  0.5214310000000 1.0
C      1  0.4474070000000  0.5832360000000  0.4785730000000 1.0
C      1  0.5480090000000  0.5822310000000  0.5243660000000 1.0
C      1  0.5497100000000  0.4194990000000  0.4772630000000 1.0
C      1  0.4501070000000  0.5202240000000  0.4082650000000 1.0
C      1  0.4377290000000  0.4795800000000  0.5831180000000 1.0
C      1  0.5553420000000  0.5197000000000  0.5878090000000 1.0
C      1  0.5581290000000  0.4795650000000  0.4075050000000 1.0
C      1  0.5847340000000  0.5059710000000  0.5314960000000 1.0
C      1  0.5878740000000  0.4971260000000  0.4643030000000 1.0
C      1  0.4101330000000  0.4923670000000  0.5327490000000 1.0
C      1  0.4172970000000  0.5068150000000  0.4665690000000 1.0
C      1  0.5892310000000  0.5334320000000  0.5111290000000 1.0
C      1  0.5910900000000  0.4707380000000  0.4855000000000 1.0
C      1  0.4148390000000  0.5318060000000  0.4894530000000 1.0
C      1  0.4114460000000  0.4673760000000  0.5108980000000 1.0
C      1  0.5134180000000  0.5116660000000  0.3964990000000 1.0
C      1  0.5157370000000  0.4921310000000  0.5898450000000 1.0
C      1  0.4937850000000  0.4838990000000  0.3969670000000 1.0
C      1  0.4927570000000  0.5154760000000  0.5989660000000 1.0
C      1  0.5095380000000  0.4045600000000  0.5279320000000 1.0
C      1  0.5106700000000  0.5947700000000  0.4792070000000 1.0
C      1  0.4887590000000  0.4037450000000  0.4743300000000 1.0
C      1  0.4866770000000  0.6002240000000  0.5229700000000 1.0
C      1  0.4747430000000  0.4505200000000  0.4733050000000 1.0
C      1  0.4750450000000  0.5540510000000  0.5333980000000 1.0
C      1  0.5207890000000  0.5478670000000  0.4697410000000 1.0
C      1  0.5245440000000  0.4480530000000  0.5254530000000 1.0
C      1  0.4750370000000  0.4665930000000  0.4468280000000 1.0
C      1  0.4640440000000  0.5354070000000  0.5554370000000 1.0
C      1  0.5230000000000  0.4664400000000  0.5522870000000 1.0
C      1  0.5189390000000  0.5280770000000  0.4457420000000 1.0
C      1  0.4745660000000  0.5375480000000  0.4242920000000 1.0
C      1  0.4631170000000  0.4610080000000  0.5826130000000 1.0
C      1  0.5392190000000  0.4601800000000  0.4280650000000 1.0
C      1  0.5423550000000  0.5439530000000  0.5705010000000 1.0
C      1  0.4593010000000  0.4377350000000  0.5621520000000 1.0
C      1  0.4629920000000  0.5588120000000  0.4437740000000 1.0
C      1  0.5430860000000  0.4424490000000  0.4513640000000 1.0
C      1  0.5485050000000  0.5553080000000  0.5434040000000 1.0
C      1  0.5127010000000  0.5556790000000  0.5823240000000 1.0
C      1  0.5115280000000  0.4522580000000  0.4129090000000 1.0
C      1  0.4968510000000  0.4570630000000  0.5809890000000 1.0
C      1  0.4992450000000  0.5602200000000  0.4294180000000 1.0
C      1  0.5190760000000  0.5700250000000  0.5520350000000 1.0
C      1  0.5155330000000  0.4292270000000  0.4596060000000 1.0
C      1  0.4879980000000  0.5685240000000  0.4599420000000 1.0
C      1  0.4844720000000  0.4254810000000  0.5506550000000 1.0
C      1  0.5203370000000  0.4914700000000  0.4613030000000 1.0
C      1  0.5196310000000  0.5055790000000  0.5219200000000 1.0
C      1  0.4717070000000  0.5079250000000  0.4695930000000 1.0
C      1  0.4797200000000  0.4991120000000  0.5498180000000 1.0
C      1  0.5171760000000  0.4750970000000  0.4869910000000 1.0
C      1  0.5309200000000  0.5320360000000  0.5116610000000 1.0
C      1  0.4776390000000  0.4708580000000  0.5075720000000 1.0
C      1  0.4782630000000  0.5231000000000  0.4951770000000 1.0
C      1  0.4939480000000  0.5098430000000  0.4502340000000 1.0
C      1  0.4901150000000  0.4689900000000  0.5500390000000 1.0
C      1  0.5031060000000  0.4730720000000  0.4384430000000 1.0
C      1  0.5038960000000  0.5185860000000  0.5453820000000 1.0
C      1  0.4908960000000  0.4462770000000  0.5245340000000 1.0
C      1  0.4931080000000  0.5479990000000  0.4857700000000 1.0
C      1  0.5037160000000  0.4480570000000  0.4830370000000 1.0
C      1  0.5066590000000  0.5490690000000  0.5283130000000 1.0
C      1  0.4197810000000  0.4577390000000  0.5414570000000 1.0
C      1  0.4222140000000  0.5393260000000  0.4575360000000 1.0
C      1  0.5834430000000  0.5358710000000  0.5445480000000 1.0
C      1  0.5861310000000  0.4670590000000  0.4513220000000 1.0
C      1  0.5846990000000  0.5017410000000  0.4979750000000 1.0
C      1  0.4153550000000  0.4994390000000  0.4998890000000 1.0
C      1  0.4966930000000  0.4956350000000  0.5030720000000 1.0
END
