TITL C-3289327-5623-491 8.61632730810318e-05 125000 -771.478534690273 0 0 137 (C1) n - 1
REM
REM in /nfs/bkarasulu/CARBON/AIRSS/Generating-Clusters/AIREBO/with-SteepDescent/Higher-Symm/SD-CG/HFTN-CG
REM
REM
REM
REM
REM
REM ./C.cell (b20cbc046b6831c77cfcea5457e17084)
REM
REM compiler GCC version 9.2.1 20190827 (Red Hat 9.2.1-1)
REM options -cpp -mtune=generic -march=x86-64 -g -O0 -fpre-include=/usr/include/finclude/math-vector-fortran.h
REM seed 1395693731 1338158896 606272847 -1605546350 -634456444 -1041761099 489641153 -586608359 -1599766907 -2127439481 -1717888679 1609581600 1991029047 -1911188863 306009283 617185798 1965872899 -601308835 350066943 -1647782769 -765277687 1485897970 2057680860 -59915989 -1968929774 1770075215 644246476 -421555045 -2100094970 -1403755921 1317216467 -1926612300 2132427246
REM
CELL 1.54180   50.00000   50.00000   50.00000   90.00000   90.00000   90.00000
LATT -1
SFAC C  
C      1  0.4906470000000  0.5612050000000  0.4860010000000 1.0
C      1  0.4247830000000  0.5222900000000  0.4867500000000 1.0
C      1  0.4761480000000  0.4492640000000  0.4824630000000 1.0
C      1  0.5432240000000  0.4552260000000  0.4795400000000 1.0
C      1  0.5541050000000  0.5287820000000  0.4795590000000 1.0
C      1  0.4823590000000  0.5299090000000  0.5865860000000 1.0
C      1  0.4611230000000  0.4951450000000  0.5714190000000 1.0
C      1  0.4888160000000  0.4678230000000  0.5927780000000 1.0
C      1  0.5452490000000  0.4714990000000  0.5972020000000 1.0
C      1  0.5296710000000  0.5247020000000  0.5867330000000 1.0
C      1  0.5728360000000  0.5384230000000  0.4456500000000 1.0
C      1  0.4908710000000  0.5738980000000  0.4481040000000 1.0
C      1  0.4254700000000  0.5126690000000  0.4466710000000 1.0
C      1  0.4644900000000  0.4299350000000  0.4476530000000 1.0
C      1  0.5554110000000  0.4454920000000  0.4429420000000 1.0
C      1  0.4348590000000  0.4667130000000  0.4551900000000 1.0
C      1  0.5115360000000  0.4254040000000  0.4498170000000 1.0
C      1  0.5746230000000  0.4905990000000  0.4495090000000 1.0
C      1  0.5371700000000  0.5702860000000  0.4489610000000 1.0
C      1  0.4491250000000  0.5543120000000  0.4452070000000 1.0
C      1  0.4059440000000  0.5385420000000  0.5235250000000 1.0
C      1  0.4214820000000  0.4253340000000  0.5342030000000 1.0
C      1  0.5518580000000  0.4121200000000  0.5334910000000 1.0
C      1  0.5993570000000  0.5322880000000  0.5314710000000 1.0
C      1  0.5137690000000  0.6056500000000  0.5362570000000 1.0
C      1  0.4586780000000  0.5446880000000  0.5341780000000 1.0
C      1  0.4470500000000  0.4829330000000  0.5361170000000 1.0
C      1  0.5013610000000  0.4445240000000  0.5381970000000 1.0
C      1  0.5477700000000  0.4887360000000  0.5400820000000 1.0
C      1  0.5246930000000  0.5449940000000  0.5372300000000 1.0
C      1  0.4692500000000  0.5348000000000  0.4306370000000 1.0
C      1  0.4592400000000  0.4767950000000  0.4371450000000 1.0
C      1  0.5050910000000  0.4530950000000  0.4360340000000 1.0
C      1  0.5459240000000  0.4975670000000  0.4374560000000 1.0
C      1  0.5296450000000  0.5493790000000  0.4294490000000 1.0
C      1  0.5961130000000  0.5052260000000  0.5185470000000 1.0
C      1  0.5289980000000  0.5927860000000  0.5139970000000 1.0
C      1  0.4165980000000  0.5562640000000  0.5061050000000 1.0
C      1  0.4215370000000  0.4442640000000  0.5106530000000 1.0
C      1  0.5299940000000  0.4077100000000  0.5130020000000 1.0
C      1  0.5342090000000  0.5168600000000  0.5539440000000 1.0
C      1  0.4916080000000  0.5528820000000  0.5365740000000 1.0
C      1  0.4511550000000  0.5146490000000  0.5477770000000 1.0
C      1  0.4701220000000  0.4579190000000  0.5393400000000 1.0
C      1  0.5229180000000  0.4671800000000  0.5487140000000 1.0
C      1  0.5425540000000  0.5666630000000  0.5179750000000 1.0
C      1  0.4437910000000  0.5641300000000  0.5138360000000 1.0
C      1  0.4214360000000  0.4730800000000  0.5160040000000 1.0
C      1  0.5035390000000  0.4192370000000  0.5196380000000 1.0
C      1  0.5795380000000  0.4854320000000  0.5282490000000 1.0
C      1  0.5671190000000  0.4852380000000  0.5816800000000 1.0
C      1  0.5268030000000  0.5555000000000  0.5770900000000 1.0
C      1  0.4580620000000  0.5425190000000  0.5756130000000 1.0
C      1  0.4400460000000  0.4735820000000  0.5799490000000 1.0
C      1  0.5030480000000  0.4432520000000  0.5836200000000 1.0
C      1  0.4658980000000  0.5696910000000  0.5644720000000 1.0
C      1  0.4212580000000  0.4961880000000  0.5715280000000 1.0
C      1  0.4828070000000  0.4262420000000  0.5688170000000 1.0
C      1  0.5631550000000  0.4576400000000  0.5648770000000 1.0
C      1  0.5570540000000  0.5465080000000  0.5678470000000 1.0
C      1  0.4958220000000  0.5546200000000  0.5702720000000 1.0
C      1  0.4337970000000  0.5238740000000  0.5755240000000 1.0
C      1  0.4662710000000  0.4555760000000  0.5730530000000 1.0
C      1  0.5310520000000  0.4514790000000  0.5744730000000 1.0
C      1  0.5613270000000  0.5133780000000  0.5741960000000 1.0
C      1  0.5624850000000  0.5623430000000  0.4596780000000 1.0
C      1  0.4648180000000  0.5734920000000  0.4580460000000 1.0
C      1  0.4185350000000  0.4890940000000  0.4611980000000 1.0
C      1  0.4865800000000  0.4170620000000  0.4612590000000 1.0
C      1  0.5753680000000  0.4627880000000  0.4571500000000 1.0
C      1  0.4101170000000  0.4929610000000  0.4908320000000 1.0
C      1  0.4836330000000  0.4183460000000  0.4926890000000 1.0
C      1  0.5752490000000  0.4582390000000  0.4871150000000 1.0
C      1  0.5613600000000  0.5602530000000  0.4902600000000 1.0
C      1  0.4621740000000  0.5770290000000  0.4889110000000 1.0
C      1  0.4540990000000  0.5962450000000  0.5150770000000 1.0
C      1  0.3911340000000  0.4877710000000  0.5185950000000 1.0
C      1  0.4770650000000  0.3984000000000  0.5191870000000 1.0
C      1  0.5849830000000  0.4601250000000  0.5135440000000 1.0
C      1  0.5761940000000  0.5715490000000  0.5187020000000 1.0
C      1  0.4521740000000  0.5062370000000  0.4311940000000 1.0
C      1  0.4751770000000  0.4507350000000  0.4305180000000 1.0
C      1  0.5346950000000  0.4676900000000  0.4344480000000 1.0
C      1  0.5497880000000  0.5290710000000  0.4295060000000 1.0
C      1  0.4990470000000  0.5456940000000  0.4342730000000 1.0
C      1  0.4913850000000  0.5836740000000  0.5219750000000 1.0
C      1  0.4185890000000  0.5119090000000  0.5248330000000 1.0
C      1  0.4544250000000  0.4302670000000  0.5273450000000 1.0
C      1  0.5501200000000  0.4414970000000  0.5161170000000 1.0
C      1  0.5680090000000  0.5329860000000  0.5182980000000 1.0
C      1  0.5397810000000  0.5016600000000  0.4952600000000 1.0
C      1  0.5115090000000  0.5377360000000  0.4980580000000 1.0
C      1  0.4587550000000  0.5232410000000  0.4883360000000 1.0
C      1  0.4602980000000  0.4763010000000  0.4956470000000 1.0
C      1  0.5138220000000  0.4649980000000  0.4935590000000 1.0
C      1  0.5316250000000  0.5092600000000  0.4631390000000 1.0
C      1  0.5019540000000  0.5363480000000  0.4654720000000 1.0
C      1  0.4674970000000  0.5172660000000  0.4597170000000 1.0
C      1  0.4752170000000  0.4784060000000  0.4649670000000 1.0
C      1  0.5146290000000  0.4730940000000  0.4615390000000 1.0
C      1  0.4423490000000  0.4402390000000  0.4632770000000 1.0
C      1  0.5392120000000  0.4237800000000  0.4559760000000 1.0
C      1  0.5855160000000  0.5154560000000  0.4591590000000 1.0
C      1  0.5141530000000  0.5824340000000  0.4615560000000 1.0
C      1  0.4250070000000  0.5411170000000  0.4516160000000 1.0
C      1  0.4745090000000  0.4138290000000  0.5465040000000 1.0
C      1  0.5718680000000  0.4482820000000  0.5407290000000 1.0
C      1  0.5692470000000  0.5540520000000  0.5447260000000 1.0
C      1  0.4650550000000  0.5834640000000  0.5416020000000 1.0
C      1  0.4077460000000  0.4929370000000  0.5478080000000 1.0
C      1  0.5071040000000  0.5887950000000  0.4922380000000 1.0
C      1  0.4121680000000  0.5495530000000  0.4774830000000 1.0
C      1  0.4474500000000  0.4353140000000  0.4942060000000 1.0
C      1  0.5435310000000  0.4231240000000  0.4882550000000 1.0
C      1  0.5844800000000  0.5193880000000  0.4916100000000 1.0
C      1  0.4815970000000  0.5308270000000  0.5126770000000 1.0
C      1  0.4476870000000  0.5023940000000  0.5100200000000 1.0
C      1  0.4870920000000  0.4719220000000  0.5133990000000 1.0
C      1  0.5398730000000  0.4738000000000  0.5132970000000 1.0
C      1  0.5380660000000  0.5270600000000  0.5155050000000 1.0
C      1  0.5171210000000  0.4873390000000  0.6809950000000 1.0
C      1  0.4983320000000  0.5029190000000  0.4602500000000 1.0
C      1  0.5188430000000  0.4820190000000  0.7066030000000 1.0
C      1  0.5009930000000  0.4999440000000  0.3996390000000 1.0
C      1  0.5154170000000  0.5056710000000  0.6038950000000 1.0
C      1  0.5080670000000  0.4919050000000  0.2673720000000 1.0
C      1  0.5038030000000  0.4967380000000  0.3465740000000 1.0
C      1  0.5172540000000  0.4944980000000  0.6553400000000 1.0
C      1  0.4996480000000  0.5014780000000  0.4262970000000 1.0
C      1  0.5071220000000  0.4969060000000  0.5528410000000 1.0
C      1  0.5066600000000  0.4934990000000  0.2934920000000 1.0
C      1  0.4998950000000  0.5016680000000  0.4930720000000 1.0
C      1  0.5052300000000  0.4951190000000  0.3200340000000 1.0
C      1  0.5170790000000  0.4991050000000  0.6291100000000 1.0
C      1  0.4922510000000  0.5014980000000  0.5262020000000 1.0
C      1  0.5023830000000  0.4983510000000  0.3731090000000 1.0
C      1  0.4913380000000  0.4985260000000  0.5827220000000 1.0
END
