TITL C-3289328-6581-481 0.000266723576264879 125000 -865.635613416769 0 0 161 (C1) n - 1
REM
REM in /nfs/bkarasulu/CARBON/AIRSS/Generating-Clusters/AIREBO/with-SteepDescent/Higher-Symm/SD-CG/HFTN-CG
REM
REM
REM
REM
REM
REM ./C.cell (b20cbc046b6831c77cfcea5457e17084)
REM
REM compiler GCC version 9.2.1 20190827 (Red Hat 9.2.1-1)
REM options -cpp -mtune=generic -march=x86-64 -g -O0 -fpre-include=/usr/include/finclude/math-vector-fortran.h
REM seed 1784624155 -816381359 -716381638 -1816841564 -1556677759 1791242367 -710091166 750527989 743888864 1318032232 -1090949285 1568018363 -2120872892 984339184 -404983776 -1832085531 -2085410311 -2136045393 -1907125212 290084206 1709252524 1723735131 -1856268165 768551474 -1276529163 -1809934307 1459746232 -558352216 -321258735 -696746367 -1914616562 1972449550 895888644
REM
CELL 1.54180   50.00000   50.00000   50.00000   90.00000   90.00000   90.00000
LATT -1
SFAC C  
C      1  0.4587930000000  0.5174030000000  0.3952720000000 1.0
C      1  0.5321140000000  0.5970810000000  0.5157870000000 1.0
C      1  0.4671360000000  0.4836780000000  0.5970160000000 1.0
C      1  0.5403980000000  0.3992760000000  0.4818000000000 1.0
C      1  0.5596050000000  0.5530240000000  0.4321090000000 1.0
C      1  0.4396950000000  0.5677350000000  0.5581630000000 1.0
C      1  0.5590130000000  0.4420470000000  0.5642400000000 1.0
C      1  0.4371020000000  0.4335020000000  0.4417750000000 1.0
C      1  0.4033690000000  0.5248440000000  0.4836780000000 1.0
C      1  0.5956080000000  0.5135120000000  0.5255270000000 1.0
C      1  0.4026660000000  0.4746890000000  0.5166610000000 1.0
C      1  0.5983210000000  0.4811020000000  0.4761480000000 1.0
C      1  0.4576890000000  0.5896580000000  0.5158750000000 1.0
C      1  0.5413130000000  0.4828400000000  0.5881140000000 1.0
C      1  0.4591960000000  0.4114380000000  0.4834220000000 1.0
C      1  0.5381110000000  0.5099510000000  0.4180510000000 1.0
C      1  0.5607700000000  0.5484340000000  0.5552280000000 1.0
C      1  0.4409890000000  0.4454440000000  0.5460230000000 1.0
C      1  0.5603050000000  0.4516500000000  0.4442330000000 1.0
C      1  0.4424930000000  0.5515740000000  0.4513670000000 1.0
C      1  0.4078950000000  0.5371320000000  0.5329520000000 1.0
C      1  0.5955620000000  0.4640630000000  0.5375540000000 1.0
C      1  0.4065900000000  0.4625710000000  0.4682320000000 1.0
C      1  0.5912660000000  0.5302470000000  0.4647350000000 1.0
C      1  0.5114340000000  0.5201570000000  0.5496540000000 1.0
C      1  0.4903760000000  0.4537050000000  0.5176670000000 1.0
C      1  0.5097640000000  0.4827450000000  0.4565500000000 1.0
C      1  0.4890000000000  0.5451980000000  0.4837710000000 1.0
C      1  0.4643890000000  0.5816000000000  0.5465630000000 1.0
C      1  0.5346320000000  0.4527950000000  0.5787750000000 1.0
C      1  0.4607620000000  0.4184630000000  0.4508290000000 1.0
C      1  0.5341780000000  0.5400580000000  0.4210110000000 1.0
C      1  0.5008690000000  0.5326050000000  0.5860470000000 1.0
C      1  0.4985860000000  0.4129940000000  0.5238790000000 1.0
C      1  0.5092830000000  0.4918880000000  0.4177770000000 1.0
C      1  0.4982730000000  0.5824720000000  0.4670930000000 1.0
C      1  0.4813620000000  0.5143290000000  0.5644180000000 1.0
C      1  0.5186940000000  0.4365420000000  0.5097790000000 1.0
C      1  0.4822490000000  0.4911470000000  0.4384250000000 1.0
C      1  0.5180380000000  0.5626760000000  0.4865030000000 1.0
C      1  0.4595600000000  0.4318630000000  0.5692740000000 1.0
C      1  0.5400370000000  0.4307160000000  0.4291530000000 1.0
C      1  0.4603930000000  0.5672930000000  0.4290450000000 1.0
C      1  0.5400930000000  0.5696120000000  0.5694640000000 1.0
C      1  0.4016510000000  0.5031890000000  0.5350740000000 1.0
C      1  0.6004370000000  0.4628220000000  0.5035090000000 1.0
C      1  0.4030350000000  0.4968290000000  0.4655060000000 1.0
C      1  0.5967540000000  0.5324160000000  0.4988140000000 1.0
C      1  0.4836940000000  0.5631380000000  0.4058130000000 1.0
C      1  0.5158570000000  0.5886900000000  0.5727000000000 1.0
C      1  0.4844630000000  0.4266320000000  0.5862930000000 1.0
C      1  0.5121740000000  0.4148000000000  0.4365590000000 1.0
C      1  0.4884940000000  0.3960160000000  0.4911550000000 1.0
C      1  0.5067210000000  0.5067910000000  0.3808060000000 1.0
C      1  0.4837810000000  0.6068660000000  0.5077130000000 1.0
C      1  0.5159130000000  0.4903260000000  0.6067780000000 1.0
C      1  0.4048210000000  0.4461630000000  0.4980140000000 1.0
C      1  0.5949690000000  0.4999510000000  0.4480330000000 1.0
C      1  0.4049270000000  0.5532780000000  0.5023030000000 1.0
C      1  0.5936260000000  0.4944040000000  0.5535860000000 1.0
C      1  0.5215290000000  0.4860710000000  0.4849070000000 1.0
C      1  0.4801970000000  0.5137680000000  0.4909830000000 1.0
C      1  0.5213200000000  0.5145350000000  0.5198920000000 1.0
C      1  0.4799790000000  0.4855150000000  0.5117920000000 1.0
C      1  0.5341110000000  0.4590440000000  0.4112760000000 1.0
C      1  0.4662370000000  0.5825180000000  0.4590460000000 1.0
C      1  0.5326790000000  0.5388150000000  0.5819720000000 1.0
C      1  0.4688440000000  0.4177800000000  0.5396700000000 1.0
C      1  0.4593230000000  0.5346630000000  0.4195430000000 1.0
C      1  0.5441680000000  0.5796620000000  0.5372400000000 1.0
C      1  0.4552920000000  0.4636940000000  0.5782130000000 1.0
C      1  0.5415780000000  0.4213370000000  0.4618110000000 1.0
C      1  0.5025310000000  0.5410800000000  0.4182150000000 1.0
C      1  0.4982050000000  0.5848680000000  0.5479790000000 1.0
C      1  0.5009290000000  0.4520420000000  0.5821820000000 1.0
C      1  0.4910530000000  0.4184400000000  0.4603980000000 1.0
C      1  0.5529280000000  0.5387470000000  0.5235730000000 1.0
C      1  0.4477890000000  0.4764260000000  0.5336950000000 1.0
C      1  0.5537920000000  0.4647010000000  0.4750090000000 1.0
C      1  0.4469280000000  0.5221720000000  0.4679840000000 1.0
C      1  0.4508350000000  0.4914890000000  0.3947300000000 1.0
C      1  0.5436030000000  0.5929790000000  0.4898330000000 1.0
C      1  0.4552100000000  0.5096670000000  0.5939870000000 1.0
C      1  0.5462350000000  0.4076230000000  0.5075600000000 1.0
C      1  0.4745930000000  0.4462200000000  0.4368580000000 1.0
C      1  0.5233200000000  0.5590800000000  0.4470290000000 1.0
C      1  0.4768770000000  0.5546970000000  0.5632010000000 1.0
C      1  0.5217170000000  0.4371820000000  0.5514600000000 1.0
C      1  0.4275850000000  0.5045290000000  0.4467940000000 1.0
C      1  0.5769430000000  0.5542650000000  0.5076010000000 1.0
C      1  0.4257760000000  0.4927980000000  0.5526880000000 1.0
C      1  0.5764850000000  0.4464280000000  0.4911290000000 1.0
C      1  0.5054240000000  0.6021200000000  0.5240450000000 1.0
C      1  0.4939240000000  0.4747700000000  0.6011090000000 1.0
C      1  0.5123610000000  0.3947180000000  0.4671560000000 1.0
C      1  0.4876440000000  0.5307230000000  0.3916580000000 1.0
C      1  0.5818240000000  0.5623450000000  0.5371970000000 1.0
C      1  0.4201440000000  0.4633840000000  0.5591590000000 1.0
C      1  0.5813970000000  0.4391420000000  0.4619300000000 1.0
C      1  0.4226770000000  0.5331860000000  0.4383240000000 1.0
C      1  0.4535780000000  0.4573480000000  0.4821480000000 1.0
C      1  0.5470410000000  0.5171310000000  0.4589830000000 1.0
C      1  0.4524800000000  0.5429130000000  0.5189420000000 1.0
C      1  0.5468860000000  0.4832040000000  0.5417270000000 1.0
C      1  0.5478300000000  0.5150010000000  0.5971390000000 1.0
C      1  0.4575570000000  0.4015280000000  0.5144620000000 1.0
C      1  0.5523710000000  0.4852040000000  0.4024180000000 1.0
C      1  0.4512980000000  0.5975150000000  0.4833610000000 1.0
C      1  0.4489180000000  0.4824530000000  0.4395850000000 1.0
C      1  0.5520640000000  0.5603260000000  0.4855640000000 1.0
C      1  0.4474400000000  0.5151010000000  0.5613330000000 1.0
C      1  0.5525070000000  0.4401620000000  0.5123740000000 1.0
C      1  0.4180610000000  0.5170960000000  0.5097370000000 1.0
C      1  0.5797450000000  0.4852990000000  0.5181080000000 1.0
C      1  0.4186620000000  0.4822350000000  0.4911520000000 1.0
C      1  0.5826790000000  0.5063540000000  0.4847570000000 1.0
C      1  0.4988380000000  0.5883750000000  0.4095270000000 1.0
C      1  0.5020740000000  0.5859320000000  0.5967140000000 1.0
C      1  0.4971510000000  0.4026930000000  0.5807840000000 1.0
C      1  0.5034730000000  0.4321290000000  0.4131010000000 1.0
C      1  0.5184460000000  0.5142090000000  0.4525600000000 1.0
C      1  0.4813900000000  0.5484750000000  0.5163430000000 1.0
C      1  0.5180080000000  0.4868070000000  0.5485260000000 1.0
C      1  0.4826140000000  0.4529330000000  0.4845710000000 1.0
C      1  0.5627130000000  0.4552440000000  0.5382290000000 1.0
C      1  0.4360480000000  0.4586390000000  0.4555290000000 1.0
C      1  0.5630240000000  0.5448110000000  0.4601470000000 1.0
C      1  0.4368950000000  0.5410990000000  0.5468150000000 1.0
C      1  0.4955470000000  0.3809120000000  0.5164750000000 1.0
C      1  0.5189140000000  0.4786920000000  0.3879580000000 1.0
C      1  0.4893580000000  0.6094020000000  0.4814760000000 1.0
C      1  0.5105660000000  0.5162940000000  0.6114230000000 1.0
C      1  0.5281110000000  0.4446890000000  0.4781090000000 1.0
C      1  0.4700430000000  0.5201960000000  0.4445900000000 1.0
C      1  0.5271960000000  0.5574940000000  0.5185310000000 1.0
C      1  0.4718430000000  0.4826580000000  0.5562330000000 1.0
C      1  0.4859540000000  0.5605670000000  0.5954370000000 1.0
C      1  0.5111800000000  0.4049930000000  0.5544340000000 1.0
C      1  0.4943050000000  0.4616100000000  0.4138180000000 1.0
C      1  0.5126670000000  0.5895510000000  0.4371120000000 1.0
C      1  0.5389220000000  0.4767070000000  0.4399270000000 1.0
C      1  0.4578920000000  0.5584420000000  0.4800990000000 1.0
C      1  0.5444650000000  0.5198980000000  0.5577810000000 1.0
C      1  0.4587480000000  0.4412140000000  0.5184630000000 1.0
C      1  0.4362430000000  0.4333130000000  0.4958080000000 1.0
C      1  0.5638940000000  0.4996850000000  0.4377120000000 1.0
C      1  0.4363080000000  0.5663340000000  0.5033210000000 1.0
C      1  0.5641820000000  0.4955630000000  0.5663570000000 1.0
C      1  0.4626660000000  0.4678890000000  0.4127900000000 1.0
C      1  0.5370540000000  0.5872650000000  0.4605690000000 1.0
C      1  0.4617990000000  0.5389400000000  0.5895610000000 1.0
C      1  0.5368280000000  0.4114050000000  0.5350440000000 1.0
C      1  0.5523620000000  0.5054150000000  0.5168820000000 1.0
C      1  0.4484590000000  0.4826780000000  0.5002740000000 1.0
C      1  0.5524080000000  0.4975200000000  0.4838010000000 1.0
C      1  0.4482530000000  0.5166680000000  0.5015200000000 1.0
C      1  0.5016520000000  0.4505430000000  0.4575730000000 1.0
C      1  0.4968560000000  0.5376650000000  0.4515640000000 1.0
C      1  0.5017690000000  0.5513870000000  0.5402680000000 1.0
C      1  0.4980180000000  0.4619340000000  0.5497730000000 1.0
C      1  0.5052850000000  0.5001370000000  0.5026100000000 1.0
END
