TITL C-3289329-2751-295 438.626578221296 125000 -360.192298011905 0 0 64 (C1) n - 1
REM
REM in /nfs/bkarasulu/CARBON/AIRSS/Generating-Clusters/AIREBO/with-SteepDescent/Higher-Symm/SD-CG/HFTN-CG
REM
REM
REM
REM
REM
REM ./C.cell (b20cbc046b6831c77cfcea5457e17084)
REM
REM compiler GCC version 9.2.1 20190827 (Red Hat 9.2.1-1)
REM options -cpp -mtune=generic -march=x86-64 -g -O0 -fpre-include=/usr/include/finclude/math-vector-fortran.h
REM seed -1678884396 -1566062537 334926878 2144803509 1841017946 -1927819787 1156396166 889482599 873531502 1634871304 1275154152 -393546220 -15344207 -1859082936 -1331840694 -1088664305 -389791720 2137021994 -931730725 1988026297 1817682930 1977519423 973778112 87036594 1669133528 -484975997 1781625756 370732295 -1095180952 -2061676024 -906613513 -986267217 -1474417496
REM
CELL 1.54180   50.00000   50.00000   50.00000   90.00000   90.00000   90.00000
LATT -1
SFAC C  
C      1  0.4912070000000  0.5740350000000  0.5338320000000 1.0
C      1  0.5052340000000  0.4260990000000  0.5338070000000 1.0
C      1  0.4801220000000  0.5819990000000  0.4505500000000 1.0
C      1  0.5170790000000  0.4142650000000  0.4498300000000 1.0
C      1  0.5689820000000  0.4406750000000  0.5154440000000 1.0
C      1  0.4310420000000  0.5598170000000  0.5175000000000 1.0
C      1  0.5630920000000  0.4440930000000  0.4830470000000 1.0
C      1  0.4383810000000  0.5565270000000  0.4863800000000 1.0
C      1  0.4896450000000  0.4964760000000  0.5106020000000 1.0
C      1  0.5208400000000  0.5055970000000  0.5142350000000 1.0
C      1  0.4869380000000  0.4909440000000  0.4785980000000 1.0
C      1  0.5154390000000  0.5055430000000  0.4815770000000 1.0
C      1  0.4402420000000  0.5028420000000  0.4844940000000 1.0
C      1  0.5584080000000  0.5015390000000  0.4866800000000 1.0
C      1  0.4419570000000  0.5019350000000  0.5187610000000 1.0
C      1  0.5595450000000  0.4988460000000  0.5206990000000 1.0
C      1  0.5178840000000  0.5598470000000  0.4781210000000 1.0
C      1  0.4805860000000  0.4407530000000  0.4767570000000 1.0
C      1  0.5174360000000  0.5560320000000  0.5329650000000 1.0
C      1  0.4810390000000  0.4474410000000  0.5309900000000 1.0
C      1  0.5038390000000  0.4160180000000  0.4797690000000 1.0
C      1  0.4922240000000  0.5821760000000  0.4810250000000 1.0
C      1  0.5159970000000  0.4139330000000  0.5114570000000 1.0
C      1  0.4789150000000  0.5846080000000  0.5115200000000 1.0
C      1  0.4375450000000  0.4715470000000  0.5275990000000 1.0
C      1  0.5606510000000  0.5306020000000  0.5290660000000 1.0
C      1  0.4396510000000  0.4703120000000  0.4783900000000 1.0
C      1  0.5601140000000  0.5327790000000  0.4797560000000 1.0
C      1  0.4890460000000  0.4662180000000  0.4568840000000 1.0
C      1  0.5135150000000  0.5314310000000  0.4602340000000 1.0
C      1  0.4918590000000  0.4696700000000  0.5521090000000 1.0
C      1  0.5091810000000  0.5325770000000  0.5538560000000 1.0
C      1  0.4690850000000  0.4852230000000  0.4435370000000 1.0
C      1  0.5307190000000  0.5117900000000  0.4452810000000 1.0
C      1  0.4766710000000  0.4914260000000  0.5565310000000 1.0
C      1  0.5284440000000  0.5152700000000  0.5608300000000 1.0
C      1  0.5043870000000  0.5333040000000  0.5142670000000 1.0
C      1  0.4998510000000  0.4667120000000  0.5131080000000 1.0
C      1  0.4903460000000  0.5435430000000  0.4898630000000 1.0
C      1  0.5099910000000  0.4542650000000  0.4882330000000 1.0
C      1  0.5374570000000  0.4879180000000  0.4636230000000 1.0
C      1  0.4643760000000  0.5085090000000  0.4636480000000 1.0
C      1  0.5337950000000  0.4922030000000  0.5406000000000 1.0
C      1  0.4694920000000  0.5083980000000  0.5302670000000 1.0
C      1  0.4503710000000  0.5834710000000  0.5133460000000 1.0
C      1  0.5466410000000  0.4195390000000  0.5096080000000 1.0
C      1  0.4644220000000  0.5625990000000  0.4816910000000 1.0
C      1  0.5336530000000  0.4324160000000  0.4812830000000 1.0
C      1  0.4232190000000  0.5302290000000  0.4792900000000 1.0
C      1  0.5719150000000  0.4724530000000  0.4770220000000 1.0
C      1  0.4259050000000  0.5284960000000  0.5114670000000 1.0
C      1  0.5720510000000  0.4719370000000  0.5096280000000 1.0
C      1  0.5201000000000  0.4675720000000  0.5514290000000 1.0
C      1  0.4806460000000  0.5308270000000  0.5513190000000 1.0
C      1  0.5219640000000  0.4621510000000  0.4573980000000 1.0
C      1  0.4802970000000  0.5341650000000  0.4587630000000 1.0
C      1  0.4727050000000  0.5584660000000  0.5502920000000 1.0
C      1  0.5253110000000  0.4396160000000  0.5501800000000 1.0
C      1  0.4734880000000  0.5591130000000  0.4413980000000 1.0
C      1  0.5269860000000  0.4360280000000  0.4408030000000 1.0
C      1  0.5446680000000  0.5507400000000  0.5191970000000 1.0
C      1  0.4541430000000  0.4516920000000  0.5179510000000 1.0
C      1  0.5445370000000  0.5522390000000  0.4914810000000 1.0
C      1  0.4547270000000  0.4505130000000  0.4901310000000 1.0
END
