TITL C-3289324-3781-112 0.00371218518929518 125000 -315.97538648705 0 0 62 (C1) n - 1
REM
REM in /nfs/bkarasulu/CARBON/AIRSS/Generating-Clusters/AIREBO/with-SteepDescent/Higher-Symm/SD-CG/HFTN-CG
REM
REM
REM
REM
REM
REM ./C.cell (b20cbc046b6831c77cfcea5457e17084)
REM
REM compiler GCC version 9.2.1 20190827 (Red Hat 9.2.1-1)
REM options -cpp -mtune=generic -march=x86-64 -g -O0 -fpre-include=/usr/include/finclude/math-vector-fortran.h
REM seed -117491566 1099999016 890672057 -756369368 -522477613 1968096880 913904057 182734075 1769887020 -1300056880 1145519876 2038997617 -1936605896 205918896 986857238 -1606370578 837757010 -551384205 426073736 -1776826286 564527768 1991226970 -1758518573 784065609 -1577069837 -173935444 615743675 -1584645756 1604644834 1957625130 -1253045803 1260542487 -766311897
REM
CELL 1.54180   50.00000   50.00000   50.00000   90.00000   90.00000   90.00000
LATT -1
SFAC C  
C      1  0.5194470000000  0.4869480000000  0.4889580000000 1.0
C      1  0.4867740000000  0.5152930000000  0.4865000000000 1.0
C      1  0.5229230000000  0.4885420000000  0.5174960000000 1.0
C      1  0.4868010000000  0.5165540000000  0.5232510000000 1.0
C      1  0.5171240000000  0.5168730000000  0.4783270000000 1.0
C      1  0.4797250000000  0.4880390000000  0.4951640000000 1.0
C      1  0.5173670000000  0.5194810000000  0.5117750000000 1.0
C      1  0.4811160000000  0.4858260000000  0.5236720000000 1.0
C      1  0.5470890000000  0.5182170000000  0.4371960000000 1.0
C      1  0.4591020000000  0.4802420000000  0.4405040000000 1.0
C      1  0.5400290000000  0.5281680000000  0.5621830000000 1.0
C      1  0.4671460000000  0.4709080000000  0.5623290000000 1.0
C      1  0.5414690000000  0.4727720000000  0.4391770000000 1.0
C      1  0.4485920000000  0.5349620000000  0.4358910000000 1.0
C      1  0.5481320000000  0.4684900000000  0.5657800000000 1.0
C      1  0.4528330000000  0.5269730000000  0.5569960000000 1.0
C      1  0.5120250000000  0.4871120000000  0.4423950000000 1.0
C      1  0.4815690000000  0.5278400000000  0.4388220000000 1.0
C      1  0.5191450000000  0.4797160000000  0.5697570000000 1.0
C      1  0.4849190000000  0.5187950000000  0.5644200000000 1.0
C      1  0.5132220000000  0.5208560000000  0.4386870000000 1.0
C      1  0.4835990000000  0.4961950000000  0.4285430000000 1.0
C      1  0.5176020000000  0.5135090000000  0.5731770000000 1.0
C      1  0.4869450000000  0.4886470000000  0.5760690000000 1.0
C      1  0.5299220000000  0.4439320000000  0.5156180000000 1.0
C      1  0.4679200000000  0.5505360000000  0.5137820000000 1.0
C      1  0.5126820000000  0.4417750000000  0.4936500000000 1.0
C      1  0.4831350000000  0.5548080000000  0.4900490000000 1.0
C      1  0.5307710000000  0.5570370000000  0.5096240000000 1.0
C      1  0.4622900000000  0.4337030000000  0.5143160000000 1.0
C      1  0.5122370000000  0.5571840000000  0.4876880000000 1.0
C      1  0.4823880000000  0.4363130000000  0.4963280000000 1.0
C      1  0.5483510000000  0.4650430000000  0.4672230000000 1.0
C      1  0.4396240000000  0.5303810000000  0.4647870000000 1.0
C      1  0.5519960000000  0.4647190000000  0.5325270000000 1.0
C      1  0.4475170000000  0.5311160000000  0.5285200000000 1.0
C      1  0.5563860000000  0.5269120000000  0.4646300000000 1.0
C      1  0.4556680000000  0.4737900000000  0.4666650000000 1.0
C      1  0.5486390000000  0.5358370000000  0.5301740000000 1.0
C      1  0.4527030000000  0.4597980000000  0.5336000000000 1.0
C      1  0.4822110000000  0.4624380000000  0.4782870000000 1.0
C      1  0.5267280000000  0.5435620000000  0.4601110000000 1.0
C      1  0.4861570000000  0.4553330000000  0.5378560000000 1.0
C      1  0.5159870000000  0.5440140000000  0.5349960000000 1.0
C      1  0.4713650000000  0.5349270000000  0.4683680000000 1.0
C      1  0.5144740000000  0.4620830000000  0.4664300000000 1.0
C      1  0.4853570000000  0.5446850000000  0.5423800000000 1.0
C      1  0.5185490000000  0.4655890000000  0.5392460000000 1.0
C      1  0.5671390000000  0.5117280000000  0.4852280000000 1.0
C      1  0.4374090000000  0.4837590000000  0.4860240000000 1.0
C      1  0.5674260000000  0.5170670000000  0.5161550000000 1.0
C      1  0.4348310000000  0.4790720000000  0.5180190000000 1.0
C      1  0.5649760000000  0.4799680000000  0.4837050000000 1.0
C      1  0.4280270000000  0.5137100000000  0.4832040000000 1.0
C      1  0.5661090000000  0.4852430000000  0.5148790000000 1.0
C      1  0.4318700000000  0.5112120000000  0.5142750000000 1.0
C      1  0.5333900000000  0.5658210000000  0.4422750000000 1.0
C      1  0.4878480000000  0.4278440000000  0.5497310000000 1.0
C      1  0.5129420000000  0.4387390000000  0.4454310000000 1.0
C      1  0.4800260000000  0.5685750000000  0.5581670000000 1.0
C      1  0.5053350000000  0.4963440000000  0.6032640000000 1.0
C      1  0.4849190000000  0.4944450000000  0.3979960000000 1.0
END
