TITL C-3289330-4660-529 -0.00568066825494918 125000 -1056.6251416274 0 0 188 (C1) n - 1
REM
REM in /nfs/bkarasulu/CARBON/AIRSS/Generating-Clusters/AIREBO/with-SteepDescent/Higher-Symm/SD-CG/HFTN-CG
REM
REM
REM
REM
REM
REM ./C.cell (b20cbc046b6831c77cfcea5457e17084)
REM
REM compiler GCC version 9.2.1 20190827 (Red Hat 9.2.1-1)
REM options -cpp -mtune=generic -march=x86-64 -g -O0 -fpre-include=/usr/include/finclude/math-vector-fortran.h
REM seed 2104455481 1203101066 -1038943202 -1525220695 1048196738 -770152757 1464256317 -1900795644 -1955159142 149699823 -690926778 1825327712 -642481897 1005704733 -829880774 -1585460791 485995997 -1632881730 -559739240 1966843409 -284485201 2060619305 610667232 -241464586 -1243232134 430759659 -2074278869 -106413180 -717233986 1168000967 -1985228123 1038736933 -1297230939
REM
CELL 1.54180   50.00000   50.00000   50.00000   90.00000   90.00000   90.00000
LATT -1
SFAC C  
C      1  0.4378600000000  0.4868110000000  0.4569950000000 1.0
C      1  0.4359130000000  0.5071310000000  0.5228820000000 1.0
C      1  0.4874210000000  0.4934790000000  0.5675560000000 1.0
C      1  0.5573330000000  0.5104530000000  0.5444290000000 1.0
C      1  0.5652780000000  0.4951760000000  0.4730610000000 1.0
C      1  0.5080130000000  0.5065130000000  0.4311210000000 1.0
C      1  0.5540640000000  0.5600270000000  0.4429360000000 1.0
C      1  0.4837540000000  0.4417210000000  0.4193740000000 1.0
C      1  0.4263780000000  0.5595380000000  0.4769440000000 1.0
C      1  0.4444570000000  0.4407620000000  0.5482700000000 1.0
C      1  0.5254370000000  0.5634990000000  0.5819670000000 1.0
C      1  0.5753850000000  0.4428480000000  0.5203200000000 1.0
C      1  0.6040290000000  0.5151120000000  0.4857550000000 1.0
C      1  0.5407250000000  0.4885020000000  0.3993930000000 1.0
C      1  0.4263960000000  0.5067600000000  0.4110840000000 1.0
C      1  0.3902290000000  0.4928480000000  0.5135860000000 1.0
C      1  0.4594320000000  0.5114750000000  0.5988110000000 1.0
C      1  0.5721600000000  0.4919910000000  0.5902620000000 1.0
C      1  0.5104470000000  0.5776900000000  0.5322310000000 1.0
C      1  0.5273750000000  0.4184190000000  0.5161180000000 1.0
C      1  0.5250070000000  0.5866900000000  0.4770900000000 1.0
C      1  0.4905640000000  0.4162020000000  0.4638410000000 1.0
C      1  0.4705320000000  0.5836850000000  0.4932410000000 1.0
C      1  0.4744340000000  0.4134580000000  0.5156790000000 1.0
C      1  0.4758550000000  0.3827870000000  0.5178100000000 1.0
C      1  0.5136260000000  0.6085890000000  0.5297620000000 1.0
C      1  0.5282670000000  0.3879170000000  0.5107430000000 1.0
C      1  0.5203120000000  0.6188380000000  0.4767560000000 1.0
C      1  0.4941860000000  0.3848730000000  0.4698480000000 1.0
C      1  0.4714880000000  0.6142100000000  0.4969600000000 1.0
C      1  0.4261950000000  0.5331750000000  0.4279760000000 1.0
C      1  0.3970610000000  0.4698350000000  0.5298930000000 1.0
C      1  0.4803930000000  0.5309400000000  0.6016940000000 1.0
C      1  0.5766020000000  0.4701020000000  0.5711680000000 1.0
C      1  0.5961540000000  0.5355400000000  0.4669150000000 1.0
C      1  0.5233200000000  0.4661030000000  0.3994010000000 1.0
C      1  0.5431950000000  0.4540870000000  0.5223420000000 1.0
C      1  0.5432660000000  0.5516880000000  0.4741500000000 1.0
C      1  0.4978560000000  0.4524860000000  0.4496390000000 1.0
C      1  0.4590820000000  0.5448790000000  0.4775140000000 1.0
C      1  0.4602260000000  0.4552910000000  0.5205530000000 1.0
C      1  0.5091680000000  0.5391010000000  0.5416430000000 1.0
C      1  0.5027040000000  0.3746130000000  0.5264750000000 1.0
C      1  0.5328300000000  0.6114580000000  0.5074960000000 1.0
C      1  0.5258650000000  0.3820710000000  0.4813690000000 1.0
C      1  0.4932200000000  0.6275970000000  0.4756070000000 1.0
C      1  0.4738930000000  0.3733550000000  0.4863190000000 1.0
C      1  0.4841830000000  0.6214290000000  0.5226960000000 1.0
C      1  0.4632710000000  0.6359250000000  0.4716430000000 1.0
C      1  0.4519430000000  0.3615650000000  0.5053730000000 1.0
C      1  0.4952140000000  0.6279840000000  0.5512960000000 1.0
C      1  0.5307930000000  0.3673690000000  0.5382290000000 1.0
C      1  0.5535670000000  0.6135470000000  0.4831540000000 1.0
C      1  0.5212310000000  0.3915770000000  0.4503280000000 1.0
C      1  0.4964010000000  0.5375690000000  0.5120800000000 1.0
C      1  0.5094730000000  0.4577180000000  0.5193790000000 1.0
C      1  0.5282860000000  0.5400680000000  0.5005360000000 1.0
C      1  0.5097520000000  0.4623340000000  0.4777710000000 1.0
C      1  0.4887250000000  0.5390750000000  0.4804890000000 1.0
C      1  0.4830510000000  0.4590080000000  0.4979960000000 1.0
C      1  0.5471630000000  0.5649650000000  0.4161100000000 1.0
C      1  0.4565410000000  0.4334510000000  0.4082820000000 1.0
C      1  0.4035160000000  0.5650500000000  0.4948120000000 1.0
C      1  0.4452670000000  0.4369000000000  0.5779460000000 1.0
C      1  0.5513390000000  0.5665550000000  0.5904190000000 1.0
C      1  0.5970740000000  0.4379330000000  0.5030310000000 1.0
C      1  0.4968410000000  0.4741630000000  0.3878630000000 1.0
C      1  0.4079850000000  0.5109730000000  0.4462170000000 1.0
C      1  0.4091270000000  0.4865450000000  0.5569510000000 1.0
C      1  0.5070590000000  0.5187050000000  0.6085260000000 1.0
C      1  0.5971510000000  0.4864150000000  0.5496780000000 1.0
C      1  0.5907750000000  0.5192910000000  0.4398870000000 1.0
C      1  0.4447650000000  0.4481530000000  0.4703230000000 1.0
C      1  0.4515310000000  0.5464670000000  0.5374970000000 1.0
C      1  0.5046400000000  0.4472560000000  0.5576810000000 1.0
C      1  0.5628980000000  0.5575230000000  0.5289890000000 1.0
C      1  0.5475640000000  0.4533800000000  0.4667810000000 1.0
C      1  0.4892900000000  0.5473340000000  0.4411080000000 1.0
C      1  0.5114790000000  0.5433240000000  0.4172870000000 1.0
C      1  0.4369530000000  0.4459330000000  0.4404710000000 1.0
C      1  0.4234010000000  0.5446880000000  0.5267820000000 1.0
C      1  0.4808600000000  0.4554410000000  0.5766640000000 1.0
C      1  0.5687550000000  0.5466250000000  0.5569860000000 1.0
C      1  0.5792770000000  0.4582250000000  0.4735260000000 1.0
C      1  0.4340470000000  0.4729040000000  0.5444100000000 1.0
C      1  0.5140930000000  0.5314860000000  0.5803200000000 1.0
C      1  0.5753740000000  0.4748790000000  0.5316900000000 1.0
C      1  0.5615850000000  0.5274320000000  0.4487840000000 1.0
C      1  0.4853170000000  0.4756910000000  0.4198220000000 1.0
C      1  0.4250380000000  0.5269690000000  0.4672170000000 1.0
C      1  0.5471180000000  0.4926370000000  0.6029140000000 1.0
C      1  0.5933940000000  0.5203670000000  0.5143170000000 1.0
C      1  0.5647240000000  0.4910860000000  0.4107740000000 1.0
C      1  0.4577050000000  0.5099760000000  0.4206630000000 1.0
C      1  0.3950510000000  0.4880960000000  0.4874920000000 1.0
C      1  0.4386070000000  0.5218090000000  0.5817490000000 1.0
C      1  0.6119450000000  0.4618010000000  0.4958950000000 1.0
C      1  0.5474760000000  0.5410040000000  0.4002910000000 1.0
C      1  0.4384520000000  0.4591710000000  0.4099740000000 1.0
C      1  0.3914730000000  0.5419020000000  0.5029770000000 1.0
C      1  0.4439780000000  0.4611200000000  0.5909010000000 1.0
C      1  0.5632960000000  0.5416440000000  0.5962580000000 1.0
C      1  0.5679510000000  0.4760760000000  0.5001720000000 1.0
C      1  0.5321500000000  0.5275050000000  0.4391710000000 1.0
C      1  0.4606390000000  0.4703470000000  0.4411860000000 1.0
C      1  0.4323810000000  0.5277160000000  0.4987190000000 1.0
C      1  0.4613230000000  0.4754450000000  0.5573170000000 1.0
C      1  0.5376560000000  0.5332860000000  0.5557590000000 1.0
C      1  0.5513410000000  0.4516560000000  0.5682850000000 1.0
C      1  0.5820470000000  0.5575740000000  0.4819840000000 1.0
C      1  0.5278220000000  0.4460950000000  0.4197430000000 1.0
C      1  0.4528930000000  0.5747330000000  0.4372910000000 1.0
C      1  0.4192290000000  0.4246790000000  0.5078940000000 1.0
C      1  0.4759170000000  0.5531770000000  0.5817740000000 1.0
C      1  0.5380900000000  0.4835470000000  0.4592720000000 1.0
C      1  0.4784880000000  0.5154610000000  0.4454120000000 1.0
C      1  0.4248400000000  0.4720590000000  0.4840180000000 1.0
C      1  0.4630380000000  0.5152520000000  0.5391580000000 1.0
C      1  0.5148590000000  0.4793940000000  0.5586610000000 1.0
C      1  0.5619030000000  0.5080200000000  0.5108210000000 1.0
C      1  0.4590940000000  0.5436940000000  0.4248690000000 1.0
C      1  0.4039430000000  0.4516300000000  0.5014190000000 1.0
C      1  0.4513910000000  0.5454160000000  0.5686430000000 1.0
C      1  0.5305360000000  0.4698470000000  0.5870390000000 1.0
C      1  0.5809370000000  0.5496520000000  0.5095420000000 1.0
C      1  0.5510240000000  0.4505630000000  0.4353210000000 1.0
C      1  0.4389990000000  0.4783860000000  0.5122360000000 1.0
C      1  0.4886110000000  0.5226490000000  0.5595860000000 1.0
C      1  0.5446400000000  0.4811560000000  0.5423510000000 1.0
C      1  0.5596720000000  0.5246270000000  0.4812430000000 1.0
C      1  0.5133010000000  0.4779320000000  0.4390420000000 1.0
C      1  0.4553820000000  0.5118900000000  0.4701210000000 1.0
C      1  0.4759680000000  0.5355250000000  0.3964830000000 1.0
C      1  0.3930380000000  0.4534740000000  0.4689470000000 1.0
C      1  0.3954190000000  0.5339890000000  0.5652740000000 1.0
C      1  0.5096210000000  0.4653750000000  0.6125100000000 1.0
C      1  0.6149750000000  0.5336460000000  0.5564970000000 1.0
C      1  0.5794400000000  0.4642250000000  0.4261810000000 1.0
C      1  0.4708910000000  0.5594770000000  0.5171220000000 1.0
C      1  0.4916760000000  0.4335140000000  0.5322000000000 1.0
C      1  0.5361350000000  0.5609620000000  0.5219000000000 1.0
C      1  0.5293270000000  0.4382040000000  0.4885290000000 1.0
C      1  0.5032420000000  0.5634470000000  0.4662840000000 1.0
C      1  0.4694690000000  0.4391430000000  0.4766800000000 1.0
C      1  0.4386680000000  0.4123580000000  0.4190530000000 1.0
C      1  0.3976080000000  0.5867590000000  0.5118320000000 1.0
C      1  0.4559600000000  0.4164900000000  0.5943090000000 1.0
C      1  0.5711590000000  0.5869150000000  0.5884120000000 1.0
C      1  0.6008860000000  0.4156240000000  0.4855450000000 1.0
C      1  0.5334690000000  0.5862120000000  0.4027840000000 1.0
C      1  0.6061960000000  0.5116650000000  0.5404410000000 1.0
C      1  0.5920860000000  0.4957280000000  0.4241570000000 1.0
C      1  0.4784890000000  0.5012510000000  0.3984100000000 1.0
C      1  0.3979580000000  0.4847870000000  0.4565410000000 1.0
C      1  0.4128220000000  0.5118540000000  0.5720130000000 1.0
C      1  0.5200310000000  0.4946840000000  0.6163200000000 1.0
C      1  0.4449650000000  0.4249400000000  0.5202080000000 1.0
C      1  0.4998670000000  0.5636700000000  0.5613800000000 1.0
C      1  0.5323620000000  0.4341700000000  0.5458590000000 1.0
C      1  0.5586390000000  0.5814590000000  0.4760820000000 1.0
C      1  0.5073320000000  0.4238000000000  0.4352520000000 1.0
C      1  0.4528750000000  0.5748720000000  0.4663920000000 1.0
C      1  0.5869290000000  0.4408460000000  0.4488770000000 1.0
C      1  0.4978110000000  0.5560990000000  0.3924070000000 1.0
C      1  0.3938400000000  0.4295980000000  0.4534680000000 1.0
C      1  0.4016060000000  0.5543610000000  0.5465530000000 1.0
C      1  0.4888440000000  0.4486080000000  0.6060130000000 1.0
C      1  0.5972540000000  0.5541900000000  0.5649950000000 1.0
C      1  0.4758820000000  0.4243050000000  0.6124480000000 1.0
C      1  0.5962850000000  0.5790220000000  0.5785570000000 1.0
C      1  0.5971100000000  0.4174640000000  0.4578800000000 1.0
C      1  0.5107350000000  0.5805180000000  0.3872290000000 1.0
C      1  0.4174670000000  0.4217400000000  0.4405310000000 1.0
C      1  0.3932590000000  0.5802430000000  0.5387520000000 1.0
C      1  0.4732340000000  0.4910890000000  0.4911560000000 1.0
C      1  0.4847050000000  0.5066370000000  0.5167090000000 1.0
C      1  0.5088130000000  0.4893760000000  0.5267160000000 1.0
C      1  0.5281500000000  0.5067920000000  0.5075810000000 1.0
C      1  0.5182290000000  0.4928850000000  0.4819670000000 1.0
C      1  0.4950060000000  0.5089750000000  0.4740170000000 1.0
C      1  0.5688330000000  0.5180400000000  0.5754320000000 1.0
C      1  0.5983020000000  0.4862020000000  0.4769160000000 1.0
C      1  0.5259150000000  0.5158800000000  0.4033140000000 1.0
C      1  0.4261690000000  0.4819260000000  0.4254400000000 1.0
C      1  0.4028950000000  0.5179750000000  0.5220650000000 1.0
C      1  0.4691030000000  0.4821490000000  0.5941320000000 1.0
C      1  0.5028140000000  0.5748170000000  0.4991980000000 1.0
C      1  0.5002990000000  0.4218160000000  0.4952360000000 1.0
END
