TITL C-3289334-2237-747 90.7270949490552 125000 -646.944667282706 0 0 116 (C1) n - 1
REM
REM in /nfs/bkarasulu/CARBON/AIRSS/Generating-Clusters/AIREBO/with-SteepDescent/Higher-Symm/SD-CG/HFTN-CG
REM
REM
REM
REM
REM
REM ./C.cell (b20cbc046b6831c77cfcea5457e17084)
REM
REM compiler GCC version 9.2.1 20190827 (Red Hat 9.2.1-1)
REM options -cpp -mtune=generic -march=x86-64 -g -O0 -fpre-include=/usr/include/finclude/math-vector-fortran.h
REM seed 1767230262 231820454 -1320329043 -1646284403 2144885947 1181493758 1263668045 -606259889 1792805209 1481996284 2131312635 -971910012 1243187739 -51819978 -1894363447 1567699143 -399923955 -2049676466 -626241362 664117401 -1622860531 -941909630 1209546517 934300076 -1409653324 -2050104466 1099021219 449709492 973926043 -2013931184 453846071 1631729696 316805579
REM
CELL 1.54180   50.00000   50.00000   50.00000   90.00000   90.00000   90.00000
LATT -1
SFAC C  
C      1  0.5296230000000  0.4904690000000  0.5052040000000 1.0
C      1  0.4664440000000  0.4848070000000  0.5112060000000 1.0
C      1  0.4956030000000  0.4904190000000  0.4559950000000 1.0
C      1  0.4148530000000  0.5012930000000  0.4313230000000 1.0
C      1  0.5977630000000  0.5098060000000  0.4764350000000 1.0
C      1  0.4806510000000  0.5264380000000  0.5725600000000 1.0
C      1  0.5090890000000  0.4689730000000  0.5384610000000 1.0
C      1  0.4650900000000  0.4928800000000  0.4580010000000 1.0
C      1  0.5312750000000  0.4930550000000  0.4734650000000 1.0
C      1  0.4450920000000  0.4977380000000  0.4337380000000 1.0
C      1  0.5868110000000  0.4921940000000  0.4953450000000 1.0
C      1  0.4766790000000  0.4972220000000  0.5556140000000 1.0
C      1  0.4877660000000  0.5213160000000  0.3966890000000 1.0
C      1  0.5864040000000  0.5177060000000  0.5500030000000 1.0
C      1  0.4254560000000  0.5274910000000  0.5563120000000 1.0
C      1  0.4871120000000  0.4221190000000  0.4716520000000 1.0
C      1  0.5298020000000  0.4251630000000  0.5049320000000 1.0
C      1  0.4675180000000  0.4086180000000  0.5350680000000 1.0
C      1  0.5588030000000  0.4317820000000  0.5205090000000 1.0
C      1  0.4564750000000  0.4332030000000  0.5393080000000 1.0
C      1  0.4901630000000  0.4388380000000  0.4435860000000 1.0
C      1  0.4286880000000  0.4722850000000  0.5398560000000 1.0
C      1  0.5064010000000  0.4852120000000  0.4265730000000 1.0
C      1  0.5801890000000  0.4679560000000  0.5464860000000 1.0
C      1  0.4151150000000  0.5209830000000  0.4739000000000 1.0
C      1  0.5487460000000  0.4847780000000  0.4507450000000 1.0
C      1  0.5250600000000  0.4890010000000  0.5605010000000 1.0
C      1  0.4428610000000  0.6198420000000  0.4851900000000 1.0
C      1  0.5636450000000  0.5929750000000  0.4651080000000 1.0
C      1  0.5070330000000  0.6000800000000  0.5643830000000 1.0
C      1  0.5822460000000  0.4517870000000  0.5230230000000 1.0
C      1  0.4477090000000  0.4572900000000  0.5538440000000 1.0
C      1  0.4830250000000  0.4637840000000  0.4273230000000 1.0
C      1  0.5583230000000  0.4782150000000  0.5798280000000 1.0
C      1  0.4011160000000  0.4818050000000  0.4993590000000 1.0
C      1  0.5444330000000  0.4967160000000  0.4204100000000 1.0
C      1  0.5485110000000  0.5067800000000  0.5775300000000 1.0
C      1  0.4064250000000  0.5090860000000  0.4976900000000 1.0
C      1  0.5451140000000  0.5243740000000  0.4217500000000 1.0
C      1  0.5639130000000  0.5335900000000  0.4459390000000 1.0
C      1  0.5337170000000  0.5438100000000  0.5755750000000 1.0
C      1  0.3777630000000  0.5301610000000  0.4440210000000 1.0
C      1  0.4209860000000  0.4399500000000  0.4593660000000 1.0
C      1  0.5732460000000  0.4626670000000  0.4503340000000 1.0
C      1  0.5089910000000  0.4788610000000  0.5876640000000 1.0
C      1  0.4013480000000  0.5184010000000  0.4492670000000 1.0
C      1  0.5877170000000  0.5284010000000  0.4589960000000 1.0
C      1  0.5091200000000  0.5347900000000  0.5701450000000 1.0
C      1  0.5416320000000  0.5262600000000  0.5181310000000 1.0
C      1  0.4674270000000  0.5357250000000  0.5124380000000 1.0
C      1  0.4723700000000  0.5344970000000  0.4650790000000 1.0
C      1  0.4275860000000  0.4669650000000  0.5072820000000 1.0
C      1  0.5324420000000  0.4658740000000  0.4279890000000 1.0
C      1  0.5467130000000  0.4641970000000  0.5511020000000 1.0
C      1  0.5365160000000  0.5359480000000  0.4584650000000 1.0
C      1  0.5054430000000  0.5121480000000  0.5451530000000 1.0
C      1  0.4430470000000  0.5224380000000  0.4731250000000 1.0
C      1  0.4624590000000  0.6038020000000  0.4784230000000 1.0
C      1  0.5475460000000  0.5852510000000  0.4843100000000 1.0
C      1  0.4938700000000  0.5898800000000  0.5441370000000 1.0
C      1  0.5313110000000  0.5746160000000  0.5038630000000 1.0
C      1  0.4805460000000  0.5767250000000  0.5239400000000 1.0
C      1  0.4811660000000  0.5850010000000  0.4714570000000 1.0
C      1  0.4671310000000  0.5341410000000  0.4101430000000 1.0
C      1  0.5852650000000  0.5211230000000  0.5227580000000 1.0
C      1  0.4546760000000  0.5299470000000  0.5593140000000 1.0
C      1  0.5419450000000  0.4611340000000  0.5172130000000 1.0
C      1  0.4566040000000  0.4524620000000  0.5151700000000 1.0
C      1  0.4873120000000  0.4617120000000  0.4683870000000 1.0
C      1  0.5445470000000  0.4454080000000  0.4523100000000 1.0
C      1  0.5294700000000  0.4383390000000  0.5631430000000 1.0
C      1  0.4305780000000  0.4429540000000  0.4867870000000 1.0
C      1  0.4600830000000  0.5250150000000  0.4348080000000 1.0
C      1  0.5608120000000  0.5036200000000  0.5085020000000 1.0
C      1  0.4565340000000  0.5102740000000  0.5315230000000 1.0
C      1  0.4558220000000  0.4687360000000  0.4275300000000 1.0
C      1  0.5886960000000  0.4640560000000  0.4979100000000 1.0
C      1  0.4678330000000  0.4709740000000  0.5674910000000 1.0
C      1  0.4876510000000  0.5762840000000  0.4457900000000 1.0
C      1  0.5402010000000  0.5702850000000  0.5302470000000 1.0
C      1  0.4541060000000  0.5715450000000  0.5238130000000 1.0
C      1  0.5923250000000  0.4908820000000  0.5574530000000 1.0
C      1  0.4202800000000  0.4979650000000  0.5460830000000 1.0
C      1  0.5079870000000  0.5126390000000  0.4129980000000 1.0
C      1  0.4903590000000  0.5495690000000  0.4428780000000 1.0
C      1  0.5476310000000  0.5447600000000  0.5381340000000 1.0
C      1  0.4380000000000  0.5452820000000  0.5265540000000 1.0
C      1  0.5619170000000  0.5303290000000  0.5624640000000 1.0
C      1  0.4244390000000  0.5163790000000  0.5195600000000 1.0
C      1  0.5156160000000  0.5371050000000  0.4329890000000 1.0
C      1  0.5110500000000  0.5178670000000  0.4688080000000 1.0
C      1  0.5118460000000  0.5185000000000  0.5148810000000 1.0
C      1  0.4567530000000  0.4978110000000  0.4853430000000 1.0
C      1  0.4596030000000  0.4409750000000  0.4691370000000 1.0
C      1  0.5449170000000  0.4464160000000  0.4863100000000 1.0
C      1  0.5034760000000  0.4356950000000  0.5721830000000 1.0
C      1  0.4426670000000  0.4488210000000  0.4410240000000 1.0
C      1  0.5749980000000  0.4509390000000  0.4772790000000 1.0
C      1  0.4895460000000  0.4590390000000  0.5810100000000 1.0
C      1  0.5334400000000  0.2770690000000  0.4980440000000 1.0
C      1  0.5179160000000  0.6809560000000  0.5041570000000 1.0
C      1  0.4847570000000  0.4517120000000  0.4983150000000 1.0
C      1  0.4883850000000  0.4008280000000  0.5184070000000 1.0
C      1  0.5034530000000  0.6028800000000  0.4994060000000 1.0
C      1  0.5151430000000  0.3254040000000  0.5087970000000 1.0
C      1  0.5086200000000  0.6287580000000  0.4997710000000 1.0
C      1  0.5052550000000  0.3498450000000  0.5125920000000 1.0
C      1  0.4978590000000  0.3751420000000  0.5164200000000 1.0
C      1  0.5264980000000  0.7327750000000  0.5094180000000 1.0
C      1  0.4994160000000  0.4764700000000  0.5121630000000 1.0
C      1  0.5143210000000  0.6546030000000  0.5027130000000 1.0
C      1  0.4934300000000  0.5357300000000  0.4917700000000 1.0
C      1  0.4986240000000  0.5693730000000  0.4960990000000 1.0
C      1  0.5222890000000  0.7069380000000  0.5080890000000 1.0
C      1  0.5231600000000  0.3006280000000  0.5031780000000 1.0
C      1  0.5003840000000  0.4223300000000  0.5009460000000 1.0
END
