TITL C-3289331-6719-360 -0.000865889649836927 125000 -562.89321524377 0 0 103 (C1) n - 1
REM
REM in /nfs/bkarasulu/CARBON/AIRSS/Generating-Clusters/AIREBO/with-SteepDescent/Higher-Symm/SD-CG/HFTN-CG
REM
REM
REM
REM
REM
REM ./C.cell (b20cbc046b6831c77cfcea5457e17084)
REM
REM compiler GCC version 9.2.1 20190827 (Red Hat 9.2.1-1)
REM options -cpp -mtune=generic -march=x86-64 -g -O0 -fpre-include=/usr/include/finclude/math-vector-fortran.h
REM seed 662098725 -113197760 1346987706 657714702 969846746 807151488 1143017589 301682145 -1658248751 1258923301 -721578597 2002417346 1858490675 1944583279 -2085992611 -791006237 1197195736 740064153 -681070720 1789170968 2070076483 1344282620 882339920 -521852710 96753847 -653386113 -1643870734 -1656125162 -2018396330 -1153671317 -646231455 1311244793 -1138564225
REM
CELL 1.54180   50.00000   50.00000   50.00000   90.00000   90.00000   90.00000
LATT -1
SFAC C  
C      1  0.5445490000000  0.4682170000000  0.5352610000000 1.0
C      1  0.5545640000000  0.4552120000000  0.4833660000000 1.0
C      1  0.5425480000000  0.4835170000000  0.4755500000000 1.0
C      1  0.5412180000000  0.5101570000000  0.4567090000000 1.0
C      1  0.5482520000000  0.5420130000000  0.4998000000000 1.0
C      1  0.5407680000000  0.5325670000000  0.5290240000000 1.0
C      1  0.5435210000000  0.4990280000000  0.5318310000000 1.0
C      1  0.4918430000000  0.5199040000000  0.4457770000000 1.0
C      1  0.4997220000000  0.5611890000000  0.4933410000000 1.0
C      1  0.4910220000000  0.5616730000000  0.5414470000000 1.0
C      1  0.4970620000000  0.4946320000000  0.5701290000000 1.0
C      1  0.4920380000000  0.4607830000000  0.5329460000000 1.0
C      1  0.4864150000000  0.4357500000000  0.4889370000000 1.0
C      1  0.4956780000000  0.4718460000000  0.4402660000000 1.0
C      1  0.4740850000000  0.5112060000000  0.5856110000000 1.0
C      1  0.4683430000000  0.4356910000000  0.5628620000000 1.0
C      1  0.4716420000000  0.4061650000000  0.4884360000000 1.0
C      1  0.4735720000000  0.4569790000000  0.4271100000000 1.0
C      1  0.4735220000000  0.5216570000000  0.4180520000000 1.0
C      1  0.4804900000000  0.5784200000000  0.4729240000000 1.0
C      1  0.4690950000000  0.5844740000000  0.5491020000000 1.0
C      1  0.4399770000000  0.5696420000000  0.5132440000000 1.0
C      1  0.4414040000000  0.5324410000000  0.5604200000000 1.0
C      1  0.4288950000000  0.4614960000000  0.5461650000000 1.0
C      1  0.4390480000000  0.4327390000000  0.5149530000000 1.0
C      1  0.4421070000000  0.4486600000000  0.4619670000000 1.0
C      1  0.4364040000000  0.5014970000000  0.4386740000000 1.0
C      1  0.4463100000000  0.5506680000000  0.4585630000000 1.0
C      1  0.4607950000000  0.4742700000000  0.4082390000000 1.0
C      1  0.4865100000000  0.5494100000000  0.4330580000000 1.0
C      1  0.4772690000000  0.5956380000000  0.4999540000000 1.0
C      1  0.4795450000000  0.5606160000000  0.5719100000000 1.0
C      1  0.4610900000000  0.4823080000000  0.5820460000000 1.0
C      1  0.4832870000000  0.4283060000000  0.5347950000000 1.0
C      1  0.4829550000000  0.4212800000000  0.4599760000000 1.0
C      1  0.5210390000000  0.4629060000000  0.4586860000000 1.0
C      1  0.5116970000000  0.5152460000000  0.4727960000000 1.0
C      1  0.5222450000000  0.5451550000000  0.4812470000000 1.0
C      1  0.5094520000000  0.5184580000000  0.5250810000000 1.0
C      1  0.5204770000000  0.5096800000000  0.5544930000000 1.0
C      1  0.5173750000000  0.4716840000000  0.5190900000000 1.0
C      1  0.5097870000000  0.4582130000000  0.4890860000000 1.0
C      1  0.4515300000000  0.4855560000000  0.5398260000000 1.0
C      1  0.4416170000000  0.4666130000000  0.5133690000000 1.0
C      1  0.4409540000000  0.4697620000000  0.4795060000000 1.0
C      1  0.4509680000000  0.4965940000000  0.4667310000000 1.0
C      1  0.4493560000000  0.5276990000000  0.4794770000000 1.0
C      1  0.4524230000000  0.5411480000000  0.5084840000000 1.0
C      1  0.4449460000000  0.5180550000000  0.5323000000000 1.0
C      1  0.5326550000000  0.5594550000000  0.4535000000000 1.0
C      1  0.5317260000000  0.5798560000000  0.5150290000000 1.0
C      1  0.5310150000000  0.5327260000000  0.5729560000000 1.0
C      1  0.5414710000000  0.4627840000000  0.5675440000000 1.0
C      1  0.5327890000000  0.4364690000000  0.5015480000000 1.0
C      1  0.5349590000000  0.4386250000000  0.4424070000000 1.0
C      1  0.5368810000000  0.5047440000000  0.4266790000000 1.0
C      1  0.5562690000000  0.4385360000000  0.5263880000000 1.0
C      1  0.5617350000000  0.4360100000000  0.4570360000000 1.0
C      1  0.5570250000000  0.4809990000000  0.4130180000000 1.0
C      1  0.5555690000000  0.5371300000000  0.4571070000000 1.0
C      1  0.5584250000000  0.5734590000000  0.4971890000000 1.0
C      1  0.5505550000000  0.5508540000000  0.5545930000000 1.0
C      1  0.5613640000000  0.4832510000000  0.5846650000000 1.0
C      1  0.5358310000000  0.4338960000000  0.5531690000000 1.0
C      1  0.5266690000000  0.4112150000000  0.4813340000000 1.0
C      1  0.5381290000000  0.4560750000000  0.4170600000000 1.0
C      1  0.5288910000000  0.5320750000000  0.4134610000000 1.0
C      1  0.5350700000000  0.5825190000000  0.4754760000000 1.0
C      1  0.5297630000000  0.5698290000000  0.5380360000000 1.0
C      1  0.5419560000000  0.5073520000000  0.5883940000000 1.0
C      1  0.5840870000000  0.4282740000000  0.5243440000000 1.0
C      1  0.5863100000000  0.4473450000000  0.4735580000000 1.0
C      1  0.5824660000000  0.4831350000000  0.4040270000000 1.0
C      1  0.5810020000000  0.5405450000000  0.4522400000000 1.0
C      1  0.5839170000000  0.5827490000000  0.4997120000000 1.0
C      1  0.5758100000000  0.5611500000000  0.5665340000000 1.0
C      1  0.5872300000000  0.4796820000000  0.5918660000000 1.0
C      1  0.5170770000000  0.5524990000000  0.4287010000000 1.0
C      1  0.5097870000000  0.5936720000000  0.4953250000000 1.0
C      1  0.5138120000000  0.5606820000000  0.5666600000000 1.0
C      1  0.5221210000000  0.4833090000000  0.5843640000000 1.0
C      1  0.5151730000000  0.4284800000000  0.5295150000000 1.0
C      1  0.5145900000000  0.4181260000000  0.4563440000000 1.0
C      1  0.5186960000000  0.4791640000000  0.4215070000000 1.0
C      1  0.4825950000000  0.4926790000000  0.4573000000000 1.0
C      1  0.4816860000000  0.5210930000000  0.4876710000000 1.0
C      1  0.4846950000000  0.5489260000000  0.5159710000000 1.0
C      1  0.4788520000000  0.5182880000000  0.5274660000000 1.0
C      1  0.4790560000000  0.4786200000000  0.5513420000000 1.0
C      1  0.4742090000000  0.4591580000000  0.5071760000000 1.0
C      1  0.4851350000000  0.4815140000000  0.4856180000000 1.0
C      1  0.4634430000000  0.5351730000000  0.5765980000000 1.0
C      1  0.4500050000000  0.4570850000000  0.5681500000000 1.0
C      1  0.4622470000000  0.4179200000000  0.5151680000000 1.0
C      1  0.4626870000000  0.4383130000000  0.4449440000000 1.0
C      1  0.4543170000000  0.5011740000000  0.4164420000000 1.0
C      1  0.4688570000000  0.5649140000000  0.4519170000000 1.0
C      1  0.4597900000000  0.5888390000000  0.5211410000000 1.0
C      1  0.4023240000000  0.5024740000000  0.5002720000000 1.0
C      1  0.4646130000000  0.4979730000000  0.5042120000000 1.0
C      1  0.5169530000000  0.4988710000000  0.5021320000000 1.0
C      1  0.4308560000000  0.4985880000000  0.5082420000000 1.0
C      1  0.5482640000000  0.5080110000000  0.4986410000000 1.0
END
