TITL C-3289327-5623-327 -0.000210776494610954 125000 -706.355091293389 0 0 117 (C1) n - 1
REM
REM in /nfs/bkarasulu/CARBON/AIRSS/Generating-Clusters/AIREBO/with-SteepDescent/Higher-Symm/SD-CG/HFTN-CG
REM
REM
REM
REM
REM
REM ./C.cell (b20cbc046b6831c77cfcea5457e17084)
REM
REM compiler GCC version 9.2.1 20190827 (Red Hat 9.2.1-1)
REM options -cpp -mtune=generic -march=x86-64 -g -O0 -fpre-include=/usr/include/finclude/math-vector-fortran.h
REM seed -2095863332 1624511268 -515735012 -226159530 -179267332 147845299 600388378 -297622751 -1072825885 901049790 -1526246911 1073588560 1036729786 18806605 -335097625 -807429226 1264219957 -1681346554 1522803712 1104832995 2048268301 1149135758 793294748 1932699205 -1058570719 -611840896 256404775 75573747 439513056 -1531740180 -1062125801 -998687899 -563829206
REM
CELL 1.54180   50.00000   50.00000   50.00000   90.00000   90.00000   90.00000
LATT -1
SFAC C  
C      1  0.5344870000000  0.4154270000000  0.5220940000000 1.0
C      1  0.5391870000000  0.4152310000000  0.4939260000000 1.0
C      1  0.5274510000000  0.4162400000000  0.4676680000000 1.0
C      1  0.4991980000000  0.4111830000000  0.4589900000000 1.0
C      1  0.4708750000000  0.4096280000000  0.4639720000000 1.0
C      1  0.4556530000000  0.4087380000000  0.4909290000000 1.0
C      1  0.4647920000000  0.4114760000000  0.5200760000000 1.0
C      1  0.4820560000000  0.4121250000000  0.5427470000000 1.0
C      1  0.5100340000000  0.4126650000000  0.5392170000000 1.0
C      1  0.4196320000000  0.5244480000000  0.4331060000000 1.0
C      1  0.4069830000000  0.5186030000000  0.4954010000000 1.0
C      1  0.4196720000000  0.5203160000000  0.5625700000000 1.0
C      1  0.4768720000000  0.5142200000000  0.5922770000000 1.0
C      1  0.5467740000000  0.5177970000000  0.5910060000000 1.0
C      1  0.5968970000000  0.5185650000000  0.5395470000000 1.0
C      1  0.5899740000000  0.5147440000000  0.4714800000000 1.0
C      1  0.5493330000000  0.5215070000000  0.4155860000000 1.0
C      1  0.4786060000000  0.5175270000000  0.4038590000000 1.0
C      1  0.5125520000000  0.5593230000000  0.5325540000000 1.0
C      1  0.5389620000000  0.5467220000000  0.5229920000000 1.0
C      1  0.5524820000000  0.5483220000000  0.4960680000000 1.0
C      1  0.5306720000000  0.5452120000000  0.4727610000000 1.0
C      1  0.5042350000000  0.5549300000000  0.4659360000000 1.0
C      1  0.4766200000000  0.5396960000000  0.4680650000000 1.0
C      1  0.4537730000000  0.5330390000000  0.4886850000000 1.0
C      1  0.4677750000000  0.5262060000000  0.5126670000000 1.0
C      1  0.4853990000000  0.5467020000000  0.5300210000000 1.0
C      1  0.4367660000000  0.4756280000000  0.5513330000000 1.0
C      1  0.4979700000000  0.4753980000000  0.5777080000000 1.0
C      1  0.5497680000000  0.4774310000000  0.5626640000000 1.0
C      1  0.5787420000000  0.4747100000000  0.5201520000000 1.0
C      1  0.5699440000000  0.4762220000000  0.4550590000000 1.0
C      1  0.5296500000000  0.4752990000000  0.4227020000000 1.0
C      1  0.4742480000000  0.4727440000000  0.4226240000000 1.0
C      1  0.4283280000000  0.4770450000000  0.4509840000000 1.0
C      1  0.4151050000000  0.4727710000000  0.5055630000000 1.0
C      1  0.5654640000000  0.4358890000000  0.4876000000000 1.0
C      1  0.5441690000000  0.4346590000000  0.4495310000000 1.0
C      1  0.5051270000000  0.4423750000000  0.4472630000000 1.0
C      1  0.4601560000000  0.4364670000000  0.4514130000000 1.0
C      1  0.4373020000000  0.4365000000000  0.4838590000000 1.0
C      1  0.4411900000000  0.4336970000000  0.5233200000000 1.0
C      1  0.4714500000000  0.4359800000000  0.5657900000000 1.0
C      1  0.5238270000000  0.4358360000000  0.5591220000000 1.0
C      1  0.5560320000000  0.4340650000000  0.5354690000000 1.0
C      1  0.4722110000000  0.4937090000000  0.5164280000000 1.0
C      1  0.4893290000000  0.5137360000000  0.5352050000000 1.0
C      1  0.5178160000000  0.5069990000000  0.5410160000000 1.0
C      1  0.5356840000000  0.5172500000000  0.5240470000000 1.0
C      1  0.5407120000000  0.5058630000000  0.4995590000000 1.0
C      1  0.5284350000000  0.5149800000000  0.4763160000000 1.0
C      1  0.5078860000000  0.4997860000000  0.4666530000000 1.0
C      1  0.4821790000000  0.5092600000000  0.4698880000000 1.0
C      1  0.4666260000000  0.4952870000000  0.4870140000000 1.0
C      1  0.4465990000000  0.5768650000000  0.5159570000000 1.0
C      1  0.4661020000000  0.5680470000000  0.5425000000000 1.0
C      1  0.5131090000000  0.5663830000000  0.5606980000000 1.0
C      1  0.5558670000000  0.5643350000000  0.5431950000000 1.0
C      1  0.5708950000000  0.5752200000000  0.4947540000000 1.0
C      1  0.5512490000000  0.5705860000000  0.4633090000000 1.0
C      1  0.4979480000000  0.5740120000000  0.4401120000000 1.0
C      1  0.4706410000000  0.5723680000000  0.4607710000000 1.0
C      1  0.4480020000000  0.5850630000000  0.4827420000000 1.0
C      1  0.4387160000000  0.5012960000000  0.4284790000000 1.0
C      1  0.3923280000000  0.5103680000000  0.4727350000000 1.0
C      1  0.4210710000000  0.5008190000000  0.5424790000000 1.0
C      1  0.4551870000000  0.4976150000000  0.5855860000000 1.0
C      1  0.5245220000000  0.5068090000000  0.6039400000000 1.0
C      1  0.5863810000000  0.5098730000000  0.5641940000000 1.0
C      1  0.5955380000000  0.4954590000000  0.4908240000000 1.0
C      1  0.5747750000000  0.5132170000000  0.4238210000000 1.0
C      1  0.5046970000000  0.5104200000000  0.4081740000000 1.0
C      1  0.4669540000000  0.4482290000000  0.5356290000000 1.0
C      1  0.4959110000000  0.4493960000000  0.5461170000000 1.0
C      1  0.5229640000000  0.4550810000000  0.5305930000000 1.0
C      1  0.5443060000000  0.4518120000000  0.5089340000000 1.0
C      1  0.5376940000000  0.4537730000000  0.4768970000000 1.0
C      1  0.5129710000000  0.4711950000000  0.4639960000000 1.0
C      1  0.4992510000000  0.4452660000000  0.4797670000000 1.0
C      1  0.4702900000000  0.4446900000000  0.4828100000000 1.0
C      1  0.4598520000000  0.4598060000000  0.5072080000000 1.0
C      1  0.5806060000000  0.5013950000000  0.4483480000000 1.0
C      1  0.5303790000000  0.5012720000000  0.4108750000000 1.0
C      1  0.4620840000000  0.4976960000000  0.4148790000000 1.0
C      1  0.4052780000000  0.5020310000000  0.4493660000000 1.0
C      1  0.4112940000000  0.4994300000000  0.5154090000000 1.0
C      1  0.4297920000000  0.5093270000000  0.5865410000000 1.0
C      1  0.4998050000000  0.4982790000000  0.5945050000000 1.0
C      1  0.5619480000000  0.5003940000000  0.5746010000000 1.0
C      1  0.5982260000000  0.4984750000000  0.5203950000000 1.0
C      1  0.5773130000000  0.4669120000000  0.4868650000000 1.0
C      1  0.5498850000000  0.4631540000000  0.4399860000000 1.0
C      1  0.5022370000000  0.4648250000000  0.4260410000000 1.0
C      1  0.4528840000000  0.4582860000000  0.4366120000000 1.0
C      1  0.4238110000000  0.4617940000000  0.4803970000000 1.0
C      1  0.4261700000000  0.4595450000000  0.5286370000000 1.0
C      1  0.4650370000000  0.4692320000000  0.5695400000000 1.0
C      1  0.5238460000000  0.4665180000000  0.5688330000000 1.0
C      1  0.5644370000000  0.4631880000000  0.5414680000000 1.0
C      1  0.5982110000000  0.5459380000000  0.5320340000000 1.0
C      1  0.5806870000000  0.5401610000000  0.4785610000000 1.0
C      1  0.5402120000000  0.5476320000000  0.4215440000000 1.0
C      1  0.4743900000000  0.5450960000000  0.4006820000000 1.0
C      1  0.4252090000000  0.5514290000000  0.4384340000000 1.0
C      1  0.4264640000000  0.5388480000000  0.4915470000000 1.0
C      1  0.4202720000000  0.5477230000000  0.5567070000000 1.0
C      1  0.4790290000000  0.5417640000000  0.5860640000000 1.0
C      1  0.5484150000000  0.5457180000000  0.5873070000000 1.0
C      1  0.5787910000000  0.5654190000000  0.5247500000000 1.0
C      1  0.5835130000000  0.5687530000000  0.4651460000000 1.0
C      1  0.5312820000000  0.5669750000000  0.4392790000000 1.0
C      1  0.4858950000000  0.5670050000000  0.4120340000000 1.0
C      1  0.4384330000000  0.5657430000000  0.4561910000000 1.0
C      1  0.4233270000000  0.5659180000000  0.4954520000000 1.0
C      1  0.4334760000000  0.5679220000000  0.5457960000000 1.0
C      1  0.4853840000000  0.5631870000000  0.5686560000000 1.0
C      1  0.5410990000000  0.5648320000000  0.5678130000000 1.0
END
