TITL C-3289322-3858-641 0.00031152511163476 125000 -993.543283823396 0 0 176 (C1) n - 1
REM
REM in /nfs/bkarasulu/CARBON/AIRSS/Generating-Clusters/AIREBO/with-SteepDescent/Higher-Symm/SD-CG/HFTN-CG
REM
REM
REM
REM
REM
REM ./C.cell (b20cbc046b6831c77cfcea5457e17084)
REM
REM compiler GCC version 9.2.1 20190827 (Red Hat 9.2.1-1)
REM options -cpp -mtune=generic -march=x86-64 -g -O0 -fpre-include=/usr/include/finclude/math-vector-fortran.h
REM seed -731548245 -711038653 1365023282 969997198 2091134834 1896291302 1704027791 -2098655714 -1572535646 528965296 -372827957 1426814840 1454690904 1358489135 -262635132 -261015431 1787899052 1201566544 -399060050 -239562310 -213312794 323820722 -67974327 2042449652 1153605681 -404885278 254325479 1029647821 -852380411 -2108977300 -363405721 858970984 -1404201285
REM
CELL 1.54180   50.00000   50.00000   50.00000   90.00000   90.00000   90.00000
LATT -1
SFAC C  
C      1  0.4364830000000  0.4642940000000  0.5588980000000 1.0
C      1  0.4349550000000  0.4250710000000  0.5069860000000 1.0
C      1  0.4354370000000  0.4482850000000  0.4444680000000 1.0
C      1  0.4363120000000  0.5054900000000  0.4258270000000 1.0
C      1  0.4346870000000  0.5665460000000  0.4568350000000 1.0
C      1  0.4326750000000  0.5701610000000  0.5294220000000 1.0
C      1  0.4307190000000  0.5261170000000  0.5664560000000 1.0
C      1  0.5304180000000  0.5624710000000  0.5895400000000 1.0
C      1  0.5255070000000  0.4780250000000  0.5787710000000 1.0
C      1  0.5230900000000  0.4121660000000  0.5333490000000 1.0
C      1  0.5288670000000  0.4228490000000  0.4586970000000 1.0
C      1  0.5281880000000  0.4772370000000  0.4087820000000 1.0
C      1  0.5172250000000  0.5666940000000  0.4338580000000 1.0
C      1  0.5210640000000  0.5915760000000  0.5003360000000 1.0
C      1  0.4582280000000  0.5110050000000  0.5533750000000 1.0
C      1  0.4667710000000  0.4582570000000  0.5536450000000 1.0
C      1  0.4587770000000  0.4456460000000  0.4999310000000 1.0
C      1  0.4578670000000  0.4715910000000  0.4550020000000 1.0
C      1  0.4614280000000  0.5108180000000  0.4481320000000 1.0
C      1  0.4616620000000  0.5551340000000  0.4740610000000 1.0
C      1  0.4642180000000  0.5602010000000  0.5223080000000 1.0
C      1  0.5704060000000  0.4708910000000  0.5228050000000 1.0
C      1  0.5760650000000  0.4568530000000  0.4943570000000 1.0
C      1  0.5898720000000  0.4788530000000  0.4758320000000 1.0
C      1  0.5793100000000  0.5010200000000  0.4606490000000 1.0
C      1  0.5825330000000  0.5309200000000  0.4726080000000 1.0
C      1  0.5754330000000  0.5391310000000  0.5025600000000 1.0
C      1  0.5781480000000  0.5207910000000  0.5310750000000 1.0
C      1  0.5128170000000  0.5040960000000  0.5965320000000 1.0
C      1  0.5050000000000  0.4316370000000  0.5771260000000 1.0
C      1  0.5145060000000  0.4044500000000  0.4815890000000 1.0
C      1  0.5186860000000  0.4464210000000  0.4143440000000 1.0
C      1  0.5082330000000  0.5271750000000  0.4083580000000 1.0
C      1  0.5089450000000  0.6049040000000  0.4745670000000 1.0
C      1  0.5253500000000  0.5929020000000  0.5514400000000 1.0
C      1  0.4755300000000  0.5071500000000  0.4196560000000 1.0
C      1  0.4724690000000  0.5688290000000  0.4447300000000 1.0
C      1  0.4805660000000  0.5886740000000  0.5312060000000 1.0
C      1  0.4627180000000  0.5510340000000  0.6016520000000 1.0
C      1  0.4763730000000  0.4399300000000  0.5731690000000 1.0
C      1  0.4749450000000  0.4228500000000  0.5193000000000 1.0
C      1  0.4775020000000  0.4263490000000  0.4488900000000 1.0
C      1  0.4872160000000  0.5274990000000  0.5219920000000 1.0
C      1  0.4814660000000  0.4973430000000  0.5366350000000 1.0
C      1  0.4829300000000  0.4655540000000  0.5246240000000 1.0
C      1  0.4896880000000  0.4575690000000  0.4922340000000 1.0
C      1  0.4829940000000  0.4805620000000  0.4706030000000 1.0
C      1  0.4835610000000  0.5229680000000  0.4650060000000 1.0
C      1  0.4839480000000  0.5401880000000  0.4939090000000 1.0
C      1  0.4018430000000  0.4951510000000  0.4635610000000 1.0
C      1  0.4042720000000  0.5260400000000  0.4747140000000 1.0
C      1  0.4113240000000  0.5354720000000  0.5053330000000 1.0
C      1  0.4024510000000  0.5199770000000  0.5298870000000 1.0
C      1  0.3919540000000  0.4907190000000  0.5315410000000 1.0
C      1  0.3959480000000  0.4632770000000  0.5151920000000 1.0
C      1  0.3991650000000  0.4702680000000  0.4840600000000 1.0
C      1  0.4958030000000  0.5496390000000  0.4540160000000 1.0
C      1  0.4937250000000  0.5727690000000  0.4927470000000 1.0
C      1  0.4890970000000  0.5518460000000  0.5439410000000 1.0
C      1  0.5058380000000  0.4894680000000  0.5535070000000 1.0
C      1  0.5043540000000  0.4391210000000  0.5244430000000 1.0
C      1  0.4993120000000  0.4384240000000  0.4652920000000 1.0
C      1  0.4960610000000  0.4814600000000  0.4191320000000 1.0
C      1  0.5447930000000  0.5508360000000  0.4332010000000 1.0
C      1  0.5548640000000  0.5880560000000  0.4994670000000 1.0
C      1  0.5560000000000  0.5618050000000  0.5760920000000 1.0
C      1  0.5561930000000  0.4874380000000  0.5735860000000 1.0
C      1  0.5516990000000  0.4276270000000  0.5386390000000 1.0
C      1  0.5597530000000  0.4188540000000  0.4723720000000 1.0
C      1  0.5563540000000  0.4739280000000  0.4248480000000 1.0
C      1  0.5240980000000  0.4965340000000  0.5145850000000 1.0
C      1  0.5209160000000  0.4673330000000  0.5015690000000 1.0
C      1  0.5306540000000  0.4751180000000  0.4699170000000 1.0
C      1  0.5094770000000  0.5015260000000  0.4665540000000 1.0
C      1  0.5246340000000  0.5293870000000  0.4790360000000 1.0
C      1  0.5233520000000  0.5452070000000  0.5091090000000 1.0
C      1  0.5189160000000  0.5207370000000  0.5322950000000 1.0
C      1  0.4317650000000  0.4652570000000  0.5064110000000 1.0
C      1  0.4320520000000  0.4724930000000  0.4757170000000 1.0
C      1  0.4350270000000  0.5025790000000  0.4654300000000 1.0
C      1  0.4381650000000  0.5320710000000  0.4764790000000 1.0
C      1  0.4450300000000  0.5389870000000  0.5082290000000 1.0
C      1  0.4376180000000  0.5165140000000  0.5285380000000 1.0
C      1  0.4253020000000  0.4875990000000  0.5256660000000 1.0
C      1  0.6011650000000  0.5041420000000  0.4360670000000 1.0
C      1  0.5889090000000  0.5585290000000  0.4564660000000 1.0
C      1  0.5985370000000  0.5566250000000  0.5191150000000 1.0
C      1  0.5889300000000  0.5319500000000  0.5613320000000 1.0
C      1  0.5907060000000  0.4632220000000  0.5485450000000 1.0
C      1  0.5966970000000  0.4292880000000  0.5146430000000 1.0
C      1  0.5991330000000  0.4503640000000  0.4623310000000 1.0
C      1  0.6193280000000  0.5023240000000  0.4628030000000 1.0
C      1  0.6122050000000  0.5225090000000  0.4818810000000 1.0
C      1  0.6134060000000  0.5290110000000  0.5099310000000 1.0
C      1  0.6079390000000  0.5049760000000  0.5272450000000 1.0
C      1  0.6093730000000  0.4773790000000  0.5290750000000 1.0
C      1  0.6085270000000  0.4586720000000  0.5043280000000 1.0
C      1  0.6228770000000  0.4710400000000  0.4757860000000 1.0
C      1  0.5534230000000  0.4394090000000  0.5677020000000 1.0
C      1  0.5599810000000  0.4031270000000  0.4986880000000 1.0
C      1  0.5637520000000  0.4441400000000  0.4306350000000 1.0
C      1  0.5444010000000  0.5201680000000  0.4237670000000 1.0
C      1  0.5440990000000  0.5803370000000  0.4696350000000 1.0
C      1  0.5527150000000  0.5645930000000  0.5461500000000 1.0
C      1  0.5494810000000  0.5156240000000  0.5860650000000 1.0
C      1  0.4400350000000  0.5559400000000  0.5793600000000 1.0
C      1  0.4402060000000  0.4770390000000  0.5886560000000 1.0
C      1  0.4367500000000  0.4210830000000  0.5350550000000 1.0
C      1  0.4323520000000  0.4239000000000  0.4595380000000 1.0
C      1  0.4456840000000  0.4811940000000  0.4048010000000 1.0
C      1  0.4355110000000  0.5551250000000  0.4308820000000 1.0
C      1  0.4386580000000  0.5858110000000  0.5029830000000 1.0
C      1  0.4175000000000  0.4236750000000  0.4840000000000 1.0
C      1  0.4236620000000  0.4717910000000  0.4264290000000 1.0
C      1  0.4206650000000  0.5313900000000  0.4275770000000 1.0
C      1  0.4219790000000  0.5777570000000  0.4811030000000 1.0
C      1  0.4217810000000  0.5569360000000  0.5538920000000 1.0
C      1  0.4208390000000  0.4945300000000  0.5586590000000 1.0
C      1  0.4211840000000  0.4394550000000  0.5494130000000 1.0
C      1  0.5292760000000  0.5064920000000  0.3965570000000 1.0
C      1  0.5215200000000  0.5942760000000  0.4498380000000 1.0
C      1  0.5095790000000  0.5992140000000  0.5276720000000 1.0
C      1  0.5258340000000  0.5356740000000  0.5996190000000 1.0
C      1  0.5281500000000  0.4471220000000  0.5786280000000 1.0
C      1  0.5328400000000  0.3965320000000  0.5066160000000 1.0
C      1  0.5390940000000  0.4299560000000  0.4304050000000 1.0
C      1  0.5426750000000  0.4544460000000  0.5243450000000 1.0
C      1  0.5495690000000  0.4490090000000  0.4807540000000 1.0
C      1  0.5534310000000  0.4890040000000  0.4523710000000 1.0
C      1  0.5504090000000  0.5359440000000  0.4626600000000 1.0
C      1  0.5505830000000  0.5551580000000  0.4999510000000 1.0
C      1  0.5492210000000  0.5351680000000  0.5377190000000 1.0
C      1  0.5631910000000  0.4947800000000  0.5442230000000 1.0
C      1  0.3965500000000  0.4437930000000  0.5380860000000 1.0
C      1  0.3935940000000  0.4387220000000  0.4838200000000 1.0
C      1  0.3976350000000  0.4851190000000  0.4369130000000 1.0
C      1  0.3981470000000  0.5299680000000  0.4434220000000 1.0
C      1  0.4000800000000  0.5621960000000  0.4908750000000 1.0
C      1  0.3960450000000  0.5385650000000  0.5508800000000 1.0
C      1  0.3897770000000  0.4882970000000  0.5634810000000 1.0
C      1  0.5145830000000  0.5841560000000  0.5788760000000 1.0
C      1  0.4852260000000  0.5025360000000  0.6040390000000 1.0
C      1  0.4992340000000  0.4130900000000  0.5543410000000 1.0
C      1  0.4877590000000  0.3957760000000  0.4738500000000 1.0
C      1  0.4935780000000  0.4324020000000  0.4051240000000 1.0
C      1  0.4976450000000  0.5523910000000  0.4141800000000 1.0
C      1  0.4813780000000  0.6062360000000  0.4746660000000 1.0
C      1  0.4717330000000  0.5609080000000  0.5714000000000 1.0
C      1  0.4574970000000  0.5021690000000  0.5855750000000 1.0
C      1  0.4661530000000  0.4110770000000  0.5474860000000 1.0
C      1  0.4578910000000  0.4103330000000  0.4654620000000 1.0
C      1  0.4668700000000  0.4667970000000  0.4237010000000 1.0
C      1  0.4640010000000  0.5570550000000  0.4158990000000 1.0
C      1  0.4678510000000  0.5934160000000  0.5005270000000 1.0
C      1  0.4879310000000  0.5864790000000  0.5636890000000 1.0
C      1  0.4644930000000  0.5249420000000  0.6093980000000 1.0
C      1  0.4568240000000  0.4171690000000  0.5796080000000 1.0
C      1  0.4674260000000  0.4047600000000  0.4959160000000 1.0
C      1  0.4734940000000  0.4371340000000  0.4230130000000 1.0
C      1  0.4687700000000  0.5277020000000  0.4022120000000 1.0
C      1  0.4703250000000  0.5989550000000  0.4508240000000 1.0
C      1  0.5652520000000  0.5704310000000  0.4490760000000 1.0
C      1  0.5727290000000  0.5759510000000  0.5254000000000 1.0
C      1  0.5701010000000  0.5377450000000  0.5801940000000 1.0
C      1  0.5727490000000  0.4604880000000  0.5701850000000 1.0
C      1  0.5735610000000  0.4160340000000  0.5197140000000 1.0
C      1  0.5796380000000  0.4343660000000  0.4518560000000 1.0
C      1  0.5736450000000  0.5030030000000  0.4212150000000 1.0
C      1  0.5159280000000  0.4582760000000  0.4460930000000 1.0
C      1  0.5150910000000  0.5055730000000  0.4337070000000 1.0
C      1  0.5186330000000  0.5621410000000  0.4734480000000 1.0
C      1  0.5196850000000  0.5620420000000  0.5383350000000 1.0
C      1  0.5222020000000  0.5155750000000  0.5657400000000 1.0
C      1  0.5190620000000  0.4646730000000  0.5414140000000 1.0
C      1  0.5230610000000  0.4337660000000  0.4965470000000 1.0
C      1  0.5515400000000  0.4926460000000  0.5060660000000 1.0
END
