TITL C-3289329-2751-90 -6.03124395502329e-05 125000 -255.519779174552 0 0 52 (C1) n - 1
REM
REM in /nfs/bkarasulu/CARBON/AIRSS/Generating-Clusters/AIREBO/with-SteepDescent/Higher-Symm/SD-CG/HFTN-CG
REM
REM
REM
REM
REM
REM ./C.cell (b20cbc046b6831c77cfcea5457e17084)
REM
REM compiler GCC version 9.2.1 20190827 (Red Hat 9.2.1-1)
REM options -cpp -mtune=generic -march=x86-64 -g -O0 -fpre-include=/usr/include/finclude/math-vector-fortran.h
REM seed -1603526292 2070166655 568337229 -866483994 -1359314016 -2026263534 3842139 1962758913 1834059321 1739711676 1577115942 538395712 -1044183253 -232473917 817433428 1739224939 -1263676385 -741782184 -2128230193 -1438080639 -1864687409 1868870295 -1440002728 964998698 -1111213695 -1446265645 -605736511 1603697688 -1929469706 -1987939272 694183047 -1515016901 -1724166558
REM
CELL 1.54180   50.00000   50.00000   50.00000   90.00000   90.00000   90.00000
LATT -1
SFAC C  
C      1  0.4491600000000  0.5883880000000  0.4948230000000 1.0
C      1  0.5560450000000  0.4968590000000  0.4320530000000 1.0
C      1  0.4862700000000  0.4305420000000  0.5467960000000 1.0
C      1  0.5687550000000  0.5504600000000  0.4963790000000 1.0
C      1  0.5679170000000  0.4489640000000  0.5041420000000 1.0
C      1  0.4475500000000  0.4061810000000  0.4939990000000 1.0
C      1  0.4577180000000  0.5010390000000  0.5644430000000 1.0
C      1  0.4518460000000  0.5040600000000  0.4347580000000 1.0
C      1  0.5596320000000  0.5191370000000  0.5658130000000 1.0
C      1  0.5008530000000  0.4301770000000  0.4506990000000 1.0
C      1  0.4954060000000  0.5658800000000  0.5467530000000 1.0
C      1  0.4974060000000  0.5693500000000  0.4580740000000 1.0
C      1  0.4924730000000  0.5909640000000  0.4454290000000 1.0
C      1  0.4352220000000  0.4979750000000  0.5483870000000 1.0
C      1  0.5444060000000  0.4345860000000  0.5008480000000 1.0
C      1  0.4994620000000  0.5438830000000  0.5631460000000 1.0
C      1  0.4820520000000  0.4445150000000  0.5703950000000 1.0
C      1  0.5029980000000  0.4527170000000  0.4345580000000 1.0
C      1  0.5693420000000  0.4953290000000  0.4565410000000 1.0
C      1  0.4307090000000  0.5046920000000  0.4528330000000 1.0
C      1  0.5723430000000  0.5091280000000  0.5432330000000 1.0
C      1  0.4620080000000  0.4272070000000  0.4945620000000 1.0
C      1  0.5444300000000  0.5639810000000  0.4972560000000 1.0
C      1  0.4633330000000  0.5673630000000  0.4977400000000 1.0
C      1  0.4794390000000  0.5408950000000  0.4986560000000 1.0
C      1  0.5476930000000  0.4973670000000  0.4811530000000 1.0
C      1  0.4975790000000  0.4684180000000  0.5516890000000 1.0
C      1  0.5192110000000  0.5426720000000  0.4979000000000 1.0
C      1  0.5180480000000  0.4543920000000  0.5005910000000 1.0
C      1  0.4782380000000  0.4531930000000  0.4978850000000 1.0
C      1  0.4599540000000  0.4952010000000  0.5251370000000 1.0
C      1  0.4569280000000  0.4998710000000  0.4740360000000 1.0
C      1  0.5503750000000  0.5012680000000  0.5205710000000 1.0
C      1  0.5033190000000  0.4799210000000  0.4527120000000 1.0
C      1  0.5055950000000  0.5169800000000  0.5455720000000 1.0
C      1  0.5043400000000  0.5197180000000  0.4538610000000 1.0
C      1  0.5006160000000  0.5425130000000  0.4722840000000 1.0
C      1  0.4847400000000  0.4954490000000  0.5469830000000 1.0
C      1  0.5455420000000  0.4742890000000  0.5032420000000 1.0
C      1  0.5012250000000  0.5419580000000  0.5234090000000 1.0
C      1  0.4982630000000  0.4500780000000  0.5239220000000 1.0
C      1  0.5013300000000  0.4546890000000  0.4742770000000 1.0
C      1  0.5297260000000  0.4971160000000  0.4534730000000 1.0
C      1  0.4796310000000  0.4999360000000  0.4504810000000 1.0
C      1  0.5332810000000  0.5047940000000  0.5495230000000 1.0
C      1  0.4603450000000  0.4774940000000  0.4986220000000 1.0
C      1  0.5474150000000  0.5243260000000  0.4980460000000 1.0
C      1  0.4608870000000  0.5173440000000  0.5001950000000 1.0
C      1  0.5261170000000  0.4765490000000  0.5616980000000 1.0
C      1  0.4333470000000  0.5233500000000  0.5155480000000 1.0
C      1  0.5206980000000  0.5256930000000  0.4270700000000 1.0
C      1  0.4310500000000  0.4722310000000  0.4866180000000 1.0
END
