TITL C-3289326-3776-416 0.0031003497036294 125000 -795.583353693934 0 0 145 (C1) n - 1
REM
REM in /nfs/bkarasulu/CARBON/AIRSS/Generating-Clusters/AIREBO/with-SteepDescent/Higher-Symm/SD-CG/HFTN-CG
REM
REM
REM
REM
REM
REM ./C.cell (b20cbc046b6831c77cfcea5457e17084)
REM
REM compiler GCC version 9.2.1 20190827 (Red Hat 9.2.1-1)
REM options -cpp -mtune=generic -march=x86-64 -g -O0 -fpre-include=/usr/include/finclude/math-vector-fortran.h
REM seed 1053521058 -1243070127 -1065548958 -244887929 -537711548 14288841 1700438900 122484026 -852711772 -1650811081 -1200195715 1329521706 -1035304213 146942387 -741667480 -1430484949 -108283806 773097136 162883881 -1240558489 -1002432513 -1470133822 -2017626383 -2096281475 117266687 -904194078 -2061545942 -1863422910 1363673259 -225828554 -2122613148 -1631973730 -1095884016
REM
CELL 1.54180   50.00000   50.00000   50.00000   90.00000   90.00000   90.00000
LATT -1
SFAC C  
C      1  0.5138510000000  0.4288480000000  0.5607130000000 1.0
C      1  0.5136070000000  0.5700180000000  0.4264030000000 1.0
C      1  0.4833100000000  0.4280080000000  0.5655300000000 1.0
C      1  0.4824180000000  0.5708480000000  0.4315290000000 1.0
C      1  0.5156070000000  0.5769730000000  0.5687460000000 1.0
C      1  0.5139770000000  0.4281820000000  0.4296140000000 1.0
C      1  0.4846210000000  0.5760170000000  0.5638570000000 1.0
C      1  0.4822860000000  0.4220860000000  0.4299240000000 1.0
C      1  0.4853710000000  0.5646060000000  0.5145720000000 1.0
C      1  0.4940730000000  0.4373500000000  0.4815680000000 1.0
C      1  0.5150040000000  0.5687750000000  0.5237690000000 1.0
C      1  0.5271990000000  0.4338640000000  0.4884180000000 1.0
C      1  0.4822910000000  0.4357160000000  0.5263430000000 1.0
C      1  0.4884930000000  0.5536010000000  0.4847050000000 1.0
C      1  0.5115130000000  0.4435290000000  0.5169930000000 1.0
C      1  0.5197440000000  0.5577350000000  0.4779870000000 1.0
C      1  0.4508990000000  0.4836390000000  0.5887690000000 1.0
C      1  0.4333250000000  0.5173690000000  0.4234580000000 1.0
C      1  0.5441440000000  0.4842610000000  0.5816940000000 1.0
C      1  0.5680740000000  0.5198740000000  0.4268790000000 1.0
C      1  0.4424880000000  0.5120720000000  0.5790010000000 1.0
C      1  0.4376930000000  0.4865230000000  0.4154220000000 1.0
C      1  0.5493810000000  0.5120960000000  0.5828230000000 1.0
C      1  0.5627440000000  0.4876040000000  0.4240780000000 1.0
C      1  0.5257630000000  0.4076200000000  0.5417630000000 1.0
C      1  0.5301130000000  0.5910030000000  0.4475190000000 1.0
C      1  0.4611300000000  0.4100090000000  0.5477750000000 1.0
C      1  0.4680720000000  0.5887650000000  0.4573010000000 1.0
C      1  0.5393490000000  0.5893360000000  0.5476730000000 1.0
C      1  0.5293700000000  0.4120530000000  0.4549710000000 1.0
C      1  0.4648350000000  0.5885300000000  0.5391740000000 1.0
C      1  0.4666580000000  0.4114820000000  0.4584330000000 1.0
C      1  0.5057250000000  0.4723540000000  0.5048790000000 1.0
C      1  0.5257990000000  0.5255420000000  0.4842420000000 1.0
C      1  0.4734960000000  0.4752610000000  0.5153470000000 1.0
C      1  0.4750320000000  0.5254120000000  0.4812870000000 1.0
C      1  0.5284210000000  0.5183920000000  0.5173160000000 1.0
C      1  0.5262210000000  0.4811110000000  0.4839000000000 1.0
C      1  0.4762950000000  0.5159010000000  0.5123170000000 1.0
C      1  0.4726270000000  0.4614330000000  0.4858210000000 1.0
C      1  0.4342930000000  0.5432240000000  0.5681090000000 1.0
C      1  0.4380140000000  0.4559060000000  0.4250480000000 1.0
C      1  0.5690420000000  0.5241280000000  0.5662070000000 1.0
C      1  0.5606870000000  0.4564230000000  0.4207420000000 1.0
C      1  0.4300840000000  0.4672340000000  0.5761820000000 1.0
C      1  0.4263110000000  0.5470790000000  0.4299010000000 1.0
C      1  0.5641420000000  0.4708260000000  0.5669410000000 1.0
C      1  0.5707370000000  0.5494980000000  0.4200490000000 1.0
C      1  0.4696900000000  0.5261980000000  0.5747700000000 1.0
C      1  0.4703730000000  0.4789620000000  0.4210820000000 1.0
C      1  0.5252490000000  0.5266900000000  0.5806530000000 1.0
C      1  0.5292140000000  0.4818730000000  0.4238090000000 1.0
C      1  0.4780840000000  0.4715410000000  0.5921770000000 1.0
C      1  0.4666840000000  0.5128760000000  0.4225650000000 1.0
C      1  0.5109130000000  0.4777350000000  0.5853460000000 1.0
C      1  0.5345490000000  0.5157820000000  0.4229440000000 1.0
C      1  0.5123150000000  0.5899810000000  0.4715690000000 1.0
C      1  0.5100850000000  0.4094330000000  0.5149020000000 1.0
C      1  0.4863100000000  0.5962270000000  0.4788320000000 1.0
C      1  0.4770420000000  0.4028600000000  0.5193140000000 1.0
C      1  0.5143140000000  0.4029010000000  0.4815860000000 1.0
C      1  0.5140300000000  0.6012350000000  0.5283480000000 1.0
C      1  0.4819650000000  0.4080490000000  0.4865160000000 1.0
C      1  0.4836410000000  0.5985110000000  0.5126570000000 1.0
C      1  0.4228490000000  0.5277610000000  0.4743440000000 1.0
C      1  0.4129390000000  0.4686670000000  0.5266670000000 1.0
C      1  0.5807060000000  0.5337280000000  0.4865820000000 1.0
C      1  0.5915870000000  0.4673620000000  0.5242160000000 1.0
C      1  0.4278340000000  0.4706470000000  0.4645910000000 1.0
C      1  0.4143140000000  0.5280450000000  0.5290720000000 1.0
C      1  0.5760630000000  0.4731390000000  0.4707710000000 1.0
C      1  0.5876370000000  0.5293020000000  0.5196820000000 1.0
C      1  0.5600460000000  0.4227240000000  0.4624780000000 1.0
C      1  0.5630740000000  0.5745100000000  0.5412790000000 1.0
C      1  0.4399840000000  0.4260950000000  0.4623050000000 1.0
C      1  0.4329700000000  0.5786440000000  0.5324470000000 1.0
C      1  0.5606250000000  0.5842140000000  0.4617650000000 1.0
C      1  0.5534450000000  0.4077010000000  0.5397680000000 1.0
C      1  0.4364450000000  0.5824130000000  0.4681370000000 1.0
C      1  0.4311720000000  0.4229590000000  0.5377600000000 1.0
C      1  0.5222920000000  0.5523220000000  0.5889600000000 1.0
C      1  0.5220330000000  0.4554910000000  0.4108080000000 1.0
C      1  0.4724420000000  0.5524900000000  0.5830260000000 1.0
C      1  0.4755180000000  0.4505150000000  0.4123800000000 1.0
C      1  0.5265710000000  0.4483930000000  0.5833480000000 1.0
C      1  0.5231380000000  0.5418350000000  0.4095430000000 1.0
C      1  0.4760410000000  0.4434280000000  0.5925070000000 1.0
C      1  0.4775690000000  0.5423930000000  0.4128050000000 1.0
C      1  0.4863940000000  0.4487020000000  0.4506840000000 1.0
C      1  0.4806150000000  0.5511340000000  0.5439600000000 1.0
C      1  0.5202050000000  0.4530300000000  0.4503280000000 1.0
C      1  0.5231470000000  0.5510350000000  0.5490510000000 1.0
C      1  0.4679260000000  0.5496350000000  0.4503400000000 1.0
C      1  0.4714960000000  0.4544220000000  0.5493730000000 1.0
C      1  0.5286450000000  0.5511680000000  0.4476960000000 1.0
C      1  0.5258220000000  0.4556780000000  0.5435400000000 1.0
C      1  0.5931020000000  0.4421070000000  0.5084610000000 1.0
C      1  0.5816400000000  0.5675690000000  0.4833140000000 1.0
C      1  0.4137910000000  0.4425800000000  0.5158120000000 1.0
C      1  0.4240930000000  0.5565410000000  0.4867720000000 1.0
C      1  0.5804860000000  0.5614040000000  0.5167320000000 1.0
C      1  0.5814440000000  0.4448720000000  0.4773320000000 1.0
C      1  0.4131980000000  0.5550980000000  0.5177260000000 1.0
C      1  0.4193940000000  0.4430440000000  0.4823320000000 1.0
C      1  0.4526770000000  0.5583120000000  0.5164270000000 1.0
C      1  0.4479740000000  0.4466880000000  0.4955370000000 1.0
C      1  0.5409680000000  0.5559610000000  0.5139190000000 1.0
C      1  0.5574170000000  0.4311790000000  0.4948890000000 1.0
C      1  0.4529120000000  0.4346210000000  0.5174280000000 1.0
C      1  0.4573680000000  0.5635040000000  0.4861310000000 1.0
C      1  0.5655620000000  0.4320030000000  0.5254490000000 1.0
C      1  0.5496150000000  0.5675730000000  0.4884150000000 1.0
C      1  0.4808460000000  0.4821840000000  0.4527860000000 1.0
C      1  0.4828930000000  0.5172480000000  0.5456480000000 1.0
C      1  0.5146670000000  0.4858520000000  0.4542980000000 1.0
C      1  0.5162940000000  0.5177260000000  0.5490900000000 1.0
C      1  0.4833640000000  0.5222200000000  0.4501150000000 1.0
C      1  0.4838760000000  0.4833170000000  0.5462870000000 1.0
C      1  0.5163370000000  0.5196890000000  0.4514010000000 1.0
C      1  0.5149910000000  0.4839380000000  0.5538350000000 1.0
C      1  0.4129990000000  0.4816590000000  0.5540360000000 1.0
C      1  0.4137080000000  0.5155070000000  0.4508970000000 1.0
C      1  0.5875360000000  0.4827440000000  0.5501490000000 1.0
C      1  0.5846930000000  0.5193550000000  0.4567290000000 1.0
C      1  0.4192760000000  0.5093660000000  0.5542380000000 1.0
C      1  0.4179500000000  0.4863900000000  0.4431110000000 1.0
C      1  0.5883260000000  0.5113340000000  0.5485930000000 1.0
C      1  0.5816070000000  0.4902910000000  0.4496930000000 1.0
C      1  0.4499880000000  0.5394950000000  0.5426020000000 1.0
C      1  0.4529270000000  0.4463700000000  0.4451080000000 1.0
C      1  0.5558460000000  0.5412740000000  0.5407430000000 1.0
C      1  0.5489230000000  0.4439440000000  0.4419180000000 1.0
C      1  0.4407720000000  0.4532230000000  0.5505540000000 1.0
C      1  0.4407230000000  0.5566740000000  0.4504110000000 1.0
C      1  0.5555350000000  0.4582180000000  0.5388100000000 1.0
C      1  0.5567410000000  0.5634500000000  0.4385030000000 1.0
C      1  0.5550470000000  0.5154320000000  0.4827840000000 1.0
C      1  0.5630390000000  0.4826860000000  0.5186020000000 1.0
C      1  0.4451300000000  0.5119180000000  0.4878890000000 1.0
C      1  0.4443580000000  0.4796930000000  0.5293100000000 1.0
C      1  0.5560750000000  0.4858000000000  0.4890660000000 1.0
C      1  0.5581480000000  0.5126250000000  0.5225600000000 1.0
C      1  0.4540420000000  0.4847180000000  0.4736320000000 1.0
C      1  0.4439720000000  0.5127900000000  0.5224070000000 1.0
C      1  0.5031470000000  0.5014750000000  0.5150670000000 1.0
END
