TITL C-3289328-6581-177 -0.00264784539803479 125000 -613.18924532859 0 0 110 (C1) n - 1
REM
REM in /nfs/bkarasulu/CARBON/AIRSS/Generating-Clusters/AIREBO/with-SteepDescent/Higher-Symm/SD-CG/HFTN-CG
REM
REM
REM
REM
REM
REM ./C.cell (b20cbc046b6831c77cfcea5457e17084)
REM
REM compiler GCC version 9.2.1 20190827 (Red Hat 9.2.1-1)
REM options -cpp -mtune=generic -march=x86-64 -g -O0 -fpre-include=/usr/include/finclude/math-vector-fortran.h
REM seed -891066468 -366227323 -1839522409 287886937 1163551378 464226480 1537355221 46677459 2103565143 2104234522 2049014666 -237135022 -799885885 -233192295 -305077040 631775364 1757346246 390100754 -1449550817 931421989 34557449 1570274550 2098311085 374709524 -1544786809 1660217183 2138166875 -589697809 1230550433 -145732436 -2123596491 590127300 1636846856
REM
CELL 1.54180   50.00000   50.00000   50.00000   90.00000   90.00000   90.00000
LATT -1
SFAC C  
C      1  0.5714690000000  0.5514910000000  0.5252130000000 1.0
C      1  0.5817380000000  0.4917580000000  0.5661490000000 1.0
C      1  0.5700180000000  0.4358450000000  0.5147120000000 1.0
C      1  0.5689010000000  0.4598280000000  0.4506750000000 1.0
C      1  0.5669210000000  0.5396820000000  0.4455330000000 1.0
C      1  0.5346970000000  0.4625240000000  0.5525880000000 1.0
C      1  0.5316180000000  0.4318320000000  0.4810880000000 1.0
C      1  0.5310100000000  0.4960830000000  0.4321830000000 1.0
C      1  0.5301590000000  0.5614280000000  0.4731240000000 1.0
C      1  0.5354500000000  0.5503110000000  0.5704720000000 1.0
C      1  0.4745980000000  0.4568340000000  0.4730480000000 1.0
C      1  0.4689440000000  0.5191750000000  0.4472790000000 1.0
C      1  0.4696580000000  0.5577190000000  0.4995890000000 1.0
C      1  0.4600250000000  0.5143400000000  0.5647280000000 1.0
C      1  0.4656430000000  0.4479100000000  0.5261160000000 1.0
C      1  0.4616660000000  0.4255570000000  0.4707890000000 1.0
C      1  0.4562460000000  0.5033620000000  0.4199880000000 1.0
C      1  0.4559360000000  0.5802520000000  0.4781410000000 1.0
C      1  0.4536430000000  0.5448850000000  0.5675560000000 1.0
C      1  0.4601210000000  0.4533360000000  0.5567350000000 1.0
C      1  0.4743110000000  0.5809890000000  0.5315550000000 1.0
C      1  0.4728550000000  0.4901580000000  0.5926800000000 1.0
C      1  0.4742050000000  0.4101140000000  0.5171570000000 1.0
C      1  0.4746650000000  0.4487940000000  0.4234010000000 1.0
C      1  0.4725870000000  0.5549090000000  0.4297940000000 1.0
C      1  0.5238020000000  0.3981620000000  0.5036410000000 1.0
C      1  0.5243330000000  0.4637910000000  0.4081590000000 1.0
C      1  0.5115190000000  0.5851770000000  0.4305500000000 1.0
C      1  0.5210760000000  0.5855610000000  0.5592920000000 1.0
C      1  0.5284080000000  0.4746660000000  0.5900390000000 1.0
C      1  0.5782900000000  0.4390130000000  0.4651690000000 1.0
C      1  0.5769070000000  0.5159540000000  0.4380320000000 1.0
C      1  0.5803480000000  0.5532010000000  0.4989090000000 1.0
C      1  0.5806040000000  0.5163870000000  0.5679100000000 1.0
C      1  0.5833830000000  0.4463340000000  0.5357540000000 1.0
C      1  0.5369840000000  0.4609290000000  0.4543220000000 1.0
C      1  0.5408050000000  0.5528980000000  0.4422960000000 1.0
C      1  0.5398270000000  0.5510420000000  0.5240870000000 1.0
C      1  0.5427120000000  0.5140290000000  0.5553890000000 1.0
C      1  0.5393380000000  0.4409650000000  0.5192240000000 1.0
C      1  0.5533390000000  0.4925080000000  0.5342020000000 1.0
C      1  0.5509730000000  0.4717240000000  0.5073150000000 1.0
C      1  0.5502960000000  0.4839490000000  0.4758270000000 1.0
C      1  0.5534230000000  0.5151560000000  0.4892930000000 1.0
C      1  0.5494380000000  0.5193080000000  0.5164300000000 1.0
C      1  0.5219910000000  0.4485260000000  0.4308530000000 1.0
C      1  0.5206730000000  0.5595780000000  0.4235820000000 1.0
C      1  0.5256620000000  0.5807480000000  0.5323340000000 1.0
C      1  0.5262970000000  0.5022370000000  0.5828430000000 1.0
C      1  0.5217680000000  0.4168950000000  0.5235820000000 1.0
C      1  0.4327300000000  0.5034260000000  0.4445490000000 1.0
C      1  0.4325110000000  0.5566440000000  0.4852400000000 1.0
C      1  0.4295760000000  0.5319050000000  0.5473180000000 1.0
C      1  0.4336130000000  0.4661670000000  0.5425450000000 1.0
C      1  0.4366840000000  0.4469440000000  0.4794880000000 1.0
C      1  0.4548590000000  0.4552380000000  0.4454110000000 1.0
C      1  0.4454790000000  0.5392770000000  0.4330780000000 1.0
C      1  0.4466870000000  0.5761200000000  0.5166180000000 1.0
C      1  0.4415330000000  0.4956570000000  0.5823990000000 1.0
C      1  0.4468270000000  0.4235840000000  0.5194850000000 1.0
C      1  0.4821950000000  0.5412580000000  0.5858220000000 1.0
C      1  0.4898230000000  0.4367900000000  0.5557060000000 1.0
C      1  0.4903130000000  0.4176420000000  0.4540880000000 1.0
C      1  0.4864250000000  0.5137630000000  0.4081560000000 1.0
C      1  0.4869760000000  0.5919160000000  0.4859550000000 1.0
C      1  0.4972410000000  0.4342920000000  0.4331610000000 1.0
C      1  0.4976890000000  0.5389540000000  0.4221870000000 1.0
C      1  0.4989920000000  0.5834560000000  0.5128350000000 1.0
C      1  0.4943410000000  0.5136820000000  0.5850110000000 1.0
C      1  0.4956020000000  0.4192710000000  0.5348910000000 1.0
C      1  0.5608160000000  0.4306700000000  0.4866090000000 1.0
C      1  0.5594630000000  0.4918190000000  0.4440390000000 1.0
C      1  0.5589660000000  0.5433880000000  0.4763900000000 1.0
C      1  0.5625990000000  0.5395280000000  0.5547470000000 1.0
C      1  0.5671450000000  0.4673090000000  0.5519000000000 1.0
C      1  0.5034700000000  0.5617060000000  0.5717500000000 1.0
C      1  0.5099310000000  0.4562290000000  0.5709410000000 1.0
C      1  0.5109430000000  0.4087440000000  0.4762350000000 1.0
C      1  0.5066870000000  0.4900290000000  0.4102590000000 1.0
C      1  0.5076410000000  0.5839580000000  0.4626220000000 1.0
C      1  0.4481660000000  0.4906150000000  0.4789820000000 1.0
C      1  0.4485450000000  0.5203080000000  0.4834190000000 1.0
C      1  0.4489710000000  0.5262860000000  0.5131140000000 1.0
C      1  0.4482120000000  0.4998740000000  0.5275380000000 1.0
C      1  0.4475370000000  0.4778840000000  0.5069810000000 1.0
C      1  0.4748090000000  0.4873880000000  0.4581030000000 1.0
C      1  0.4734600000000  0.5405910000000  0.4722820000000 1.0
C      1  0.4753940000000  0.5405350000000  0.5250260000000 1.0
C      1  0.4747600000000  0.4969050000000  0.5437110000000 1.0
C      1  0.4766600000000  0.4652510000000  0.5028480000000 1.0
C      1  0.5174170000000  0.4617980000000  0.4789180000000 1.0
C      1  0.5086350000000  0.5161430000000  0.4437220000000 1.0
C      1  0.5172620000000  0.5567930000000  0.5020480000000 1.0
C      1  0.5100370000000  0.5115890000000  0.5549170000000 1.0
C      1  0.5231990000000  0.4684940000000  0.5235850000000 1.0
C      1  0.4262070000000  0.5490120000000  0.5180950000000 1.0
C      1  0.4261520000000  0.4980650000000  0.5517670000000 1.0
C      1  0.4285780000000  0.4514130000000  0.5122160000000 1.0
C      1  0.4295010000000  0.4723940000000  0.4578740000000 1.0
C      1  0.4280310000000  0.5330050000000  0.4611840000000 1.0
C      1  0.4785580000000  0.5578820000000  0.5512430000000 1.0
C      1  0.4823960000000  0.4742160000000  0.5665880000000 1.0
C      1  0.4804150000000  0.4069250000000  0.4902730000000 1.0
C      1  0.4796370000000  0.4792930000000  0.4254350000000 1.0
C      1  0.4789510000000  0.5691200000000  0.4555480000000 1.0
C      1  0.5014330000000  0.4821430000000  0.5112070000000 1.0
C      1  0.5011720000000  0.4883710000000  0.4792000000000 1.0
C      1  0.5005740000000  0.5202020000000  0.4745700000000 1.0
C      1  0.4999520000000  0.5321210000000  0.5044700000000 1.0
C      1  0.4983480000000  0.5081650000000  0.5263690000000 1.0
END
