TITL C-3289323-3850-287 0.000936563967838286 125000 -746.000981763317 0 0 140 (C1) n - 1
REM
REM in /nfs/bkarasulu/CARBON/AIRSS/Generating-Clusters/AIREBO/with-SteepDescent/Higher-Symm/SD-CG/HFTN-CG
REM
REM
REM
REM
REM
REM ./C.cell (b20cbc046b6831c77cfcea5457e17084)
REM
REM compiler GCC version 9.2.1 20190827 (Red Hat 9.2.1-1)
REM options -cpp -mtune=generic -march=x86-64 -g -O0 -fpre-include=/usr/include/finclude/math-vector-fortran.h
REM seed -1378168661 -818731587 606551693 -845552772 -1251300128 -1045990147 316976193 946867527 -1030830412 725383123 -111545045 -479296993 449478117 1628284078 296619167 1614716690 -534818852 1612327995 -1232784658 222550066 -1261969555 -589307220 -843697346 365578412 -1784172441 -1999874147 -1512866389 -868241209 -626711455 -554522153 -1570660174 136797419 1221661972
REM
CELL 1.54180   50.00000   50.00000   50.00000   90.00000   90.00000   90.00000
LATT -1
SFAC C  
C      1  0.5701210000000  0.4421460000000  0.5381470000000 1.0
C      1  0.5694400000000  0.5609160000000  0.4612020000000 1.0
C      1  0.4957560000000  0.4260320000000  0.4237610000000 1.0
C      1  0.4319290000000  0.5575220000000  0.4669990000000 1.0
C      1  0.4354030000000  0.4366510000000  0.5395100000000 1.0
C      1  0.5029340000000  0.5553460000000  0.5654600000000 1.0
C      1  0.5415800000000  0.4947580000000  0.4913150000000 1.0
C      1  0.5122200000000  0.5154330000000  0.4598200000000 1.0
C      1  0.4608570000000  0.5011060000000  0.4536980000000 1.0
C      1  0.4555180000000  0.4990400000000  0.5024690000000 1.0
C      1  0.4860160000000  0.4940650000000  0.5330360000000 1.0
C      1  0.5253290000000  0.4976590000000  0.5276830000000 1.0
C      1  0.5710620000000  0.5751300000000  0.5221470000000 1.0
C      1  0.5444280000000  0.4227820000000  0.4498190000000 1.0
C      1  0.4855400000000  0.5777050000000  0.4356090000000 1.0
C      1  0.4301150000000  0.4166450000000  0.4852110000000 1.0
C      1  0.4574740000000  0.5732750000000  0.5503840000000 1.0
C      1  0.5127310000000  0.4267780000000  0.5644010000000 1.0
C      1  0.4840140000000  0.4690750000000  0.4033240000000 1.0
C      1  0.3983780000000  0.5242930000000  0.4843480000000 1.0
C      1  0.4271630000000  0.4704990000000  0.5715260000000 1.0
C      1  0.5204160000000  0.5238640000000  0.5898270000000 1.0
C      1  0.5999180000000  0.4738270000000  0.5157910000000 1.0
C      1  0.5627650000000  0.5289470000000  0.4239170000000 1.0
C      1  0.5166450000000  0.5486960000000  0.5199870000000 1.0
C      1  0.5294780000000  0.4440020000000  0.4998490000000 1.0
C      1  0.5128560000000  0.5497350000000  0.4802550000000 1.0
C      1  0.4842410000000  0.4491630000000  0.4707250000000 1.0
C      1  0.4647780000000  0.5555360000000  0.5121820000000 1.0
C      1  0.4851970000000  0.4560350000000  0.5207130000000 1.0
C      1  0.4436320000000  0.4451880000000  0.3874040000000 1.0
C      1  0.3768160000000  0.5374630000000  0.5274890000000 1.0
C      1  0.4515190000000  0.4823660000000  0.6196870000000 1.0
C      1  0.5555400000000  0.5597140000000  0.6032280000000 1.0
C      1  0.6226680000000  0.4516760000000  0.4756380000000 1.0
C      1  0.5381020000000  0.5474400000000  0.3810850000000 1.0
C      1  0.5900940000000  0.5499090000000  0.5527490000000 1.0
C      1  0.5783390000000  0.4521440000000  0.4368040000000 1.0
C      1  0.4937930000000  0.5522690000000  0.4003130000000 1.0
C      1  0.4097440000000  0.4628820000000  0.4744800000000 1.0
C      1  0.4097560000000  0.5626250000000  0.5579820000000 1.0
C      1  0.5248130000000  0.4671310000000  0.5882080000000 1.0
C      1  0.5567350000000  0.4533050000000  0.4584670000000 1.0
C      1  0.4937770000000  0.5448530000000  0.4324700000000 1.0
C      1  0.4421760000000  0.4574840000000  0.4657450000000 1.0
C      1  0.4317650000000  0.5571280000000  0.5420930000000 1.0
C      1  0.4957820000000  0.4537190000000  0.5763700000000 1.0
C      1  0.5649370000000  0.5438460000000  0.5340100000000 1.0
C      1  0.4609230000000  0.5533870000000  0.4346030000000 1.0
C      1  0.4194280000000  0.4419860000000  0.4947180000000 1.0
C      1  0.4715260000000  0.5609520000000  0.5727150000000 1.0
C      1  0.5341700000000  0.4476380000000  0.5670970000000 1.0
C      1  0.5824900000000  0.5565580000000  0.5004270000000 1.0
C      1  0.5303550000000  0.4439670000000  0.4300060000000 1.0
C      1  0.4857380000000  0.4835390000000  0.5006990000000 1.0
C      1  0.5015560000000  0.5185750000000  0.5152750000000 1.0
C      1  0.5186630000000  0.4752700000000  0.5026040000000 1.0
C      1  0.5240080000000  0.5197780000000  0.4903580000000 1.0
C      1  0.4877040000000  0.5016150000000  0.4727880000000 1.0
C      1  0.4758150000000  0.5262900000000  0.5017260000000 1.0
C      1  0.5053220000000  0.4503560000000  0.4078980000000 1.0
C      1  0.4072450000000  0.5456740000000  0.4670150000000 1.0
C      1  0.4242970000000  0.4457350000000  0.5619900000000 1.0
C      1  0.4886320000000  0.5360030000000  0.5894980000000 1.0
C      1  0.5938960000000  0.4548640000000  0.5364760000000 1.0
C      1  0.5770910000000  0.5503590000000  0.4371570000000 1.0
C      1  0.5558150000000  0.5039280000000  0.4346570000000 1.0
C      1  0.4823050000000  0.4965890000000  0.4101730000000 1.0
C      1  0.4081600000000  0.4951760000000  0.4849990000000 1.0
C      1  0.4463780000000  0.4974890000000  0.5638750000000 1.0
C      1  0.5275890000000  0.4961030000000  0.5781240000000 1.0
C      1  0.5857760000000  0.4984820000000  0.5143020000000 1.0
C      1  0.4615990000000  0.3968970000000  0.5132850000000 1.0
C      1  0.4955340000000  0.5989450000000  0.5364960000000 1.0
C      1  0.5301730000000  0.4011320000000  0.5283670000000 1.0
C      1  0.5433960000000  0.5995940000000  0.4916970000000 1.0
C      1  0.5008570000000  0.4007790000000  0.4661400000000 1.0
C      1  0.4745530000000  0.5990910000000  0.4752640000000 1.0
C      1  0.4576590000000  0.5357840000000  0.5366100000000 1.0
C      1  0.5098850000000  0.4627250000000  0.5392160000000 1.0
C      1  0.5440360000000  0.5495290000000  0.5077820000000 1.0
C      1  0.5243210000000  0.4513920000000  0.4686090000000 1.0
C      1  0.4860740000000  0.5507790000000  0.4650740000000 1.0
C      1  0.4590920000000  0.4454100000000  0.4922030000000 1.0
C      1  0.5411310000000  0.5410240000000  0.4065210000000 1.0
C      1  0.4578400000000  0.4561300000000  0.4073540000000 1.0
C      1  0.3976640000000  0.5349920000000  0.5110270000000 1.0
C      1  0.4507560000000  0.4803270000000  0.5929450000000 1.0
C      1  0.5426990000000  0.5431500000000  0.5870680000000 1.0
C      1  0.6017340000000  0.4601200000000  0.4896520000000 1.0
C      1  0.4246640000000  0.5419110000000  0.5149620000000 1.0
C      1  0.4662660000000  0.4632840000000  0.5690490000000 1.0
C      1  0.5430520000000  0.5370080000000  0.5587190000000 1.0
C      1  0.5735170000000  0.4561010000000  0.4871690000000 1.0
C      1  0.5277530000000  0.5461220000000  0.4325850000000 1.0
C      1  0.4511690000000  0.4568750000000  0.4341470000000 1.0
C      1  0.5415290000000  0.5679830000000  0.4793100000000 1.0
C      1  0.5022530000000  0.4290560000000  0.4541850000000 1.0
C      1  0.4610480000000  0.5683970000000  0.4809220000000 1.0
C      1  0.4637140000000  0.4296970000000  0.5220120000000 1.0
C      1  0.5112240000000  0.5706610000000  0.5417200000000 1.0
C      1  0.5476200000000  0.4276900000000  0.5203070000000 1.0
C      1  0.5209000000000  0.5938480000000  0.4668560000000 1.0
C      1  0.4745570000000  0.3909320000000  0.4688560000000 1.0
C      1  0.4598410000000  0.5941580000000  0.5041490000000 1.0
C      1  0.4839450000000  0.4042960000000  0.5354990000000 1.0
C      1  0.5285310000000  0.5975910000000  0.5360520000000 1.0
C      1  0.5383170000000  0.4051460000000  0.4967510000000 1.0
C      1  0.4763170000000  0.4710320000000  0.4499710000000 1.0
C      1  0.4425790000000  0.5289980000000  0.4928970000000 1.0
C      1  0.4617210000000  0.4705020000000  0.5388170000000 1.0
C      1  0.5199970000000  0.5228720000000  0.5498710000000 1.0
C      1  0.5580330000000  0.4703530000000  0.5083350000000 1.0
C      1  0.5407820000000  0.5336640000000  0.4569710000000 1.0
C      1  0.4675940000000  0.5938280000000  0.5322320000000 1.0
C      1  0.5089230000000  0.4068440000000  0.5457160000000 1.0
C      1  0.5505700000000  0.5950570000000  0.5188960000000 1.0
C      1  0.5308130000000  0.4059720000000  0.4699780000000 1.0
C      1  0.4950970000000  0.5946070000000  0.4562820000000 1.0
C      1  0.4528670000000  0.3984180000000  0.4863060000000 1.0
C      1  0.4993760000000  0.4847470000000  0.5628960000000 1.0
C      1  0.5713790000000  0.5104870000000  0.5356480000000 1.0
C      1  0.5569160000000  0.4871390000000  0.4619330000000 1.0
C      1  0.5021940000000  0.5126380000000  0.4255560000000 1.0
C      1  0.4395470000000  0.4886430000000  0.4756460000000 1.0
C      1  0.4429270000000  0.5053050000000  0.5334310000000 1.0
C      1  0.5435410000000  0.4631350000000  0.5383050000000 1.0
C      1  0.5634920000000  0.5349210000000  0.4822980000000 1.0
C      1  0.5095720000000  0.4670030000000  0.4439420000000 1.0
C      1  0.4556490000000  0.5337140000000  0.4618470000000 1.0
C      1  0.4390530000000  0.4603530000000  0.5155640000000 1.0
C      1  0.4866200000000  0.5294150000000  0.5507100000000 1.0
C      1  0.5255080000000  0.4931260000000  0.4379420000000 1.0
C      1  0.4576710000000  0.5033580000000  0.4214990000000 1.0
C      1  0.4200100000000  0.4872570000000  0.5159260000000 1.0
C      1  0.4768020000000  0.5075090000000  0.5742410000000 1.0
C      1  0.5479630000000  0.4943950000000  0.5509430000000 1.0
C      1  0.5736430000000  0.5049990000000  0.4864840000000 1.0
C      1  0.4939580000000  0.5618470000000  0.5026050000000 1.0
C      1  0.4985080000000  0.4411840000000  0.4972380000000 1.0
END
