TITL C-3289322-3858-114 -0.00302299067043473 125000 -588.105642300684 0 0 119 (C1) n - 1
REM
REM in /nfs/bkarasulu/CARBON/AIRSS/Generating-Clusters/AIREBO/with-SteepDescent/Higher-Symm/SD-CG/HFTN-CG
REM
REM
REM
REM
REM
REM ./C.cell (b20cbc046b6831c77cfcea5457e17084)
REM
REM compiler GCC version 9.2.1 20190827 (Red Hat 9.2.1-1)
REM options -cpp -mtune=generic -march=x86-64 -g -O0 -fpre-include=/usr/include/finclude/math-vector-fortran.h
REM seed -1851016358 1480817940 -814036783 650865668 -1240949268 -402984360 974938903 -282972326 -808830186 421208786 -1484136632 -1120576116 -1069876797 -1369053618 52884027 1366691316 2101050288 -1571870759 892721951 -254924281 1937552860 1612579073 1354705938 -175017418 -2140951085 -2138025061 1473072166 -789768970 226992533 -470824853 -685378882 -622852099 285274592
REM
CELL 1.54180   50.00000   50.00000   50.00000   90.00000   90.00000   90.00000
LATT -1
SFAC C  
C      1  0.4474330000000  0.4428660000000  0.5148630000000 1.0
C      1  0.4760940000000  0.5737860000000  0.5143500000000 1.0
C      1  0.5834880000000  0.4823660000000  0.5194550000000 1.0
C      1  0.4442610000000  0.4379560000000  0.4810570000000 1.0
C      1  0.4735710000000  0.5790340000000  0.4804420000000 1.0
C      1  0.5781130000000  0.4815630000000  0.4852550000000 1.0
C      1  0.4642490000000  0.5651420000000  0.4196310000000 1.0
C      1  0.5753280000000  0.4984710000000  0.4227880000000 1.0
C      1  0.4612730000000  0.4361180000000  0.4203150000000 1.0
C      1  0.4637040000000  0.5623780000000  0.5767390000000 1.0
C      1  0.5727800000000  0.4993850000000  0.5792270000000 1.0
C      1  0.4668560000000  0.4363540000000  0.5761830000000 1.0
C      1  0.4568070000000  0.4240210000000  0.4518520000000 1.0
C      1  0.4556240000000  0.5749030000000  0.4511190000000 1.0
C      1  0.5878620000000  0.4995260000000  0.4544270000000 1.0
C      1  0.4608850000000  0.4252490000000  0.5445440000000 1.0
C      1  0.4553380000000  0.5716330000000  0.5449980000000 1.0
C      1  0.5870140000000  0.5014720000000  0.5483150000000 1.0
C      1  0.5542810000000  0.5580450000000  0.4382580000000 1.0
C      1  0.5218480000000  0.4232760000000  0.4344740000000 1.0
C      1  0.4217080000000  0.5137150000000  0.4344710000000 1.0
C      1  0.5559930000000  0.5607610000000  0.5648460000000 1.0
C      1  0.5254910000000  0.4238010000000  0.5634630000000 1.0
C      1  0.4173950000000  0.5092470000000  0.5606890000000 1.0
C      1  0.4985350000000  0.4263210000000  0.4819600000000 1.0
C      1  0.4325660000000  0.5373680000000  0.4795520000000 1.0
C      1  0.5641470000000  0.5328330000000  0.4844050000000 1.0
C      1  0.5043660000000  0.4228380000000  0.5157900000000 1.0
C      1  0.4239870000000  0.5417540000000  0.5124060000000 1.0
C      1  0.5671560000000  0.5398920000000  0.5179020000000 1.0
C      1  0.4596020000000  0.4747220000000  0.5570100000000 1.0
C      1  0.5006300000000  0.5482200000000  0.5560010000000 1.0
C      1  0.5426200000000  0.4766430000000  0.5559250000000 1.0
C      1  0.4594340000000  0.4754430000000  0.4442010000000 1.0
C      1  0.4990010000000  0.5472880000000  0.4445330000000 1.0
C      1  0.5424860000000  0.4764200000000  0.4449250000000 1.0
C      1  0.4764990000000  0.4613500000000  0.5903300000000 1.0
C      1  0.4823600000000  0.5433860000000  0.5907410000000 1.0
C      1  0.5453110000000  0.4948670000000  0.5910100000000 1.0
C      1  0.4731250000000  0.4595700000000  0.4104320000000 1.0
C      1  0.4791340000000  0.5431330000000  0.4103550000000 1.0
C      1  0.5493970000000  0.4971690000000  0.4118120000000 1.0
C      1  0.4549440000000  0.4687710000000  0.4856530000000 1.0
C      1  0.4940090000000  0.5539830000000  0.4846490000000 1.0
C      1  0.5465300000000  0.4735720000000  0.4853930000000 1.0
C      1  0.4507510000000  0.4758880000000  0.5156620000000 1.0
C      1  0.5006880000000  0.5530660000000  0.5142590000000 1.0
C      1  0.5521440000000  0.4774280000000  0.5151240000000 1.0
C      1  0.5285070000000  0.5499120000000  0.5591400000000 1.0
C      1  0.5281510000000  0.4528830000000  0.5569640000000 1.0
C      1  0.4439220000000  0.4988000000000  0.5616140000000 1.0
C      1  0.5263710000000  0.5463020000000  0.4408150000000 1.0
C      1  0.5282480000000  0.4526960000000  0.4399010000000 1.0
C      1  0.4470490000000  0.4998600000000  0.4407350000000 1.0
C      1  0.5372250000000  0.4162730000000  0.5100010000000 1.0
C      1  0.4004720000000  0.5172030000000  0.5118490000000 1.0
C      1  0.5586010000000  0.5707620000000  0.5064750000000 1.0
C      1  0.5455080000000  0.4118770000000  0.4813970000000 1.0
C      1  0.4039060000000  0.4981720000000  0.4868940000000 1.0
C      1  0.5531240000000  0.5818320000000  0.4794280000000 1.0
C      1  0.4719940000000  0.4097870000000  0.4757050000000 1.0
C      1  0.4353120000000  0.5693570000000  0.4747060000000 1.0
C      1  0.5920390000000  0.5182310000000  0.4775910000000 1.0
C      1  0.4737520000000  0.4101790000000  0.5219270000000 1.0
C      1  0.4351740000000  0.5695700000000  0.5217980000000 1.0
C      1  0.5931070000000  0.5209220000000  0.5237310000000 1.0
C      1  0.5127630000000  0.5261960000000  0.5869220000000 1.0
C      1  0.5165340000000  0.4773900000000  0.5861040000000 1.0
C      1  0.4757420000000  0.4953110000000  0.5885530000000 1.0
C      1  0.5075130000000  0.5235450000000  0.4139290000000 1.0
C      1  0.5184750000000  0.4810350000000  0.4135920000000 1.0
C      1  0.4753530000000  0.4940450000000  0.4130150000000 1.0
C      1  0.5728060000000  0.5529430000000  0.4583620000000 1.0
C      1  0.5073600000000  0.4092820000000  0.4538590000000 1.0
C      1  0.4128810000000  0.5319460000000  0.4532720000000 1.0
C      1  0.5746950000000  0.5599040000000  0.5443510000000 1.0
C      1  0.5144680000000  0.4071510000000  0.5442270000000 1.0
C      1  0.4117530000000  0.5268890000000  0.5409520000000 1.0
C      1  0.4874410000000  0.5716970000000  0.5463470000000 1.0
C      1  0.5705830000000  0.4731730000000  0.5495480000000 1.0
C      1  0.4450010000000  0.4527480000000  0.5473000000000 1.0
C      1  0.4882780000000  0.5727780000000  0.4504250000000 1.0
C      1  0.5695350000000  0.4735440000000  0.4533330000000 1.0
C      1  0.4430740000000  0.4538160000000  0.4510000000000 1.0
C      1  0.5073140000000  0.4676620000000  0.5160200000000 1.0
C      1  0.4634320000000  0.5135940000000  0.5184190000000 1.0
C      1  0.5278140000000  0.5239610000000  0.5164480000000 1.0
C      1  0.5076530000000  0.4651080000000  0.4835420000000 1.0
C      1  0.4623510000000  0.5092600000000  0.4847120000000 1.0
C      1  0.5245600000000  0.5273560000000  0.4840530000000 1.0
C      1  0.5450710000000  0.5242820000000  0.4574610000000 1.0
C      1  0.4992840000000  0.4482890000000  0.4559140000000 1.0
C      1  0.4563940000000  0.5280300000000  0.4569890000000 1.0
C      1  0.5474720000000  0.5278130000000  0.5428910000000 1.0
C      1  0.4995690000000  0.4466260000000  0.5396420000000 1.0
C      1  0.4599310000000  0.5193310000000  0.5504250000000 1.0
C      1  0.4947090000000  0.5249100000000  0.5241470000000 1.0
C      1  0.5272380000000  0.4927160000000  0.5228040000000 1.0
C      1  0.4798160000000  0.4844050000000  0.5238880000000 1.0
C      1  0.4914210000000  0.5250290000000  0.4768120000000 1.0
C      1  0.5250300000000  0.4936190000000  0.4771130000000 1.0
C      1  0.4807040000000  0.4817400000000  0.4773480000000 1.0
C      1  0.5268370000000  0.5052710000000  0.4359360000000 1.0
C      1  0.4920860000000  0.4739260000000  0.4347420000000 1.0
C      1  0.4811470000000  0.5198950000000  0.4351020000000 1.0
C      1  0.5297220000000  0.5072260000000  0.5634320000000 1.0
C      1  0.4930350000000  0.4711660000000  0.5622850000000 1.0
C      1  0.4861370000000  0.5194260000000  0.5669090000000 1.0
C      1  0.5343840000000  0.4440240000000  0.4817950000000 1.0
C      1  0.4327920000000  0.4922220000000  0.4840580000000 1.0
C      1  0.5263110000000  0.5616270000000  0.4848800000000 1.0
C      1  0.5357360000000  0.4485890000000  0.5146600000000 1.0
C      1  0.4309960000000  0.5027110000000  0.5159060000000 1.0
C      1  0.5316140000000  0.5579070000000  0.5176220000000 1.0
C      1  0.4646580000000  0.3971830000000  0.4990330000000 1.0
C      1  0.6078320000000  0.5191640000000  0.5005220000000 1.0
C      1  0.4295460000000  0.5836110000000  0.4974950000000 1.0
C      1  0.4995440000000  0.4998250000000  0.4554770000000 1.0
C      1  0.5023100000000  0.4989920000000  0.5450630000000 1.0
END
