TITL C-3289320-4661-162 0.000950487803053048 125000 -1011.72196556612 0 0 180 (C1) n - 1
REM
REM in /nfs/bkarasulu/CARBON/AIRSS/Generating-Clusters/AIREBO/with-SteepDescent/Higher-Symm/SD-CG/HFTN-CG
REM
REM
REM
REM
REM
REM ./C.cell (b20cbc046b6831c77cfcea5457e17084)
REM
REM compiler GCC version 9.2.1 20190827 (Red Hat 9.2.1-1)
REM options -cpp -mtune=generic -march=x86-64 -g -O0 -fpre-include=/usr/include/finclude/math-vector-fortran.h
REM seed 69630995 1079163177 -1826281286 -1817900845 -2005536722 653562577 459947308 104727257 1963005040 -1226201223 -384873220 1338481999 1165539515 -1274798164 256466254 1203221615 -1056321603 2127032403 1592336542 -814958867 1788896504 1338747658 -1809000096 -321749289 -1184170855 1954050292 -1442826279 -981727621 -246722291 93064110 -1076464727 -1826104420 -1253475963
REM
CELL 1.54180   50.00000   50.00000   50.00000   90.00000   90.00000   90.00000
LATT -1
SFAC C  
C      1  0.4326280000000  0.4753580000000  0.4561600000000 1.0
C      1  0.4343550000000  0.5310530000000  0.5455230000000 1.0
C      1  0.5673130000000  0.5249870000000  0.4668980000000 1.0
C      1  0.5617200000000  0.4757170000000  0.5453510000000 1.0
C      1  0.4232780000000  0.4643440000000  0.4852060000000 1.0
C      1  0.4184150000000  0.5504620000000  0.5245900000000 1.0
C      1  0.5761120000000  0.4539210000000  0.5279980000000 1.0
C      1  0.5630840000000  0.5554370000000  0.4802820000000 1.0
C      1  0.6046060000000  0.5464960000000  0.5030320000000 1.0
C      1  0.5937780000000  0.4114330000000  0.4870800000000 1.0
C      1  0.3969560000000  0.4439390000000  0.5071790000000 1.0
C      1  0.3841860000000  0.5562190000000  0.4979980000000 1.0
C      1  0.5969420000000  0.5070380000000  0.5506270000000 1.0
C      1  0.5981800000000  0.4922660000000  0.4504030000000 1.0
C      1  0.4018250000000  0.5093710000000  0.4535570000000 1.0
C      1  0.4023900000000  0.4924430000000  0.5513820000000 1.0
C      1  0.5558710000000  0.4182860000000  0.4577210000000 1.0
C      1  0.5489270000000  0.5889840000000  0.5266050000000 1.0
C      1  0.4481150000000  0.5809650000000  0.4795390000000 1.0
C      1  0.4445350000000  0.4095680000000  0.5180340000000 1.0
C      1  0.5500970000000  0.4780130000000  0.4067100000000 1.0
C      1  0.5582200000000  0.5285380000000  0.5835370000000 1.0
C      1  0.4447330000000  0.4740730000000  0.5847920000000 1.0
C      1  0.4436310000000  0.5232970000000  0.4184830000000 1.0
C      1  0.4323530000000  0.5330630000000  0.4914570000000 1.0
C      1  0.4462790000000  0.4503270000000  0.5059680000000 1.0
C      1  0.5767750000000  0.4568960000000  0.4887060000000 1.0
C      1  0.5544240000000  0.5497840000000  0.5221160000000 1.0
C      1  0.4486190000000  0.4843160000000  0.5457230000000 1.0
C      1  0.4482000000000  0.5225830000000  0.4627720000000 1.0
C      1  0.5563060000000  0.4765910000000  0.4698360000000 1.0
C      1  0.5521890000000  0.5230680000000  0.5399100000000 1.0
C      1  0.5210550000000  0.3900200000000  0.5344640000000 1.0
C      1  0.5214290000000  0.6144190000000  0.4728810000000 1.0
C      1  0.4860590000000  0.6015060000000  0.5221530000000 1.0
C      1  0.4887650000000  0.3876400000000  0.4624080000000 1.0
C      1  0.5116890000000  0.5297480000000  0.3925000000000 1.0
C      1  0.5179870000000  0.4714300000000  0.6100630000000 1.0
C      1  0.4876640000000  0.5210050000000  0.5990670000000 1.0
C      1  0.4731700000000  0.4722460000000  0.3896430000000 1.0
C      1  0.3982340000000  0.4773040000000  0.4989840000000 1.0
C      1  0.4013700000000  0.5287030000000  0.5047640000000 1.0
C      1  0.6062660000000  0.5179570000000  0.4975460000000 1.0
C      1  0.5912800000000  0.4769290000000  0.5079230000000 1.0
C      1  0.3938450000000  0.5048880000000  0.4811230000000 1.0
C      1  0.3960930000000  0.5008020000000  0.5234730000000 1.0
C      1  0.6050310000000  0.4966510000000  0.5241600000000 1.0
C      1  0.5954920000000  0.5119640000000  0.4709170000000 1.0
C      1  0.5323650000000  0.5704330000000  0.4596890000000 1.0
C      1  0.5183260000000  0.4363400000000  0.5439350000000 1.0
C      1  0.4829350000000  0.4341910000000  0.4658720000000 1.0
C      1  0.4678450000000  0.5694570000000  0.5367920000000 1.0
C      1  0.5299300000000  0.4528660000000  0.5692360000000 1.0
C      1  0.5288900000000  0.5432170000000  0.4259530000000 1.0
C      1  0.4722340000000  0.4464080000000  0.4391740000000 1.0
C      1  0.4741480000000  0.5452830000000  0.5705810000000 1.0
C      1  0.4889140000000  0.4334200000000  0.6005170000000 1.0
C      1  0.4881400000000  0.5693130000000  0.4073090000000 1.0
C      1  0.5102340000000  0.5681530000000  0.5938710000000 1.0
C      1  0.5068240000000  0.4348710000000  0.3996120000000 1.0
C      1  0.4978930000000  0.5957520000000  0.4309010000000 1.0
C      1  0.4848510000000  0.4019390000000  0.5652360000000 1.0
C      1  0.5044820000000  0.5909880000000  0.5672950000000 1.0
C      1  0.5093310000000  0.4129540000000  0.4255620000000 1.0
C      1  0.5006870000000  0.5695350000000  0.5411880000000 1.0
C      1  0.5096140000000  0.4317970000000  0.4524860000000 1.0
C      1  0.4878630000000  0.4296420000000  0.5497090000000 1.0
C      1  0.5022000000000  0.5714480000000  0.4516580000000 1.0
C      1  0.5060010000000  0.5511450000000  0.5655510000000 1.0
C      1  0.5101970000000  0.4527680000000  0.4283520000000 1.0
C      1  0.4956140000000  0.5475870000000  0.4323740000000 1.0
C      1  0.4971650000000  0.4521820000000  0.5734290000000 1.0
C      1  0.4431550000000  0.4487880000000  0.4409210000000 1.0
C      1  0.4201670000000  0.5526940000000  0.5675870000000 1.0
C      1  0.5589680000000  0.5296900000000  0.4342580000000 1.0
C      1  0.5599520000000  0.4459240000000  0.5759790000000 1.0
C      1  0.4303620000000  0.4373010000000  0.4680480000000 1.0
C      1  0.4364500000000  0.5708680000000  0.5454030000000 1.0
C      1  0.5778010000000  0.4375270000000  0.5565360000000 1.0
C      1  0.5595620000000  0.5588380000000  0.4473980000000 1.0
C      1  0.5146400000000  0.5104550000000  0.5377150000000 1.0
C      1  0.5084430000000  0.4873820000000  0.4580620000000 1.0
C      1  0.4862750000000  0.4969420000000  0.5471770000000 1.0
C      1  0.4866960000000  0.5124790000000  0.4653860000000 1.0
C      1  0.5123590000000  0.5246020000000  0.5105280000000 1.0
C      1  0.5057300000000  0.4776840000000  0.4882950000000 1.0
C      1  0.4859620000000  0.5250880000000  0.4933970000000 1.0
C      1  0.4892660000000  0.4782180000000  0.5189260000000 1.0
C      1  0.5254540000000  0.4902170000000  0.5827190000000 1.0
C      1  0.5130020000000  0.5065250000000  0.4134600000000 1.0
C      1  0.4920990000000  0.4965300000000  0.5806820000000 1.0
C      1  0.4832060000000  0.4936640000000  0.4097340000000 1.0
C      1  0.5124700000000  0.5625800000000  0.4933740000000 1.0
C      1  0.5289640000000  0.4366860000000  0.5012240000000 1.0
C      1  0.4819560000000  0.5760500000000  0.4999690000000 1.0
C      1  0.4971590000000  0.4294350000000  0.5108170000000 1.0
C      1  0.4688070000000  0.4401980000000  0.5251280000000 1.0
C      1  0.4767620000000  0.5670790000000  0.4675790000000 1.0
C      1  0.5247470000000  0.5663360000000  0.5209280000000 1.0
C      1  0.5334410000000  0.4362770000000  0.4709880000000 1.0
C      1  0.4734890000000  0.5307070000000  0.4439830000000 1.0
C      1  0.4738130000000  0.4673600000000  0.5584440000000 1.0
C      1  0.5275730000000  0.5323290000000  0.5581210000000 1.0
C      1  0.5331030000000  0.4640560000000  0.4508090000000 1.0
C      1  0.4777910000000  0.4024690000000  0.5173290000000 1.0
C      1  0.4730850000000  0.6039790000000  0.4814820000000 1.0
C      1  0.5306650000000  0.6144510000000  0.5313190000000 1.0
C      1  0.5397060000000  0.3908990000000  0.4549710000000 1.0
C      1  0.4677740000000  0.5198680000000  0.4039410000000 1.0
C      1  0.4716380000000  0.4783060000000  0.5969330000000 1.0
C      1  0.5338460000000  0.5198470000000  0.5955110000000 1.0
C      1  0.5231410000000  0.4811590000000  0.3997070000000 1.0
C      1  0.5659790000000  0.4341230000000  0.4305070000000 1.0
C      1  0.5556460000000  0.5770920000000  0.5558630000000 1.0
C      1  0.4508600000000  0.5727370000000  0.4462850000000 1.0
C      1  0.4481290000000  0.4261650000000  0.5475650000000 1.0
C      1  0.5540740000000  0.4583590000000  0.4261680000000 1.0
C      1  0.5534210000000  0.5527280000000  0.5666230000000 1.0
C      1  0.4467520000000  0.4491980000000  0.5658400000000 1.0
C      1  0.4477340000000  0.5489240000000  0.4327080000000 1.0
C      1  0.5578960000000  0.4281050000000  0.5170360000000 1.0
C      1  0.5622230000000  0.5841180000000  0.4978570000000 1.0
C      1  0.4285870000000  0.5788100000000  0.5072970000000 1.0
C      1  0.4442950000000  0.4125990000000  0.4841630000000 1.0
C      1  0.5637980000000  0.5053110000000  0.4117630000000 1.0
C      1  0.5578890000000  0.4797370000000  0.5789040000000 1.0
C      1  0.4333780000000  0.5236910000000  0.5785380000000 1.0
C      1  0.4312220000000  0.4734120000000  0.4220640000000 1.0
C      1  0.5863870000000  0.4656110000000  0.4583950000000 1.0
C      1  0.5809980000000  0.5312730000000  0.5454110000000 1.0
C      1  0.4182510000000  0.5338770000000  0.4545120000000 1.0
C      1  0.4235590000000  0.4728310000000  0.5434120000000 1.0
C      1  0.5836410000000  0.4325260000000  0.4662890000000 1.0
C      1  0.5879710000000  0.5515260000000  0.5259020000000 1.0
C      1  0.4201220000000  0.4545920000000  0.5235120000000 1.0
C      1  0.4232330000000  0.5591620000000  0.4716650000000 1.0
C      1  0.4911260000000  0.4615570000000  0.6116280000000 1.0
C      1  0.4856620000000  0.5404440000000  0.3943910000000 1.0
C      1  0.5114990000000  0.5355840000000  0.6019080000000 1.0
C      1  0.5027690000000  0.4643470000000  0.3908540000000 1.0
C      1  0.4947640000000  0.6093080000000  0.4619480000000 1.0
C      1  0.4925070000000  0.3902970000000  0.5389590000000 1.0
C      1  0.5052800000000  0.6090920000000  0.5404830000000 1.0
C      1  0.5131400000000  0.3913550000000  0.4472520000000 1.0
C      1  0.5428870000000  0.5280630000000  0.3978130000000 1.0
C      1  0.5480710000000  0.4729800000000  0.6107550000000 1.0
C      1  0.4463970000000  0.4676630000000  0.3938690000000 1.0
C      1  0.4592290000000  0.5298400000000  0.5939510000000 1.0
C      1  0.5344420000000  0.4137040000000  0.5334040000000 1.0
C      1  0.5388590000000  0.5936820000000  0.4774250000000 1.0
C      1  0.4714660000000  0.4070140000000  0.4715520000000 1.0
C      1  0.4533870000000  0.5945940000000  0.5208980000000 1.0
C      1  0.4875770000000  0.4750060000000  0.4342350000000 1.0
C      1  0.4742370000000  0.5286600000000  0.5447240000000 1.0
C      1  0.5208190000000  0.5162790000000  0.4450860000000 1.0
C      1  0.5223430000000  0.4801340000000  0.5503930000000 1.0
C      1  0.4871180000000  0.4509210000000  0.4898200000000 1.0
C      1  0.4758830000000  0.5465720000000  0.5158510000000 1.0
C      1  0.5186190000000  0.4613600000000  0.5222310000000 1.0
C      1  0.5209500000000  0.5407470000000  0.4687060000000 1.0
C      1  0.5356430000000  0.4838750000000  0.5032620000000 1.0
C      1  0.5406520000000  0.5342830000000  0.4951650000000 1.0
C      1  0.4559350000000  0.5141510000000  0.5011160000000 1.0
C      1  0.4649780000000  0.4741490000000  0.4961980000000 1.0
C      1  0.5491540000000  0.5041090000000  0.4824880000000 1.0
C      1  0.5514190000000  0.4960220000000  0.5283650000000 1.0
C      1  0.4521680000000  0.5100180000000  0.5310240000000 1.0
C      1  0.4500820000000  0.4924800000000  0.4758310000000 1.0
C      1  0.4166510000000  0.4210800000000  0.5020600000000 1.0
C      1  0.3966230000000  0.5780370000000  0.5022640000000 1.0
C      1  0.5947460000000  0.5748060000000  0.4942310000000 1.0
C      1  0.5787090000000  0.4072840000000  0.5068990000000 1.0
C      1  0.4249200000000  0.5039000000000  0.4291940000000 1.0
C      1  0.4246250000000  0.4942630000000  0.5770460000000 1.0
C      1  0.5757910000000  0.5067120000000  0.5763830000000 1.0
C      1  0.5929540000000  0.5002590000000  0.4246930000000 1.0
C      1  0.4835000000000  0.4068520000000  0.5929190000000 1.0
C      1  0.4791860000000  0.5756550000000  0.5817970000000 1.0
C      1  0.5203800000000  0.5747130000000  0.4163580000000 1.0
C      1  0.4801700000000  0.4264220000000  0.4179980000000 1.0
END
