TITL C-3289332-8317-228 7.36364027749206e-05 125000 -110.729746926026 0 0 21 (C1) n - 1
REM
REM in /nfs/bkarasulu/CARBON/AIRSS/Generating-Clusters/AIREBO/with-SteepDescent/Higher-Symm/SD-CG/HFTN-CG
REM
REM
REM
REM
REM
REM ./C.cell (b20cbc046b6831c77cfcea5457e17084)
REM
REM compiler GCC version 9.2.1 20190827 (Red Hat 9.2.1-1)
REM options -cpp -mtune=generic -march=x86-64 -g -O0 -fpre-include=/usr/include/finclude/math-vector-fortran.h
REM seed -1124705938 893995513 -1150372235 2084479902 -1375682097 1169534380 274850026 1911080024 1295547865 -624227090 -35732936 1055886030 908288975 -276826564 -218502229 1966752963 304744354 -462176865 -18154039 1354003273 -629325181 -117245051 735290082 1477101400 757787517 -2096719865 -203797257 352270132 1352754439 758580320 982917221 1322604231 -91697649
REM
CELL 1.54180   50.00000   50.00000   50.00000   90.00000   90.00000   90.00000
LATT -1
SFAC C  
C      1  0.4590180000000  0.5233100000000  0.4978860000000 1.0
C      1  0.4924460000000  0.5233740000000  0.4561170000000 1.0
C      1  0.5481310000000  0.5214300000000  0.5011880000000 1.0
C      1  0.4954530000000  0.5212850000000  0.5427210000000 1.0
C      1  0.5473000000000  0.4730530000000  0.5007800000000 1.0
C      1  0.4935220000000  0.4748420000000  0.4545410000000 1.0
C      1  0.4580510000000  0.4746020000000  0.5003620000000 1.0
C      1  0.4934140000000  0.4726850000000  0.5410780000000 1.0
C      1  0.4914350000000  0.5441800000000  0.5548320000000 1.0
C      1  0.4473710000000  0.5465050000000  0.4942110000000 1.0
C      1  0.4864530000000  0.5466490000000  0.4456610000000 1.0
C      1  0.5610630000000  0.5441650000000  0.4995190000000 1.0
C      1  0.4924970000000  0.4492340000000  0.5527480000000 1.0
C      1  0.5591150000000  0.4498640000000  0.5038780000000 1.0
C      1  0.4935400000000  0.4522410000000  0.4412650000000 1.0
C      1  0.4455800000000  0.4518660000000  0.5041970000000 1.0
C      1  0.5346580000000  0.4974720000000  0.5002310000000 1.0
C      1  0.4970370000000  0.4973010000000  0.5293640000000 1.0
C      1  0.4712400000000  0.4986990000000  0.4990400000000 1.0
C      1  0.4961360000000  0.4987700000000  0.4678440000000 1.0
C      1  0.5045800000000  0.4980060000000  0.4981310000000 1.0
END
