TITL C-3289323-3850-505 0.00129674701005361 125000 -605.434419096055 0 0 112 (C1) n - 1
REM
REM in /nfs/bkarasulu/CARBON/AIRSS/Generating-Clusters/AIREBO/with-SteepDescent/Higher-Symm/SD-CG/HFTN-CG
REM
REM
REM
REM
REM
REM ./C.cell (b20cbc046b6831c77cfcea5457e17084)
REM
REM compiler GCC version 9.2.1 20190827 (Red Hat 9.2.1-1)
REM options -cpp -mtune=generic -march=x86-64 -g -O0 -fpre-include=/usr/include/finclude/math-vector-fortran.h
REM seed -2039645712 -1828687291 1308850436 943486474 1903849358 1199575507 1802801049 -431137229 -293728876 1363721792 -1046775622 1588070876 -959225694 1488800915 -1250031041 1798152711 616234474 437353989 -529141600 1556984419 91068518 1333209709 1939259597 1683395913 930909956 650343961 1862379905 87275256 2117051872 -1881112954 1249604160 -1044131633 -2065931964
REM
CELL 1.54180   50.00000   50.00000   50.00000   90.00000   90.00000   90.00000
LATT -1
SFAC C  
C      1  0.4767450000000  0.5402170000000  0.5474480000000 1.0
C      1  0.4856140000000  0.4563780000000  0.4593050000000 1.0
C      1  0.4790940000000  0.4671360000000  0.5425690000000 1.0
C      1  0.4905690000000  0.5279370000000  0.4546920000000 1.0
C      1  0.4562780000000  0.4682150000000  0.5177210000000 1.0
C      1  0.4482080000000  0.5199430000000  0.4777400000000 1.0
C      1  0.4623540000000  0.5193230000000  0.5249560000000 1.0
C      1  0.4542000000000  0.4810910000000  0.4714370000000 1.0
C      1  0.4865060000000  0.4816820000000  0.4820210000000 1.0
C      1  0.4887570000000  0.5113180000000  0.5099550000000 1.0
C      1  0.4803450000000  0.5150510000000  0.4798860000000 1.0
C      1  0.4939590000000  0.4809480000000  0.5152860000000 1.0
C      1  0.5582600000000  0.4718190000000  0.4222120000000 1.0
C      1  0.5475770000000  0.5395370000000  0.5790760000000 1.0
C      1  0.5454130000000  0.5199700000000  0.4220820000000 1.0
C      1  0.5506700000000  0.4848650000000  0.5765770000000 1.0
C      1  0.4260070000000  0.5412670000000  0.4840530000000 1.0
C      1  0.4245280000000  0.4626470000000  0.5196880000000 1.0
C      1  0.4174960000000  0.4607840000000  0.4877630000000 1.0
C      1  0.4151470000000  0.5447630000000  0.5148180000000 1.0
C      1  0.5872130000000  0.4851420000000  0.4710160000000 1.0
C      1  0.5760320000000  0.5196330000000  0.5255300000000 1.0
C      1  0.5941580000000  0.5122360000000  0.4611380000000 1.0
C      1  0.5793560000000  0.4932340000000  0.5276170000000 1.0
C      1  0.5068210000000  0.5494810000000  0.5476860000000 1.0
C      1  0.5053260000000  0.4322500000000  0.4490820000000 1.0
C      1  0.5173200000000  0.4492690000000  0.5523140000000 1.0
C      1  0.5346810000000  0.5718410000000  0.4559420000000 1.0
C      1  0.5287670000000  0.4827890000000  0.4494050000000 1.0
C      1  0.5286100000000  0.5103350000000  0.5396230000000 1.0
C      1  0.5137790000000  0.5140790000000  0.4456710000000 1.0
C      1  0.5175720000000  0.4780990000000  0.5391130000000 1.0
C      1  0.5121210000000  0.5314200000000  0.5193490000000 1.0
C      1  0.5189710000000  0.4736500000000  0.4772060000000 1.0
C      1  0.5400770000000  0.4602050000000  0.5002290000000 1.0
C      1  0.5328810000000  0.5299530000000  0.4930030000000 1.0
C      1  0.4894880000000  0.4176960000000  0.5217810000000 1.0
C      1  0.4930800000000  0.5957330000000  0.4950030000000 1.0
C      1  0.4869720000000  0.5910240000000  0.5272480000000 1.0
C      1  0.4744850000000  0.4151410000000  0.4909000000000 1.0
C      1  0.4659120000000  0.5594070000000  0.4266870000000 1.0
C      1  0.4420200000000  0.4506930000000  0.5536050000000 1.0
C      1  0.4505730000000  0.4530970000000  0.4411500000000 1.0
C      1  0.4409670000000  0.5540520000000  0.5581880000000 1.0
C      1  0.4338010000000  0.4825110000000  0.4442660000000 1.0
C      1  0.4422500000000  0.5210490000000  0.5534180000000 1.0
C      1  0.4472270000000  0.5132290000000  0.4473530000000 1.0
C      1  0.4259090000000  0.4730860000000  0.5582440000000 1.0
C      1  0.4615940000000  0.4341050000000  0.4657850000000 1.0
C      1  0.4634660000000  0.5708460000000  0.5409710000000 1.0
C      1  0.4789450000000  0.5596920000000  0.4582410000000 1.0
C      1  0.4679940000000  0.4354080000000  0.5371910000000 1.0
C      1  0.5635090000000  0.4607010000000  0.4501910000000 1.0
C      1  0.5596050000000  0.5531870000000  0.5538860000000 1.0
C      1  0.5513380000000  0.5439890000000  0.4456320000000 1.0
C      1  0.5629720000000  0.4705620000000  0.5546340000000 1.0
C      1  0.5250440000000  0.4113410000000  0.4674260000000 1.0
C      1  0.5351600000000  0.5881960000000  0.5322720000000 1.0
C      1  0.5436090000000  0.5746860000000  0.4866220000000 1.0
C      1  0.5420840000000  0.4176940000000  0.5153920000000 1.0
C      1  0.4548350000000  0.5588650000000  0.4799490000000 1.0
C      1  0.4369990000000  0.4316330000000  0.5259000000000 1.0
C      1  0.4429390000000  0.4389180000000  0.4938010000000 1.0
C      1  0.4347960000000  0.5665810000000  0.5137120000000 1.0
C      1  0.5588910000000  0.5723790000000  0.5327390000000 1.0
C      1  0.5657980000000  0.4451510000000  0.4735020000000 1.0
C      1  0.5834700000000  0.4619420000000  0.5288510000000 1.0
C      1  0.5769700000000  0.5335590000000  0.4654580000000 1.0
C      1  0.4142060000000  0.4828570000000  0.4709050000000 1.0
C      1  0.4161970000000  0.5190080000000  0.5324970000000 1.0
C      1  0.4090750000000  0.5119580000000  0.4793600000000 1.0
C      1  0.4079820000000  0.4856550000000  0.5345920000000 1.0
C      1  0.5098620000000  0.4473870000000  0.5805260000000 1.0
C      1  0.5409990000000  0.5933850000000  0.4385580000000 1.0
C      1  0.5195400000000  0.5367980000000  0.5726810000000 1.0
C      1  0.5155810000000  0.4407110000000  0.4212760000000 1.0
C      1  0.5474780000000  0.4777680000000  0.5264330000000 1.0
C      1  0.5400430000000  0.5191500000000  0.4615560000000 1.0
C      1  0.5555190000000  0.5267970000000  0.5421860000000 1.0
C      1  0.5590680000000  0.4940510000000  0.4551360000000 1.0
C      1  0.5188680000000  0.4267080000000  0.5358120000000 1.0
C      1  0.5033060000000  0.5763040000000  0.4690300000000 1.0
C      1  0.5091400000000  0.5796730000000  0.5426810000000 1.0
C      1  0.4916060000000  0.4066530000000  0.4661260000000 1.0
C      1  0.4762840000000  0.4675290000000  0.4285430000000 1.0
C      1  0.4725880000000  0.5137670000000  0.5669410000000 1.0
C      1  0.4658480000000  0.5306750000000  0.4343190000000 1.0
C      1  0.4860500000000  0.4824240000000  0.5673680000000 1.0
C      1  0.5268880000000  0.4689720000000  0.4192740000000 1.0
C      1  0.5160350000000  0.5080930000000  0.5685400000000 1.0
C      1  0.5174370000000  0.5015040000000  0.4162610000000 1.0
C      1  0.5177870000000  0.4789230000000  0.5791440000000 1.0
C      1  0.4702990000000  0.4950670000000  0.5931250000000 1.0
C      1  0.4902320000000  0.4826330000000  0.4116010000000 1.0
C      1  0.5728930000000  0.4685770000000  0.4970460000000 1.0
C      1  0.5670180000000  0.5320100000000  0.4959200000000 1.0
C      1  0.5650810000000  0.4996560000000  0.4160070000000 1.0
C      1  0.5577470000000  0.5121020000000  0.5864770000000 1.0
C      1  0.5136120000000  0.4174170000000  0.4977360000000 1.0
C      1  0.5206740000000  0.5812990000000  0.5045390000000 1.0
C      1  0.4750820000000  0.4480530000000  0.5001350000000 1.0
C      1  0.4680430000000  0.5616630000000  0.5085550000000 1.0
C      1  0.5079590000000  0.4483200000000  0.4970490000000 1.0
C      1  0.4982310000000  0.5583960000000  0.5071100000000 1.0
C      1  0.4322100000000  0.4955740000000  0.5732310000000 1.0
C      1  0.4166770000000  0.4836580000000  0.4208210000000 1.0
C      1  0.5501800000000  0.4247790000000  0.4840910000000 1.0
C      1  0.5640040000000  0.5634710000000  0.5046140000000 1.0
C      1  0.4203370000000  0.5000320000000  0.5064620000000 1.0
C      1  0.5293640000000  0.4981370000000  0.4935250000000 1.0
C      1  0.4526350000000  0.4963300000000  0.5018110000000 1.0
C      1  0.5582490000000  0.4991810000000  0.4945890000000 1.0
END
