TITL C-3289321-8710-336 0.00375455576093064 125000 -525.573600931334 0 0 101 (C1) n - 1
REM
REM in /nfs/bkarasulu/CARBON/AIRSS/Generating-Clusters/AIREBO/with-SteepDescent/Higher-Symm/SD-CG/HFTN-CG
REM
REM
REM
REM
REM
REM ./C.cell (b20cbc046b6831c77cfcea5457e17084)
REM
REM compiler GCC version 9.2.1 20190827 (Red Hat 9.2.1-1)
REM options -cpp -mtune=generic -march=x86-64 -g -O0 -fpre-include=/usr/include/finclude/math-vector-fortran.h
REM seed -1685867050 241483559 1964607986 1457601405 519967881 1449203824 -1059034377 -1406601688 611003542 -138680012 -1970486518 1004123779 -1775474775 1192101365 642800295 -42421539 623055401 -1529892690 70255132 281329323 654852722 -1472043993 881512604 474628228 214276824 -1564106016 -1882087975 126376173 1881813657 -861379540 -1758309191 -15680862 -277963670
REM
CELL 1.54180   50.00000   50.00000   50.00000   90.00000   90.00000   90.00000
LATT -1
SFAC C  
C      1  0.5722920000000  0.5308420000000  0.5487660000000 1.0
C      1  0.4366640000000  0.5255180000000  0.4575720000000 1.0
C      1  0.5446130000000  0.5718320000000  0.4693820000000 1.0
C      1  0.4540000000000  0.5767810000000  0.5331690000000 1.0
C      1  0.4953350000000  0.5003510000000  0.4191340000000 1.0
C      1  0.5089300000000  0.5010500000000  0.5771520000000 1.0
C      1  0.4288930000000  0.4719090000000  0.5556660000000 1.0
C      1  0.5710350000000  0.4688520000000  0.4393750000000 1.0
C      1  0.5768510000000  0.4729270000000  0.5291110000000 1.0
C      1  0.4218090000000  0.4802460000000  0.4700540000000 1.0
C      1  0.5113390000000  0.5128800000000  0.5090470000000 1.0
C      1  0.4954380000000  0.5030840000000  0.4858330000000 1.0
C      1  0.4410120000000  0.5079750000000  0.5137610000000 1.0
C      1  0.5410310000000  0.5056870000000  0.5009620000000 1.0
C      1  0.5066330000000  0.4375000000000  0.3864320000000 1.0
C      1  0.4918620000000  0.4475040000000  0.6076870000000 1.0
C      1  0.4664190000000  0.5630150000000  0.5579290000000 1.0
C      1  0.5343160000000  0.5571060000000  0.4463450000000 1.0
C      1  0.4089890000000  0.5526100000000  0.5064380000000 1.0
C      1  0.5855080000000  0.5485540000000  0.4981310000000 1.0
C      1  0.4624600000000  0.4620710000000  0.4799960000000 1.0
C      1  0.5377680000000  0.4686140000000  0.5156950000000 1.0
C      1  0.5572070000000  0.5351420000000  0.4339150000000 1.0
C      1  0.4501620000000  0.5343930000000  0.5679380000000 1.0
C      1  0.4632370000000  0.5393800000000  0.4150440000000 1.0
C      1  0.5241780000000  0.5531080000000  0.5833000000000 1.0
C      1  0.4651280000000  0.5280560000000  0.5172720000000 1.0
C      1  0.5345330000000  0.5313160000000  0.4822010000000 1.0
C      1  0.4523990000000  0.5480290000000  0.4421850000000 1.0
C      1  0.5460730000000  0.5492810000000  0.5575530000000 1.0
C      1  0.5737230000000  0.5054450000000  0.5281590000000 1.0
C      1  0.4187100000000  0.5097160000000  0.4724520000000 1.0
C      1  0.5618130000000  0.4422520000000  0.4850560000000 1.0
C      1  0.4351100000000  0.4419790000000  0.5134390000000 1.0
C      1  0.5591210000000  0.4674640000000  0.5550120000000 1.0
C      1  0.4405630000000  0.4717440000000  0.4481840000000 1.0
C      1  0.4126730000000  0.5211350000000  0.5013330000000 1.0
C      1  0.5722110000000  0.5174650000000  0.4963770000000 1.0
C      1  0.5437070000000  0.4929880000000  0.5386600000000 1.0
C      1  0.4683620000000  0.4854730000000  0.4589780000000 1.0
C      1  0.4663800000000  0.5160820000000  0.4617330000000 1.0
C      1  0.5339440000000  0.5242040000000  0.5398500000000 1.0
C      1  0.5517950000000  0.4399010000000  0.5273120000000 1.0
C      1  0.4538400000000  0.4309230000000  0.4694190000000 1.0
C      1  0.5699320000000  0.5452830000000  0.4111350000000 1.0
C      1  0.4456220000000  0.5346920000000  0.5955310000000 1.0
C      1  0.4423400000000  0.5391600000000  0.5373180000000 1.0
C      1  0.5613090000000  0.5357590000000  0.4672940000000 1.0
C      1  0.5411580000000  0.4422880000000  0.5565560000000 1.0
C      1  0.4598930000000  0.4466060000000  0.4434490000000 1.0
C      1  0.4850020000000  0.4143200000000  0.4879350000000 1.0
C      1  0.5080600000000  0.4147540000000  0.5079980000000 1.0
C      1  0.4903900000000  0.4451210000000  0.4766740000000 1.0
C      1  0.5141010000000  0.4464920000000  0.5171010000000 1.0
C      1  0.5248240000000  0.5727460000000  0.4895250000000 1.0
C      1  0.4730630000000  0.5744350000000  0.5119110000000 1.0
C      1  0.5386510000000  0.4259860000000  0.5005580000000 1.0
C      1  0.4573440000000  0.4288530000000  0.5014370000000 1.0
C      1  0.4753030000000  0.4530810000000  0.5434200000000 1.0
C      1  0.5256590000000  0.4496490000000  0.4534930000000 1.0
C      1  0.4938220000000  0.4441580000000  0.4428530000000 1.0
C      1  0.5080480000000  0.4472530000000  0.5505550000000 1.0
C      1  0.5172890000000  0.4959920000000  0.4521530000000 1.0
C      1  0.4902200000000  0.4968740000000  0.5422210000000 1.0
C      1  0.5749990000000  0.4619470000000  0.5033780000000 1.0
C      1  0.4257260000000  0.4660920000000  0.4950140000000 1.0
C      1  0.5151260000000  0.4804730000000  0.5522000000000 1.0
C      1  0.4933410000000  0.4781590000000  0.4430400000000 1.0
C      1  0.4273230000000  0.5623640000000  0.5258580000000 1.0
C      1  0.5731710000000  0.5656070000000  0.4773120000000 1.0
C      1  0.4994600000000  0.5599800000000  0.5229460000000 1.0
C      1  0.4982370000000  0.5543420000000  0.4789470000000 1.0
C      1  0.4988830000000  0.4472580000000  0.5831590000000 1.0
C      1  0.5009600000000  0.4404260000000  0.4111370000000 1.0
C      1  0.4769460000000  0.5297590000000  0.4888850000000 1.0
C      1  0.5262000000000  0.5411010000000  0.5137220000000 1.0
C      1  0.4917250000000  0.4119220000000  0.4548710000000 1.0
C      1  0.5034580000000  0.4150760000000  0.5390750000000 1.0
C      1  0.4397460000000  0.5043610000000  0.5556240000000 1.0
C      1  0.5651440000000  0.5023180000000  0.4378790000000 1.0
C      1  0.5879420000000  0.4940720000000  0.4781400000000 1.0
C      1  0.4144140000000  0.5101650000000  0.5336430000000 1.0
C      1  0.4764380000000  0.4627200000000  0.5109910000000 1.0
C      1  0.5279190000000  0.4632400000000  0.4835960000000 1.0
C      1  0.4414450000000  0.4518540000000  0.5405080000000 1.0
C      1  0.5558700000000  0.4506680000000  0.4579240000000 1.0
C      1  0.4708590000000  0.5670430000000  0.4531430000000 1.0
C      1  0.5263330000000  0.5734450000000  0.5489880000000 1.0
C      1  0.4954760000000  0.5693070000000  0.5555490000000 1.0
C      1  0.5040350000000  0.5634600000000  0.4466120000000 1.0
C      1  0.4482860000000  0.4795630000000  0.5125190000000 1.0
C      1  0.5563920000000  0.4818200000000  0.4829970000000 1.0
C      1  0.4851790000000  0.5257980000000  0.4369930000000 1.0
C      1  0.5118490000000  0.5296140000000  0.5635910000000 1.0
C      1  0.5070610000000  0.5254810000000  0.4630360000000 1.0
C      1  0.4945330000000  0.5281510000000  0.5343550000000 1.0
C      1  0.5440760000000  0.4928310000000  0.4557300000000 1.0
C      1  0.4636110000000  0.4849840000000  0.5415450000000 1.0
C      1  0.5255800000000  0.5811400000000  0.5178170000000 1.0
C      1  0.4718450000000  0.5752490000000  0.4836850000000 1.0
C      1  0.4989470000000  0.4744780000000  0.4894970000000 1.0
END
