TITL C-3289330-4660-266 0.00174330571792346 125000 -371.93358496419 0 0 67 (C1) n - 1
REM
REM in /nfs/bkarasulu/CARBON/AIRSS/Generating-Clusters/AIREBO/with-SteepDescent/Higher-Symm/SD-CG/HFTN-CG
REM
REM
REM
REM
REM
REM ./C.cell (b20cbc046b6831c77cfcea5457e17084)
REM
REM compiler GCC version 9.2.1 20190827 (Red Hat 9.2.1-1)
REM options -cpp -mtune=generic -march=x86-64 -g -O0 -fpre-include=/usr/include/finclude/math-vector-fortran.h
REM seed 52196355 -1655485286 2029830078 338981014 627676683 134540339 84849385 335910998 1535506187 -894492236 1312746283 1879352052 526476606 1620167019 -1909178272 2017715474 1495046485 769718839 -1117239115 -1046882575 1726637967 -848772501 -417305031 1262573769 964010486 -31013940 885475903 1146799504 -1600822610 1760806359 976156716 -402417432 141521166
REM
CELL 1.54180   50.00000   50.00000   50.00000   90.00000   90.00000   90.00000
LATT -1
SFAC C  
C      1  0.5407970000000  0.4932720000000  0.4540670000000 1.0
C      1  0.4873210000000  0.5013600000000  0.4205470000000 1.0
C      1  0.4469780000000  0.5118650000000  0.4472770000000 1.0
C      1  0.3994030000000  0.5086130000000  0.5244560000000 1.0
C      1  0.4617850000000  0.4956020000000  0.5641230000000 1.0
C      1  0.5290790000000  0.4879190000000  0.5458270000000 1.0
C      1  0.5642350000000  0.4931700000000  0.5075570000000 1.0
C      1  0.4365020000000  0.5448290000000  0.5242710000000 1.0
C      1  0.4772740000000  0.5431750000000  0.5630280000000 1.0
C      1  0.5277800000000  0.5509280000000  0.5536250000000 1.0
C      1  0.5685150000000  0.5424120000000  0.4964390000000 1.0
C      1  0.5252910000000  0.5541630000000  0.4456670000000 1.0
C      1  0.4736570000000  0.5543920000000  0.4295680000000 1.0
C      1  0.4580110000000  0.5507000000000  0.4764970000000 1.0
C      1  0.4779160000000  0.5615660000000  0.4571430000000 1.0
C      1  0.4548030000000  0.5598250000000  0.5026810000000 1.0
C      1  0.4676580000000  0.5547040000000  0.5336410000000 1.0
C      1  0.4975510000000  0.5648910000000  0.5460290000000 1.0
C      1  0.5228610000000  0.5620620000000  0.5234930000000 1.0
C      1  0.5477500000000  0.5583380000000  0.5013000000000 1.0
C      1  0.5061140000000  0.5660150000000  0.4622440000000 1.0
C      1  0.5129030000000  0.5186290000000  0.4324510000000 1.0
C      1  0.4714270000000  0.4921960000000  0.4445370000000 1.0
C      1  0.4439990000000  0.5022950000000  0.4952250000000 1.0
C      1  0.4496030000000  0.4960320000000  0.5342430000000 1.0
C      1  0.5085420000000  0.5044400000000  0.5667640000000 1.0
C      1  0.5492170000000  0.5072180000000  0.5288260000000 1.0
C      1  0.5585770000000  0.5191330000000  0.4655410000000 1.0
C      1  0.5350580000000  0.5163140000000  0.4861580000000 1.0
C      1  0.5105340000000  0.5206370000000  0.4639220000000 1.0
C      1  0.4867960000000  0.5041410000000  0.4699010000000 1.0
C      1  0.4755280000000  0.5096400000000  0.4939040000000 1.0
C      1  0.4771890000000  0.5050330000000  0.5218380000000 1.0
C      1  0.4997110000000  0.5122240000000  0.5348460000000 1.0
C      1  0.5215700000000  0.5206450000000  0.5171330000000 1.0
C      1  0.4932010000000  0.4264520000000  0.5456350000000 1.0
C      1  0.5098070000000  0.4363640000000  0.5230940000000 1.0
C      1  0.5415710000000  0.4383830000000  0.5138810000000 1.0
C      1  0.5481700000000  0.4166140000000  0.4935960000000 1.0
C      1  0.5028790000000  0.4250180000000  0.4694950000000 1.0
C      1  0.4608960000000  0.4412690000000  0.4500390000000 1.0
C      1  0.4935250000000  0.4427840000000  0.4952720000000 1.0
C      1  0.5425850000000  0.5275140000000  0.4397790000000 1.0
C      1  0.4872420000000  0.5333480000000  0.4171010000000 1.0
C      1  0.4462260000000  0.5247220000000  0.4713540000000 1.0
C      1  0.4286920000000  0.5149610000000  0.5206740000000 1.0
C      1  0.4803030000000  0.5160390000000  0.5695360000000 1.0
C      1  0.5342310000000  0.5215910000000  0.5550020000000 1.0
C      1  0.5766090000000  0.5127200000000  0.4904700000000 1.0
C      1  0.4682380000000  0.4691230000000  0.5434630000000 1.0
C      1  0.5179530000000  0.4691450000000  0.5233250000000 1.0
C      1  0.5433510000000  0.4682530000000  0.5001890000000 1.0
C      1  0.5320160000000  0.4722630000000  0.4712900000000 1.0
C      1  0.5054920000000  0.4584140000000  0.4674990000000 1.0
C      1  0.4726330000000  0.4663690000000  0.4635990000000 1.0
C      1  0.4609470000000  0.4728760000000  0.4924620000000 1.0
C      1  0.4780000000000  0.4199010000000  0.4516170000000 1.0
C      1  0.4356440000000  0.4416970000000  0.4396440000000 1.0
C      1  0.4595960000000  0.4359270000000  0.5791430000000 1.0
C      1  0.4958400000000  0.4001400000000  0.5531260000000 1.0
C      1  0.5596410000000  0.4364660000000  0.5387050000000 1.0
C      1  0.5737640000000  0.4068450000000  0.4927820000000 1.0
C      1  0.5287610000000  0.4104630000000  0.4758840000000 1.0
C      1  0.4737040000000  0.4425940000000  0.5565800000000 1.0
C      1  0.5182910000000  0.5726860000000  0.4915200000000 1.0
C      1  0.4842900000000  0.4661740000000  0.5162830000000 1.0
C      1  0.5135760000000  0.5402000000000  0.4915800000000 1.0
END
