TITL C-3289331-6719-234 -0.00317791885500038 125000 -743.9567420088 0 0 149 (C1) n - 1
REM
REM in /nfs/bkarasulu/CARBON/AIRSS/Generating-Clusters/AIREBO/with-SteepDescent/Higher-Symm/SD-CG/HFTN-CG
REM
REM
REM
REM
REM
REM ./C.cell (b20cbc046b6831c77cfcea5457e17084)
REM
REM compiler GCC version 9.2.1 20190827 (Red Hat 9.2.1-1)
REM options -cpp -mtune=generic -march=x86-64 -g -O0 -fpre-include=/usr/include/finclude/math-vector-fortran.h
REM seed -443187029 -1489184156 -2135373989 757221210 -1658482965 394020756 1352855259 -1326453754 541529253 1118537721 -885169377 1348973213 -728470352 -809309271 1221802740 -1320290011 -1365769934 2008420504 2039717238 -301945480 1136931827 732130717 -1637186173 2078723724 1145617485 1630799184 1677517417 1772408342 465842913 -232163297 -278544411 1696492738 1932076856
REM
CELL 1.54180   50.00000   50.00000   50.00000   90.00000   90.00000   90.00000
LATT -1
SFAC C  
C      1  0.4160740000000  0.4739350000000  0.5150710000000 1.0
C      1  0.4920280000000  0.4263680000000  0.5242130000000 1.0
C      1  0.5738660000000  0.4762720000000  0.5124300000000 1.0
C      1  0.5544280000000  0.5573090000000  0.5245680000000 1.0
C      1  0.4509600000000  0.5699520000000  0.5253260000000 1.0
C      1  0.5125360000000  0.5296070000000  0.4355970000000 1.0
C      1  0.4889780000000  0.5139500000000  0.4233460000000 1.0
C      1  0.4719480000000  0.4994190000000  0.4430300000000 1.0
C      1  0.5024430000000  0.4759570000000  0.4333220000000 1.0
C      1  0.5304360000000  0.4922270000000  0.4379140000000 1.0
C      1  0.4755580000000  0.4967610000000  0.5089060000000 1.0
C      1  0.4950750000000  0.4621640000000  0.5055080000000 1.0
C      1  0.5195400000000  0.4616860000000  0.5288050000000 1.0
C      1  0.5338360000000  0.5103750000000  0.5058590000000 1.0
C      1  0.4958850000000  0.5234590000000  0.5144220000000 1.0
C      1  0.4165120000000  0.5480010000000  0.5566130000000 1.0
C      1  0.4249080000000  0.4355650000000  0.5532010000000 1.0
C      1  0.5395590000000  0.4050150000000  0.5503800000000 1.0
C      1  0.6009320000000  0.5061230000000  0.5538680000000 1.0
C      1  0.5231870000000  0.5928250000000  0.5531100000000 1.0
C      1  0.5568190000000  0.4931380000000  0.4105540000000 1.0
C      1  0.5344690000000  0.5487340000000  0.3908330000000 1.0
C      1  0.4608920000000  0.5417640000000  0.4179180000000 1.0
C      1  0.4508770000000  0.4632440000000  0.4062480000000 1.0
C      1  0.5228710000000  0.4370180000000  0.4098140000000 1.0
C      1  0.4967140000000  0.4616700000000  0.5895300000000 1.0
C      1  0.5251890000000  0.4789660000000  0.5838600000000 1.0
C      1  0.5258660000000  0.5277630000000  0.5847810000000 1.0
C      1  0.4823240000000  0.5302250000000  0.5852900000000 1.0
C      1  0.4695190000000  0.4996080000000  0.5802640000000 1.0
C      1  0.4585720000000  0.5204520000000  0.4619660000000 1.0
C      1  0.4724250000000  0.4719490000000  0.4630910000000 1.0
C      1  0.5229670000000  0.4656830000000  0.4584230000000 1.0
C      1  0.5364800000000  0.5173390000000  0.4564280000000 1.0
C      1  0.5051780000000  0.5453420000000  0.4606380000000 1.0
C      1  0.4960020000000  0.4554700000000  0.4001130000000 1.0
C      1  0.5273600000000  0.4688990000000  0.3988830000000 1.0
C      1  0.5182200000000  0.5196650000000  0.3977370000000 1.0
C      1  0.4915180000000  0.5400190000000  0.4032220000000 1.0
C      1  0.4650830000000  0.4910110000000  0.4013270000000 1.0
C      1  0.4448150000000  0.4105950000000  0.4918730000000 1.0
C      1  0.5742980000000  0.4463100000000  0.4860370000000 1.0
C      1  0.5949560000000  0.5524490000000  0.4868960000000 1.0
C      1  0.4779060000000  0.5954350000000  0.4868120000000 1.0
C      1  0.3912910000000  0.5122460000000  0.4931570000000 1.0
C      1  0.5025600000000  0.5934200000000  0.4630620000000 1.0
C      1  0.4121750000000  0.5153390000000  0.4676900000000 1.0
C      1  0.4422490000000  0.4295560000000  0.4654630000000 1.0
C      1  0.5582980000000  0.4252780000000  0.4663600000000 1.0
C      1  0.5841430000000  0.5347980000000  0.4598740000000 1.0
C      1  0.5291280000000  0.5584030000000  0.5957000000000 1.0
C      1  0.4562520000000  0.5468040000000  0.5994870000000 1.0
C      1  0.4586600000000  0.4768950000000  0.5970540000000 1.0
C      1  0.5089270000000  0.4333820000000  0.6039110000000 1.0
C      1  0.5492770000000  0.4916060000000  0.5977210000000 1.0
C      1  0.5347330000000  0.4908770000000  0.4780140000000 1.0
C      1  0.5267730000000  0.5343020000000  0.4832680000000 1.0
C      1  0.4777010000000  0.5413080000000  0.4688930000000 1.0
C      1  0.4638830000000  0.4959910000000  0.4815220000000 1.0
C      1  0.4953580000000  0.4589660000000  0.4756460000000 1.0
C      1  0.5682530000000  0.4793100000000  0.4394460000000 1.0
C      1  0.5395400000000  0.5561590000000  0.4236240000000 1.0
C      1  0.4622590000000  0.5674400000000  0.4386970000000 1.0
C      1  0.4376730000000  0.4832430000000  0.4293560000000 1.0
C      1  0.4971860000000  0.4247290000000  0.4255280000000 1.0
C      1  0.4783020000000  0.4107330000000  0.5511080000000 1.0
C      1  0.5719510000000  0.4499800000000  0.5505800000000 1.0
C      1  0.5753780000000  0.5618210000000  0.5499900000000 1.0
C      1  0.4645880000000  0.5861830000000  0.5502580000000 1.0
C      1  0.4084030000000  0.4954880000000  0.5567970000000 1.0
C      1  0.5673400000000  0.4437300000000  0.5198430000000 1.0
C      1  0.5869440000000  0.5503000000000  0.5199370000000 1.0
C      1  0.4795390000000  0.5874890000000  0.5196200000000 1.0
C      1  0.4023980000000  0.5036910000000  0.5242790000000 1.0
C      1  0.4629360000000  0.4107180000000  0.5206530000000 1.0
C      1  0.5465700000000  0.5924640000000  0.4776580000000 1.0
C      1  0.4285850000000  0.5716850000000  0.4840430000000 1.0
C      1  0.4143570000000  0.4571240000000  0.4791170000000 1.0
C      1  0.5185630000000  0.3970340000000  0.4786020000000 1.0
C      1  0.6006610000000  0.4865100000000  0.4778140000000 1.0
C      1  0.5451930000000  0.4828740000000  0.5317570000000 1.0
C      1  0.5382190000000  0.5290750000000  0.5339170000000 1.0
C      1  0.4685530000000  0.5408640000000  0.5247460000000 1.0
C      1  0.4469370000000  0.4916270000000  0.5242290000000 1.0
C      1  0.4808880000000  0.4563170000000  0.5358490000000 1.0
C      1  0.4088010000000  0.5365400000000  0.5303960000000 1.0
C      1  0.4381220000000  0.4295460000000  0.5263800000000 1.0
C      1  0.5466940000000  0.4166570000000  0.5199980000000 1.0
C      1  0.5913980000000  0.5202990000000  0.5278920000000 1.0
C      1  0.5108620000000  0.5833700000000  0.5269580000000 1.0
C      1  0.4300980000000  0.5176710000000  0.4475220000000 1.0
C      1  0.4504170000000  0.4558400000000  0.4454860000000 1.0
C      1  0.5347830000000  0.4370140000000  0.4492600000000 1.0
C      1  0.5666830000000  0.5132190000000  0.4432690000000 1.0
C      1  0.5145730000000  0.5698930000000  0.4424130000000 1.0
C      1  0.5466410000000  0.5703260000000  0.4537340000000 1.0
C      1  0.4571800000000  0.5743400000000  0.4707940000000 1.0
C      1  0.4289310000000  0.4766290000000  0.4617400000000 1.0
C      1  0.5095060000000  0.4171210000000  0.4527050000000 1.0
C      1  0.5840460000000  0.4678920000000  0.4651060000000 1.0
C      1  0.5461020000000  0.5232160000000  0.4180730000000 1.0
C      1  0.4899130000000  0.5677420000000  0.4220790000000 1.0
C      1  0.4453210000000  0.5141460000000  0.4173200000000 1.0
C      1  0.4717270000000  0.4446790000000  0.4214340000000 1.0
C      1  0.5461080000000  0.4578170000000  0.4250030000000 1.0
C      1  0.5511950000000  0.5534740000000  0.4829210000000 1.0
C      1  0.4734250000000  0.5566910000000  0.4950290000000 1.0
C      1  0.4347100000000  0.4910210000000  0.4923270000000 1.0
C      1  0.4935270000000  0.4278750000000  0.4795800000000 1.0
C      1  0.5444130000000  0.4718680000000  0.4995740000000 1.0
C      1  0.5176390000000  0.4208800000000  0.5028220000000 1.0
C      1  0.5881510000000  0.5018000000000  0.5026640000000 1.0
C      1  0.5339030000000  0.5744620000000  0.5035720000000 1.0
C      1  0.4273180000000  0.5533520000000  0.5073490000000 1.0
C      1  0.4321230000000  0.4473440000000  0.5011810000000 1.0
C      1  0.4994360000000  0.5571860000000  0.5791740000000 1.0
C      1  0.4443500000000  0.5181850000000  0.5854410000000 1.0
C      1  0.4661590000000  0.4476640000000  0.5848390000000 1.0
C      1  0.5345780000000  0.4489480000000  0.5878050000000 1.0
C      1  0.5585510000000  0.5211480000000  0.5836830000000 1.0
C      1  0.5535730000000  0.5523300000000  0.5709620000000 1.0
C      1  0.4670460000000  0.5643080000000  0.5716640000000 1.0
C      1  0.4315280000000  0.4886480000000  0.5744840000000 1.0
C      1  0.4897430000000  0.4246830000000  0.5763650000000 1.0
C      1  0.5616140000000  0.4653620000000  0.5751810000000 1.0
C      1  0.4704740000000  0.4940230000000  0.5486630000000 1.0
C      1  0.4947040000000  0.4738800000000  0.5586490000000 1.0
C      1  0.5222370000000  0.4912460000000  0.5554110000000 1.0
C      1  0.5146760000000  0.5211240000000  0.5571310000000 1.0
C      1  0.4816750000000  0.5248160000000  0.5517180000000 1.0
C      1  0.5407530000000  0.4422740000000  0.4900100000000 1.0
C      1  0.5724600000000  0.5279030000000  0.4903220000000 1.0
C      1  0.5029670000000  0.5726250000000  0.4895800000000 1.0
C      1  0.4237770000000  0.5229450000000  0.4965300000000 1.0
C      1  0.4633790000000  0.4390910000000  0.4903350000000 1.0
C      1  0.5759340000000  0.4956580000000  0.5693960000000 1.0
C      1  0.5237420000000  0.5604000000000  0.5567740000000 1.0
C      1  0.4449110000000  0.5401960000000  0.5624160000000 1.0
C      1  0.4411120000000  0.4587170000000  0.5664350000000 1.0
C      1  0.5219180000000  0.4269720000000  0.5678700000000 1.0
C      1  0.5630610000000  0.5097260000000  0.5424250000000 1.0
C      1  0.5127170000000  0.5495040000000  0.5264770000000 1.0
C      1  0.4402530000000  0.5238630000000  0.5328930000000 1.0
C      1  0.4509540000000  0.4597370000000  0.5353320000000 1.0
C      1  0.5280140000000  0.4364640000000  0.5381470000000 1.0
C      1  0.5013670000000  0.5123480000000  0.4827570000000 1.0
C      1  0.5080850000000  0.4919150000000  0.5181950000000 1.0
C      1  0.5012740000000  0.4987540000000  0.4578910000000 1.0
C      1  0.4990590000000  0.4892930000000  0.4022130000000 1.0
END
