TITL C-3289329-2751-567 0.000295514795667245 125000 -435.2207289288 0 0 85 (C1) n - 1
REM
REM in /nfs/bkarasulu/CARBON/AIRSS/Generating-Clusters/AIREBO/with-SteepDescent/Higher-Symm/SD-CG/HFTN-CG
REM
REM
REM
REM
REM
REM ./C.cell (b20cbc046b6831c77cfcea5457e17084)
REM
REM compiler GCC version 9.2.1 20190827 (Red Hat 9.2.1-1)
REM options -cpp -mtune=generic -march=x86-64 -g -O0 -fpre-include=/usr/include/finclude/math-vector-fortran.h
REM seed 706598395 -223792957 -907593305 28498954 -28480560 113399490 -1752412253 1995002814 -1977868537 1922970990 -370616484 284061655 996246555 494913535 -327745118 -1676625416 19247913 -796001905 -1179172549 -1981636001 1710214167 -1239428410 1652204654 -1880880579 502177313 -177171454 1412549500 1577522015 1768551885 -250395788 -78168293 -1214960929 -1147981889
REM
CELL 1.54180   50.00000   50.00000   50.00000   90.00000   90.00000   90.00000
LATT -1
SFAC C  
C      1  0.4727100000000  0.5634510000000  0.5737190000000 1.0
C      1  0.4399380000000  0.5177230000000  0.5678170000000 1.0
C      1  0.4445880000000  0.4624240000000  0.5777540000000 1.0
C      1  0.5048720000000  0.4139200000000  0.5629740000000 1.0
C      1  0.5439670000000  0.4601230000000  0.5686260000000 1.0
C      1  0.5835550000000  0.5130310000000  0.5628760000000 1.0
C      1  0.5353700000000  0.5600700000000  0.5731250000000 1.0
C      1  0.4419750000000  0.4663840000000  0.4512260000000 1.0
C      1  0.4872130000000  0.4284210000000  0.4524170000000 1.0
C      1  0.5463310000000  0.4456180000000  0.4566920000000 1.0
C      1  0.5611710000000  0.4965630000000  0.4523050000000 1.0
C      1  0.5448980000000  0.5572240000000  0.4527950000000 1.0
C      1  0.4892390000000  0.5629430000000  0.4536760000000 1.0
C      1  0.4382900000000  0.5284260000000  0.4495310000000 1.0
C      1  0.4817870000000  0.4229120000000  0.5069370000000 1.0
C      1  0.5559200000000  0.4390050000000  0.5017520000000 1.0
C      1  0.5740150000000  0.5049940000000  0.5081270000000 1.0
C      1  0.5481540000000  0.5636060000000  0.5077490000000 1.0
C      1  0.4792960000000  0.5795580000000  0.5051350000000 1.0
C      1  0.4233250000000  0.5347890000000  0.5050750000000 1.0
C      1  0.4237800000000  0.4620630000000  0.5059480000000 1.0
C      1  0.5538670000000  0.5349850000000  0.5251950000000 1.0
C      1  0.5029340000000  0.5646740000000  0.5247740000000 1.0
C      1  0.4503860000000  0.5423440000000  0.5242410000000 1.0
C      1  0.4318740000000  0.4890090000000  0.5253610000000 1.0
C      1  0.4627710000000  0.4434650000000  0.5263250000000 1.0
C      1  0.5296850000000  0.4393880000000  0.5235120000000 1.0
C      1  0.5620450000000  0.4799370000000  0.5272090000000 1.0
C      1  0.4968550000000  0.4653050000000  0.5583790000000 1.0
C      1  0.5226530000000  0.4773230000000  0.5703620000000 1.0
C      1  0.5299560000000  0.5065180000000  0.5619280000000 1.0
C      1  0.5175150000000  0.5336450000000  0.5660650000000 1.0
C      1  0.4876550000000  0.5356620000000  0.5667270000000 1.0
C      1  0.4704650000000  0.5093340000000  0.5644680000000 1.0
C      1  0.4700100000000  0.4786050000000  0.5657210000000 1.0
C      1  0.5186840000000  0.5692640000000  0.4651720000000 1.0
C      1  0.4585650000000  0.5521830000000  0.4636680000000 1.0
C      1  0.4347020000000  0.4973440000000  0.4635200000000 1.0
C      1  0.4582690000000  0.4413530000000  0.4663570000000 1.0
C      1  0.5164530000000  0.4338850000000  0.4691100000000 1.0
C      1  0.5639290000000  0.4697100000000  0.4660390000000 1.0
C      1  0.5537720000000  0.5281900000000  0.4624190000000 1.0
C      1  0.4763550000000  0.4543080000000  0.4332100000000 1.0
C      1  0.5333160000000  0.4635900000000  0.4327140000000 1.0
C      1  0.5481410000000  0.4875110000000  0.4276440000000 1.0
C      1  0.5297080000000  0.5621380000000  0.4273910000000 1.0
C      1  0.5039910000000  0.5497950000000  0.4309460000000 1.0
C      1  0.4616500000000  0.5098510000000  0.4359290000000 1.0
C      1  0.4610070000000  0.4823780000000  0.4324110000000 1.0
C      1  0.5121000000000  0.4233830000000  0.4992090000000 1.0
C      1  0.5722070000000  0.4674850000000  0.4972370000000 1.0
C      1  0.5645590000000  0.5323960000000  0.4930090000000 1.0
C      1  0.5197440000000  0.5762610000000  0.4975650000000 1.0
C      1  0.4536510000000  0.5611970000000  0.4961120000000 1.0
C      1  0.4236340000000  0.5026410000000  0.4953100000000 1.0
C      1  0.4479130000000  0.4409910000000  0.4960420000000 1.0
C      1  0.5195510000000  0.5176300000000  0.5148740000000 1.0
C      1  0.4941510000000  0.5322860000000  0.5192950000000 1.0
C      1  0.4718060000000  0.5171840000000  0.5323140000000 1.0
C      1  0.4653320000000  0.4910560000000  0.5196400000000 1.0
C      1  0.4866350000000  0.4675390000000  0.5260180000000 1.0
C      1  0.5181220000000  0.4705470000000  0.5197870000000 1.0
C      1  0.5234500000000  0.4955290000000  0.5334300000000 1.0
C      1  0.4819460000000  0.4657120000000  0.4647660000000 1.0
C      1  0.5124840000000  0.4658120000000  0.4581080000000 1.0
C      1  0.5284180000000  0.4864900000000  0.4734380000000 1.0
C      1  0.5258430000000  0.5136160000000  0.4600590000000 1.0
C      1  0.5030330000000  0.5307180000000  0.4729250000000 1.0
C      1  0.4743070000000  0.5220720000000  0.4650330000000 1.0
C      1  0.4666230000000  0.4904970000000  0.4711700000000 1.0
C      1  0.5527070000000  0.4547480000000  0.5432770000000 1.0
C      1  0.5592050000000  0.5089940000000  0.5447590000000 1.0
C      1  0.5301880000000  0.5533440000000  0.5416790000000 1.0
C      1  0.4744160000000  0.5584310000000  0.5422410000000 1.0
C      1  0.4316380000000  0.5193860000000  0.5409420000000 1.0
C      1  0.4448530000000  0.4648500000000  0.5454830000000 1.0
C      1  0.5083190000000  0.4360880000000  0.5496650000000 1.0
C      1  0.4509280000000  0.5222040000000  0.4897230000000 1.0
C      1  0.4528540000000  0.4754170000000  0.4944330000000 1.0
C      1  0.4859880000000  0.4531290000000  0.4952280000000 1.0
C      1  0.5381770000000  0.4675270000000  0.4964690000000 1.0
C      1  0.5420370000000  0.5072790000000  0.4960020000000 1.0
C      1  0.5238800000000  0.5428860000000  0.4947750000000 1.0
C      1  0.4842080000000  0.5477990000000  0.4939830000000 1.0
C      1  0.5073740000000  0.5215410000000  0.4342760000000 1.0
END
