TITL C-3289321-8710-603 -0.00328693657185616 125000 -713.112930388211 0 0 136 (C1) n - 1
REM
REM in /nfs/bkarasulu/CARBON/AIRSS/Generating-Clusters/AIREBO/with-SteepDescent/Higher-Symm/SD-CG/HFTN-CG
REM
REM
REM
REM
REM
REM ./C.cell (b20cbc046b6831c77cfcea5457e17084)
REM
REM compiler GCC version 9.2.1 20190827 (Red Hat 9.2.1-1)
REM options -cpp -mtune=generic -march=x86-64 -g -O0 -fpre-include=/usr/include/finclude/math-vector-fortran.h
REM seed -576774970 -326820331 486299260 -1213681892 -1262768390 1247127173 -1027215641 627962209 -2141568001 112282057 495754557 -1647023248 1105577056 1639232560 267076370 1220840001 1976411671 16848844 -711782737 2119402727 1457835733 -326507060 -232736661 -1424545422 1204479017 54359616 742767798 831989198 322257104 880246858 316137649 1820261879 -773131759
REM
CELL 1.54180   50.00000   50.00000   50.00000   90.00000   90.00000   90.00000
LATT -1
SFAC C  
C      1  0.5682070000000  0.5805340000000  0.4980760000000 1.0
C      1  0.5638550000000  0.4532950000000  0.4984690000000 1.0
C      1  0.4769000000000  0.4694140000000  0.4062140000000 1.0
C      1  0.4748750000000  0.5306690000000  0.5892410000000 1.0
C      1  0.4672530000000  0.4243040000000  0.4627250000000 1.0
C      1  0.4599940000000  0.5955290000000  0.5430930000000 1.0
C      1  0.4631860000000  0.5571950000000  0.5093470000000 1.0
C      1  0.4582230000000  0.4370890000000  0.4908630000000 1.0
C      1  0.5690320000000  0.5245870000000  0.5155010000000 1.0
C      1  0.5876230000000  0.4697600000000  0.4833220000000 1.0
C      1  0.4510740000000  0.4913300000000  0.5844860000000 1.0
C      1  0.4529410000000  0.5060390000000  0.4176070000000 1.0
C      1  0.4941160000000  0.6016880000000  0.4965600000000 1.0
C      1  0.4918860000000  0.4028510000000  0.5082920000000 1.0
C      1  0.5753460000000  0.4811780000000  0.4573150000000 1.0
C      1  0.5712790000000  0.5232370000000  0.5486110000000 1.0
C      1  0.4786140000000  0.5524180000000  0.4406010000000 1.0
C      1  0.4825650000000  0.4502530000000  0.5549750000000 1.0
C      1  0.5154040000000  0.4320610000000  0.5686840000000 1.0
C      1  0.5073700000000  0.5695250000000  0.4345310000000 1.0
C      1  0.4331450000000  0.4496350000000  0.5601430000000 1.0
C      1  0.4310650000000  0.5406990000000  0.4508870000000 1.0
C      1  0.5016840000000  0.5378600000000  0.5743610000000 1.0
C      1  0.5010230000000  0.4598400000000  0.4231440000000 1.0
C      1  0.5330560000000  0.5014490000000  0.4046130000000 1.0
C      1  0.5333010000000  0.4825290000000  0.5953850000000 1.0
C      1  0.5097620000000  0.4654270000000  0.5687100000000 1.0
C      1  0.5235420000000  0.5266050000000  0.4370230000000 1.0
C      1  0.4699160000000  0.5983450000000  0.4816670000000 1.0
C      1  0.4670180000000  0.4070840000000  0.5198900000000 1.0
C      1  0.5728140000000  0.5668380000000  0.4738490000000 1.0
C      1  0.5732760000000  0.4321020000000  0.5185980000000 1.0
C      1  0.5508230000000  0.5403020000000  0.4380210000000 1.0
C      1  0.5432140000000  0.4600480000000  0.5722210000000 1.0
C      1  0.5249080000000  0.5492270000000  0.4822890000000 1.0
C      1  0.5222710000000  0.4479370000000  0.5181030000000 1.0
C      1  0.5000500000000  0.5241730000000  0.5042060000000 1.0
C      1  0.5068220000000  0.4978070000000  0.4889740000000 1.0
C      1  0.4403090000000  0.5016980000000  0.4756940000000 1.0
C      1  0.4322780000000  0.4973670000000  0.5277900000000 1.0
C      1  0.4577380000000  0.4698870000000  0.5638470000000 1.0
C      1  0.4574140000000  0.5266510000000  0.4403530000000 1.0
C      1  0.5054990000000  0.5508380000000  0.4110720000000 1.0
C      1  0.5287300000000  0.4481980000000  0.5988760000000 1.0
C      1  0.5792490000000  0.4961800000000  0.5631440000000 1.0
C      1  0.5865750000000  0.5072750000000  0.4431680000000 1.0
C      1  0.5699250000000  0.5671190000000  0.5240740000000 1.0
C      1  0.5593470000000  0.4445720000000  0.4707750000000 1.0
C      1  0.4441520000000  0.5351910000000  0.5224970000000 1.0
C      1  0.4322140000000  0.4597050000000  0.4689440000000 1.0
C      1  0.5135050000000  0.5069540000000  0.5661250000000 1.0
C      1  0.4953650000000  0.4901410000000  0.4375410000000 1.0
C      1  0.5189790000000  0.5409190000000  0.5269510000000 1.0
C      1  0.5128980000000  0.4686730000000  0.4729680000000 1.0
C      1  0.3975730000000  0.4867660000000  0.5081990000000 1.0
C      1  0.4041070000000  0.5181360000000  0.4826670000000 1.0
C      1  0.4851620000000  0.5486660000000  0.4859140000000 1.0
C      1  0.4735660000000  0.4612180000000  0.5071920000000 1.0
C      1  0.4774750000000  0.5020480000000  0.5155610000000 1.0
C      1  0.4770870000000  0.4873180000000  0.4856890000000 1.0
C      1  0.4978330000000  0.4678140000000  0.5301770000000 1.0
C      1  0.5035850000000  0.5379630000000  0.4586160000000 1.0
C      1  0.4086560000000  0.5245190000000  0.4563100000000 1.0
C      1  0.3930410000000  0.4947570000000  0.5344130000000 1.0
C      1  0.5325500000000  0.3998520000000  0.4621310000000 1.0
C      1  0.5261690000000  0.5893440000000  0.5209370000000 1.0
C      1  0.4527730000000  0.5656200000000  0.5557860000000 1.0
C      1  0.4438110000000  0.4291620000000  0.4438090000000 1.0
C      1  0.5714820000000  0.4780800000000  0.5287920000000 1.0
C      1  0.5669320000000  0.5136260000000  0.4789840000000 1.0
C      1  0.4761710000000  0.4985340000000  0.4040440000000 1.0
C      1  0.4739710000000  0.5028440000000  0.5955090000000 1.0
C      1  0.4668590000000  0.4973420000000  0.4548510000000 1.0
C      1  0.4613650000000  0.4922150000000  0.5415630000000 1.0
C      1  0.4281960000000  0.5164150000000  0.5038670000000 1.0
C      1  0.4241510000000  0.4779170000000  0.4938610000000 1.0
C      1  0.5328980000000  0.3955110000000  0.4904340000000 1.0
C      1  0.5455820000000  0.5994520000000  0.4981350000000 1.0
C      1  0.4733120000000  0.5737300000000  0.4662260000000 1.0
C      1  0.4637680000000  0.4352780000000  0.5314320000000 1.0
C      1  0.5418660000000  0.5286930000000  0.4953760000000 1.0
C      1  0.5428290000000  0.4747660000000  0.5144120000000 1.0
C      1  0.4588020000000  0.4650380000000  0.4520490000000 1.0
C      1  0.4614000000000  0.5240130000000  0.5448160000000 1.0
C      1  0.4373070000000  0.4180860000000  0.5071080000000 1.0
C      1  0.4448880000000  0.5808500000000  0.4950040000000 1.0
C      1  0.5395040000000  0.5176070000000  0.5382210000000 1.0
C      1  0.5414120000000  0.4788880000000  0.4575130000000 1.0
C      1  0.5224560000000  0.5753260000000  0.4606280000000 1.0
C      1  0.5295460000000  0.4260240000000  0.5402250000000 1.0
C      1  0.5941860000000  0.5133870000000  0.4993090000000 1.0
C      1  0.5971080000000  0.4851190000000  0.5093090000000 1.0
C      1  0.6064750000000  0.5307220000000  0.4760940000000 1.0
C      1  0.6022210000000  0.4813960000000  0.5429410000000 1.0
C      1  0.4899890000000  0.4558920000000  0.4534040000000 1.0
C      1  0.4900400000000  0.5358880000000  0.5440780000000 1.0
C      1  0.4417910000000  0.4675520000000  0.5171460000000 1.0
C      1  0.4565680000000  0.5312650000000  0.4799030000000 1.0
C      1  0.4481950000000  0.5387480000000  0.5724680000000 1.0
C      1  0.4505150000000  0.4541880000000  0.4215910000000 1.0
C      1  0.5512760000000  0.5659560000000  0.4537990000000 1.0
C      1  0.5601840000000  0.4343420000000  0.5430440000000 1.0
C      1  0.4366800000000  0.4842560000000  0.4248510000000 1.0
C      1  0.4319930000000  0.5107860000000  0.5748350000000 1.0
C      1  0.4236420000000  0.4859750000000  0.4498790000000 1.0
C      1  0.4149060000000  0.5043190000000  0.5535310000000 1.0
C      1  0.5019890000000  0.4480800000000  0.4939380000000 1.0
C      1  0.5069680000000  0.5651830000000  0.5063680000000 1.0
C      1  0.4862070000000  0.4218430000000  0.5730210000000 1.0
C      1  0.4643800000000  0.5676880000000  0.4176250000000 1.0
C      1  0.5396630000000  0.4952670000000  0.4876980000000 1.0
C      1  0.5226460000000  0.4896200000000  0.5382290000000 1.0
C      1  0.5117170000000  0.4045670000000  0.4354500000000 1.0
C      1  0.5274580000000  0.5856800000000  0.5550280000000 1.0
C      1  0.4933780000000  0.4195380000000  0.4839800000000 1.0
C      1  0.4866180000000  0.5857580000000  0.5242430000000 1.0
C      1  0.4296210000000  0.4281090000000  0.4748160000000 1.0
C      1  0.4364770000000  0.5685940000000  0.5260820000000 1.0
C      1  0.5188540000000  0.4342310000000  0.4204250000000 1.0
C      1  0.5086780000000  0.5712620000000  0.5724820000000 1.0
C      1  0.5594530000000  0.4567600000000  0.4390260000000 1.0
C      1  0.5861140000000  0.5512010000000  0.5392650000000 1.0
C      1  0.5203460000000  0.4030460000000  0.5167610000000 1.0
C      1  0.5193590000000  0.5980210000000  0.4825860000000 1.0
C      1  0.4313810000000  0.4411480000000  0.5313920000000 1.0
C      1  0.4382810000000  0.5568640000000  0.4749630000000 1.0
C      1  0.4850780000000  0.5662530000000  0.5516260000000 1.0
C      1  0.5059960000000  0.4295270000000  0.4578220000000 1.0
C      1  0.5032350000000  0.5169110000000  0.4115220000000 1.0
C      1  0.5003560000000  0.4894620000000  0.5906180000000 1.0
C      1  0.5263280000000  0.4950070000000  0.4355660000000 1.0
C      1  0.5463450000000  0.4997240000000  0.5690120000000 1.0
C      1  0.5386820000000  0.4303970000000  0.4484950000000 1.0
C      1  0.5417870000000  0.5648480000000  0.5349080000000 1.0
C      1  0.5690430000000  0.4632840000000  0.5580050000000 1.0
C      1  0.5781030000000  0.5366830000000  0.4580020000000 1.0
END
