TITL C-3289327-5623-693 -0.00529096847089635 125000 -807.845855115742 0 0 132 (C1) n - 1
REM
REM in /nfs/bkarasulu/CARBON/AIRSS/Generating-Clusters/AIREBO/with-SteepDescent/Higher-Symm/SD-CG/HFTN-CG
REM
REM
REM
REM
REM
REM ./C.cell (b20cbc046b6831c77cfcea5457e17084)
REM
REM compiler GCC version 9.2.1 20190827 (Red Hat 9.2.1-1)
REM options -cpp -mtune=generic -march=x86-64 -g -O0 -fpre-include=/usr/include/finclude/math-vector-fortran.h
REM seed 1755615186 1604615742 444583682 564007592 337400034 -730678238 2035260714 -1868113304 -2035887751 -1195013137 771313038 1695059036 22249208 321577196 -387262115 323241511 -588182133 1484659617 -266517406 259426574 -719209944 -853539114 1546931848 1577745208 2080162293 262735676 2087694479 200699280 -307933154 134846607 -1610134226 -1243691583 1302020459
REM
CELL 1.54180   50.00000   50.00000   50.00000   90.00000   90.00000   90.00000
LATT -1
SFAC C  
C      1  0.4230970000000  0.5099630000000  0.4538560000000 1.0
C      1  0.5025050000000  0.4692210000000  0.4248520000000 1.0
C      1  0.4696060000000  0.4320950000000  0.5089290000000 1.0
C      1  0.5692310000000  0.4810280000000  0.4700150000000 1.0
C      1  0.4238450000000  0.4913220000000  0.5347880000000 1.0
C      1  0.5728310000000  0.5117510000000  0.5361630000000 1.0
C      1  0.5019540000000  0.5518740000000  0.4228790000000 1.0
C      1  0.5041200000000  0.5418290000000  0.5736320000000 1.0
C      1  0.4890610000000  0.4655330000000  0.5797950000000 1.0
C      1  0.5437160000000  0.5899250000000  0.5060770000000 1.0
C      1  0.4708780000000  0.5757160000000  0.4899430000000 1.0
C      1  0.5464430000000  0.4310600000000  0.4921180000000 1.0
C      1  0.5004320000000  0.4223800000000  0.4552980000000 1.0
C      1  0.4659570000000  0.5097240000000  0.4227400000000 1.0
C      1  0.4278750000000  0.4643430000000  0.5140230000000 1.0
C      1  0.4949130000000  0.5708500000000  0.4686930000000 1.0
C      1  0.5021990000000  0.4204240000000  0.5474630000000 1.0
C      1  0.5064460000000  0.5677880000000  0.5351960000000 1.0
C      1  0.5288460000000  0.4903290000000  0.4227450000000 1.0
C      1  0.5440180000000  0.5088720000000  0.5761990000000 1.0
C      1  0.4675180000000  0.4886590000000  0.5757630000000 1.0
C      1  0.5723800000000  0.5348230000000  0.5115440000000 1.0
C      1  0.5651520000000  0.4607470000000  0.4931340000000 1.0
C      1  0.4244110000000  0.5415460000000  0.4900640000000 1.0
C      1  0.5674290000000  0.5507570000000  0.4730760000000 1.0
C      1  0.5621120000000  0.4606720000000  0.5757510000000 1.0
C      1  0.4653050000000  0.5805320000000  0.5530330000000 1.0
C      1  0.4185980000000  0.4601300000000  0.4753920000000 1.0
C      1  0.5713370000000  0.4469710000000  0.5396360000000 1.0
C      1  0.4211470000000  0.5581300000000  0.5354270000000 1.0
C      1  0.4505760000000  0.5243990000000  0.5723240000000 1.0
C      1  0.5584340000000  0.5258100000000  0.4201120000000 1.0
C      1  0.4481460000000  0.4638560000000  0.4356560000000 1.0
C      1  0.5405220000000  0.4092520000000  0.5470500000000 1.0
C      1  0.4606340000000  0.4211220000000  0.4584060000000 1.0
C      1  0.5335390000000  0.5887320000000  0.4463300000000 1.0
C      1  0.5578430000000  0.5789320000000  0.4562920000000 1.0
C      1  0.4541090000000  0.5542600000000  0.5721830000000 1.0
C      1  0.5850850000000  0.4739850000000  0.5536790000000 1.0
C      1  0.4442970000000  0.4158410000000  0.4827540000000 1.0
C      1  0.4489470000000  0.5620520000000  0.5335540000000 1.0
C      1  0.5649010000000  0.4185800000000  0.5359420000000 1.0
C      1  0.5334960000000  0.4525970000000  0.5781090000000 1.0
C      1  0.5415940000000  0.5505420000000  0.4201140000000 1.0
C      1  0.4664400000000  0.4493570000000  0.4192680000000 1.0
C      1  0.4097140000000  0.5391180000000  0.5530830000000 1.0
C      1  0.4215280000000  0.4629050000000  0.4450060000000 1.0
C      1  0.5854290000000  0.5291450000000  0.4594900000000 1.0
C      1  0.5721930000000  0.5610720000000  0.5313910000000 1.0
C      1  0.5523170000000  0.5371080000000  0.5715330000000 1.0
C      1  0.5302720000000  0.5714210000000  0.5484320000000 1.0
C      1  0.4319520000000  0.4403600000000  0.5358860000000 1.0
C      1  0.5741920000000  0.4367550000000  0.4507510000000 1.0
C      1  0.4299120000000  0.5549570000000  0.4642340000000 1.0
C      1  0.4498640000000  0.4636380000000  0.5730530000000 1.0
C      1  0.5521090000000  0.4683050000000  0.4254170000000 1.0
C      1  0.4554430000000  0.5354990000000  0.4270510000000 1.0
C      1  0.4737570000000  0.4236140000000  0.5552090000000 1.0
C      1  0.5275110000000  0.4297170000000  0.4456060000000 1.0
C      1  0.4707870000000  0.5735020000000  0.4500690000000 1.0
C      1  0.5509730000000  0.5793950000000  0.5315600000000 1.0
C      1  0.5314060000000  0.5545150000000  0.5705040000000 1.0
C      1  0.5708140000000  0.5388470000000  0.5511650000000 1.0
C      1  0.4569630000000  0.4282850000000  0.5337000000000 1.0
C      1  0.4468770000000  0.5763120000000  0.4661520000000 1.0
C      1  0.5500810000000  0.4260500000000  0.4612510000000 1.0
C      1  0.4690080000000  0.4403590000000  0.5766610000000 1.0
C      1  0.4732240000000  0.5573580000000  0.4278420000000 1.0
C      1  0.5280770000000  0.4509490000000  0.4281690000000 1.0
C      1  0.4303260000000  0.4639680000000  0.5539180000000 1.0
C      1  0.4321490000000  0.5365930000000  0.4433860000000 1.0
C      1  0.5714700000000  0.4644030000000  0.4446420000000 1.0
C      1  0.4464630000000  0.4720840000000  0.4890370000000 1.0
C      1  0.4614330000000  0.4909660000000  0.4460530000000 1.0
C      1  0.4813690000000  0.4477070000000  0.4648220000000 1.0
C      1  0.5473260000000  0.5299580000000  0.4909180000000 1.0
C      1  0.4509410000000  0.5232200000000  0.4986170000000 1.0
C      1  0.5525140000000  0.4702450000000  0.5232360000000 1.0
C      1  0.5367340000000  0.5140260000000  0.4413870000000 1.0
C      1  0.4705190000000  0.5088310000000  0.5496100000000 1.0
C      1  0.5217710000000  0.4990820000000  0.5524220000000 1.0
C      1  0.5065770000000  0.5437780000000  0.4709810000000 1.0
C      1  0.4988410000000  0.5412370000000  0.5208680000000 1.0
C      1  0.5132790000000  0.4477790000000  0.5360820000000 1.0
C      1  0.4703920000000  0.4543010000000  0.4919150000000 1.0
C      1  0.4857520000000  0.4719480000000  0.4491750000000 1.0
C      1  0.4485210000000  0.5007670000000  0.4745060000000 1.0
C      1  0.5176790000000  0.5360680000000  0.4957630000000 1.0
C      1  0.5308900000000  0.4498140000000  0.5158380000000 1.0
C      1  0.4676160000000  0.5498720000000  0.5102740000000 1.0
C      1  0.5138450000000  0.5336120000000  0.4462260000000 1.0
C      1  0.5128180000000  0.4698920000000  0.5576290000000 1.0
C      1  0.4987880000000  0.5212470000000  0.5470570000000 1.0
C      1  0.5497600000000  0.5068050000000  0.4685060000000 1.0
C      1  0.5476730000000  0.4962520000000  0.5351170000000 1.0
C      1  0.4528130000000  0.5049370000000  0.5247050000000 1.0
C      1  0.4998660000000  0.5205640000000  0.5952290000000 1.0
C      1  0.5175140000000  0.5990280000000  0.4953470000000 1.0
C      1  0.5976340000000  0.4916100000000  0.5274910000000 1.0
C      1  0.5151580000000  0.4740100000000  0.5971340000000 1.0
C      1  0.4816730000000  0.4671630000000  0.4001900000000 1.0
C      1  0.5183490000000  0.5331990000000  0.4023260000000 1.0
C      1  0.4741930000000  0.4067010000000  0.4931260000000 1.0
C      1  0.5211580000000  0.4091960000000  0.4984310000000 1.0
C      1  0.4896830000000  0.5965360000000  0.5065750000000 1.0
C      1  0.3999960000000  0.4983540000000  0.5115950000000 1.0
C      1  0.5891560000000  0.5061810000000  0.4752530000000 1.0
C      1  0.3974900000000  0.5051820000000  0.4724440000000 1.0
C      1  0.5206670000000  0.5018600000000  0.5959110000000 1.0
C      1  0.5933720000000  0.5119610000000  0.5023640000000 1.0
C      1  0.4879710000000  0.5885680000000  0.5333910000000 1.0
C      1  0.4724400000000  0.5125100000000  0.5956310000000 1.0
C      1  0.4839620000000  0.4976860000000  0.4037460000000 1.0
C      1  0.5108160000000  0.5068350000000  0.4034780000000 1.0
C      1  0.3969310000000  0.4782140000000  0.4862580000000 1.0
C      1  0.3986820000000  0.5246340000000  0.4949610000000 1.0
C      1  0.5903370000000  0.4621550000000  0.5159400000000 1.0
C      1  0.5197830000000  0.4023100000000  0.5255850000000 1.0
C      1  0.5149770000000  0.5926260000000  0.4669740000000 1.0
C      1  0.4997290000000  0.4061310000000  0.4811490000000 1.0
C      1  0.4290740000000  0.4363000000000  0.4945820000000 1.0
C      1  0.5622530000000  0.5814820000000  0.4867020000000 1.0
C      1  0.4090930000000  0.5599460000000  0.5103880000000 1.0
C      1  0.5677030000000  0.4123370000000  0.5091980000000 1.0
C      1  0.5841470000000  0.5273250000000  0.4314100000000 1.0
C      1  0.4231170000000  0.5157690000000  0.5586300000000 1.0
C      1  0.5248540000000  0.5761880000000  0.4217070000000 1.0
C      1  0.5276420000000  0.4236530000000  0.5702390000000 1.0
C      1  0.4087520000000  0.4864140000000  0.4377830000000 1.0
C      1  0.4761020000000  0.4260270000000  0.4318260000000 1.0
C      1  0.5675420000000  0.4912090000000  0.5760770000000 1.0
C      1  0.4835930000000  0.5632490000000  0.5750350000000 1.0
END
