TITL C-3289330-4660-330 -0.00389952180521688 125000 -1057.96897518523 0 0 199 (C1) n - 1
REM
REM in /nfs/bkarasulu/CARBON/AIRSS/Generating-Clusters/AIREBO/with-SteepDescent/Higher-Symm/SD-CG/HFTN-CG
REM
REM
REM
REM
REM
REM ./C.cell (b20cbc046b6831c77cfcea5457e17084)
REM
REM compiler GCC version 9.2.1 20190827 (Red Hat 9.2.1-1)
REM options -cpp -mtune=generic -march=x86-64 -g -O0 -fpre-include=/usr/include/finclude/math-vector-fortran.h
REM seed 1333008417 1725824138 -1829300101 -1087598912 1594833736 -1035642930 -555174686 1747631512 -1372888474 1523044733 1816635819 -823264103 -659922632 -808318821 -1625563335 676389779 -109435066 -1110201076 1097856415 -1086263523 177659521 -722077205 906433 -941502061 664813760 -1789354849 1297176655 -1351672591 -209660028 647603233 2139780235 -1798283966 937943456
REM
CELL 1.54180   50.00000   50.00000   50.00000   90.00000   90.00000   90.00000
LATT -1
SFAC C  
C      1  0.5091770000000  0.5793650000000  0.4206060000000 1.0
C      1  0.5906460000000  0.4299510000000  0.5315500000000 1.0
C      1  0.4211230000000  0.5156290000000  0.5868990000000 1.0
C      1  0.4836600000000  0.4152350000000  0.4169070000000 1.0
C      1  0.5156070000000  0.4171200000000  0.5816640000000 1.0
C      1  0.4782930000000  0.5726840000000  0.5901600000000 1.0
C      1  0.4248350000000  0.5779300000000  0.5278560000000 1.0
C      1  0.5745450000000  0.5856420000000  0.4754990000000 1.0
C      1  0.4138830000000  0.4228830000000  0.4827380000000 1.0
C      1  0.5783540000000  0.4967460000000  0.5718330000000 1.0
C      1  0.4217100000000  0.4909650000000  0.4187440000000 1.0
C      1  0.5856820000000  0.5229730000000  0.4130340000000 1.0
C      1  0.5299920000000  0.5974840000000  0.5778520000000 1.0
C      1  0.5730920000000  0.4237430000000  0.4652050000000 1.0
C      1  0.4403360000000  0.5013900000000  0.3962520000000 1.0
C      1  0.4857850000000  0.4029910000000  0.5784780000000 1.0
C      1  0.5161710000000  0.4121170000000  0.4267770000000 1.0
C      1  0.4798660000000  0.5668160000000  0.4087890000000 1.0
C      1  0.4221040000000  0.5836310000000  0.4864030000000 1.0
C      1  0.5876020000000  0.5828670000000  0.5237600000000 1.0
C      1  0.4054150000000  0.4291920000000  0.5150900000000 1.0
C      1  0.5894720000000  0.4897480000000  0.4172930000000 1.0
C      1  0.4179200000000  0.4823490000000  0.5909400000000 1.0
C      1  0.5636070000000  0.5249880000000  0.5838600000000 1.0
C      1  0.4484180000000  0.5629560000000  0.5878740000000 1.0
C      1  0.5745490000000  0.5779960000000  0.4468830000000 1.0
C      1  0.5800090000000  0.4665450000000  0.5599700000000 1.0
C      1  0.5445090000000  0.4318310000000  0.5845590000000 1.0
C      1  0.4556020000000  0.4249260000000  0.4336910000000 1.0
C      1  0.5283980000000  0.5617560000000  0.4075090000000 1.0
C      1  0.4302060000000  0.4142950000000  0.4536570000000 1.0
C      1  0.5717570000000  0.4214950000000  0.5532190000000 1.0
C      1  0.4320390000000  0.5720630000000  0.5599810000000 1.0
C      1  0.4190520000000  0.5482950000000  0.5809020000000 1.0
C      1  0.5920930000000  0.5396510000000  0.4333990000000 1.0
C      1  0.3904020000000  0.4809190000000  0.4098270000000 1.0
C      1  0.4502460000000  0.5552120000000  0.4192470000000 1.0
C      1  0.5620800000000  0.5891270000000  0.5297580000000 1.0
C      1  0.5772900000000  0.4605450000000  0.4297770000000 1.0
C      1  0.5392760000000  0.4277850000000  0.4263320000000 1.0
C      1  0.4631130000000  0.4161770000000  0.5854970000000 1.0
C      1  0.5423620000000  0.5723690000000  0.5855130000000 1.0
C      1  0.4215960000000  0.4152560000000  0.5388820000000 1.0
C      1  0.5669890000000  0.4330350000000  0.4383250000000 1.0
C      1  0.4320620000000  0.5833110000000  0.4555710000000 1.0
C      1  0.4306890000000  0.5578560000000  0.4391900000000 1.0
C      1  0.5627770000000  0.5562210000000  0.5726180000000 1.0
C      1  0.4147830000000  0.4644110000000  0.5711420000000 1.0
C      1  0.5800790000000  0.4718790000000  0.4834610000000 1.0
C      1  0.4768310000000  0.4889600000000  0.6006110000000 1.0
C      1  0.4797410000000  0.5829370000000  0.4828360000000 1.0
C      1  0.4176810000000  0.5185420000000  0.4754190000000 1.0
C      1  0.5842920000000  0.5130500000000  0.5062200000000 1.0
C      1  0.4228980000000  0.4851140000000  0.5196350000000 1.0
C      1  0.5134330000000  0.5092700000000  0.5886130000000 1.0
C      1  0.4864060000000  0.5189760000000  0.4049630000000 1.0
C      1  0.5294280000000  0.4886880000000  0.3997360000000 1.0
C      1  0.5033870000000  0.4171680000000  0.4768160000000 1.0
C      1  0.4729910000000  0.4067660000000  0.5289180000000 1.0
C      1  0.5146260000000  0.5986860000000  0.5279810000000 1.0
C      1  0.5897500000000  0.4807340000000  0.5153410000000 1.0
C      1  0.4834810000000  0.4652310000000  0.4251150000000 1.0
C      1  0.4855130000000  0.5963900000000  0.5122660000000 1.0
C      1  0.4185950000000  0.5169310000000  0.5084190000000 1.0
C      1  0.5958880000000  0.5372550000000  0.4853370000000 1.0
C      1  0.4360650000000  0.4942510000000  0.4803300000000 1.0
C      1  0.5134660000000  0.5082010000000  0.4227260000000 1.0
C      1  0.4824260000000  0.5220940000000  0.5944470000000 1.0
C      1  0.5256030000000  0.4783880000000  0.5812080000000 1.0
C      1  0.5332630000000  0.3940000000000  0.5283740000000 1.0
C      1  0.4780470000000  0.3984570000000  0.4693840000000 1.0
C      1  0.5260640000000  0.5848520000000  0.4665160000000 1.0
C      1  0.4335220000000  0.6076040000000  0.5025280000000 1.0
C      1  0.6052820000000  0.5022140000000  0.4447730000000 1.0
C      1  0.4823160000000  0.4580800000000  0.5943960000000 1.0
C      1  0.5541400000000  0.4037820000000  0.4798120000000 1.0
C      1  0.4579040000000  0.3897770000000  0.5097350000000 1.0
C      1  0.5428790000000  0.6017450000000  0.5105100000000 1.0
C      1  0.3936130000000  0.5126540000000  0.4573620000000 1.0
C      1  0.5902000000000  0.5320800000000  0.5337700000000 1.0
C      1  0.3983970000000  0.4865620000000  0.5421610000000 1.0
C      1  0.5226210000000  0.5524010000000  0.5927930000000 1.0
C      1  0.4913790000000  0.5453120000000  0.3883680000000 1.0
C      1  0.5238040000000  0.4581370000000  0.4054190000000 1.0
C      1  0.4532080000000  0.5980220000000  0.5227980000000 1.0
C      1  0.5917370000000  0.5010020000000  0.5434600000000 1.0
C      1  0.4981250000000  0.4427670000000  0.4086560000000 1.0
C      1  0.5459520000000  0.3894790000000  0.5031270000000 1.0
C      1  0.4389620000000  0.4062620000000  0.4972530000000 1.0
C      1  0.5494100000000  0.5956800000000  0.4841910000000 1.0
C      1  0.4000740000000  0.5053990000000  0.5620880000000 1.0
C      1  0.6136970000000  0.5216890000000  0.4617910000000 1.0
C      1  0.3934210000000  0.5010860000000  0.4336640000000 1.0
C      1  0.5174370000000  0.5526700000000  0.3823680000000 1.0
C      1  0.4959040000000  0.5524000000000  0.5993660000000 1.0
C      1  0.5093230000000  0.4499380000000  0.5903040000000 1.0
C      1  0.5100940000000  0.5193420000000  0.5354080000000 1.0
C      1  0.5157160000000  0.5422180000000  0.5136320000000 1.0
C      1  0.5503490000000  0.5106830000000  0.5065970000000 1.0
C      1  0.4814200000000  0.4910260000000  0.5669750000000 1.0
C      1  0.5212140000000  0.4700900000000  0.4696150000000 1.0
C      1  0.4824190000000  0.5063040000000  0.4602870000000 1.0
C      1  0.4818210000000  0.4382300000000  0.5177860000000 1.0
C      1  0.5063530000000  0.4479190000000  0.4886190000000 1.0
C      1  0.4836380000000  0.5492430000000  0.4853780000000 1.0
C      1  0.4566630000000  0.4865010000000  0.5233990000000 1.0
C      1  0.5499970000000  0.4703520000000  0.4848760000000 1.0
C      1  0.4744680000000  0.5208780000000  0.4899650000000 1.0
C      1  0.5145570000000  0.5164610000000  0.4557060000000 1.0
C      1  0.5149440000000  0.5573070000000  0.4830590000000 1.0
C      1  0.5422240000000  0.5205480000000  0.4750880000000 1.0
C      1  0.4998120000000  0.4810430000000  0.4455590000000 1.0
C      1  0.5110490000000  0.4912910000000  0.5531790000000 1.0
C      1  0.4798370000000  0.5146000000000  0.5444480000000 1.0
C      1  0.4736700000000  0.4570720000000  0.4906540000000 1.0
C      1  0.5111490000000  0.4587090000000  0.5174520000000 1.0
C      1  0.4888970000000  0.5621940000000  0.5157630000000 1.0
C      1  0.4640990000000  0.4897770000000  0.4920480000000 1.0
C      1  0.5363150000000  0.4809060000000  0.5114510000000 1.0
C      1  0.4520540000000  0.5193900000000  0.5160850000000 1.0
C      1  0.5350230000000  0.5343430000000  0.4256070000000 1.0
C      1  0.5408570000000  0.4217390000000  0.5390350000000 1.0
C      1  0.4182450000000  0.5319810000000  0.5510810000000 1.0
C      1  0.4569780000000  0.4568890000000  0.4377400000000 1.0
C      1  0.5393990000000  0.4524180000000  0.5641360000000 1.0
C      1  0.4654130000000  0.5395360000000  0.5720500000000 1.0
C      1  0.4613620000000  0.5722450000000  0.5427680000000 1.0
C      1  0.5473360000000  0.5623490000000  0.4576980000000 1.0
C      1  0.4559450000000  0.4239380000000  0.4736760000000 1.0
C      1  0.5657400000000  0.4652540000000  0.5337850000000 1.0
C      1  0.4245820000000  0.4686460000000  0.4687800000000 1.0
C      1  0.5760210000000  0.5348060000000  0.4598000000000 1.0
C      1  0.5330380000000  0.5296700000000  0.5697300000000 1.0
C      1  0.5333240000000  0.4267020000000  0.4682760000000 1.0
C      1  0.4372780000000  0.5366980000000  0.4614940000000 1.0
C      1  0.4615280000000  0.4461220000000  0.5750130000000 1.0
C      1  0.5376650000000  0.4607680000000  0.4344460000000 1.0
C      1  0.4694620000000  0.5303070000000  0.4273700000000 1.0
C      1  0.4635340000000  0.5699390000000  0.4582080000000 1.0
C      1  0.5333590000000  0.5713790000000  0.5344700000000 1.0
C      1  0.4509380000000  0.4284380000000  0.5408410000000 1.0
C      1  0.5854310000000  0.4808220000000  0.4558270000000 1.0
C      1  0.4316200000000  0.4645500000000  0.5453130000000 1.0
C      1  0.5627410000000  0.5445210000000  0.5424680000000 1.0
C      1  0.5149680000000  0.4414860000000  0.5431650000000 1.0
C      1  0.4561250000000  0.5531420000000  0.5151090000000 1.0
C      1  0.5531880000000  0.5151350000000  0.4456130000000 1.0
C      1  0.4863860000000  0.5492850000000  0.5471230000000 1.0
C      1  0.5160980000000  0.5499260000000  0.4498860000000 1.0
C      1  0.4790080000000  0.4450570000000  0.4592940000000 1.0
C      1  0.5596850000000  0.4376630000000  0.5190740000000 1.0
C      1  0.4420410000000  0.4503150000000  0.4900150000000 1.0
C      1  0.5574920000000  0.5475610000000  0.4853590000000 1.0
C      1  0.4391500000000  0.4815920000000  0.4425370000000 1.0
C      1  0.5361520000000  0.4767830000000  0.5427340000000 1.0
C      1  0.4480600000000  0.5249970000000  0.5493430000000 1.0
C      1  0.5115310000000  0.4448480000000  0.4492710000000 1.0
C      1  0.4451490000000  0.5599650000000  0.4850180000000 1.0
C      1  0.5415990000000  0.5200000000000  0.5382470000000 1.0
C      1  0.4838710000000  0.5561230000000  0.4408160000000 1.0
C      1  0.5166540000000  0.5543350000000  0.5533690000000 1.0
C      1  0.4818640000000  0.4389600000000  0.5503450000000 1.0
C      1  0.5475590000000  0.4408920000000  0.4924450000000 1.0
C      1  0.4335450000000  0.4466250000000  0.5179700000000 1.0
C      1  0.5467630000000  0.5504230000000  0.5129850000000 1.0
C      1  0.4613590000000  0.4726310000000  0.5536620000000 1.0
C      1  0.5570190000000  0.4857990000000  0.4402580000000 1.0
C      1  0.4541230000000  0.5104830000000  0.4477540000000 1.0
C      1  0.4870760000000  0.3920270000000  0.5507050000000 1.0
C      1  0.4001600000000  0.5709590000000  0.5054850000000 1.0
C      1  0.5597920000000  0.4952200000000  0.4015770000000 1.0
C      1  0.5078600000000  0.5973760000000  0.5590800000000 1.0
C      1  0.4859230000000  0.6027470000000  0.4570190000000 1.0
C      1  0.5137440000000  0.3958590000000  0.4524080000000 1.0
C      1  0.5885380000000  0.4402570000000  0.4823790000000 1.0
C      1  0.3972740000000  0.4629160000000  0.5167730000000 1.0
C      1  0.6052010000000  0.5564220000000  0.5236310000000 1.0
C      1  0.4671960000000  0.4986910000000  0.3931260000000 1.0
C      1  0.5598520000000  0.5098680000000  0.6140860000000 1.0
C      1  0.4431480000000  0.4878690000000  0.6051270000000 1.0
C      1  0.4844850000000  0.3911210000000  0.4387580000000 1.0
C      1  0.4126630000000  0.5463690000000  0.5244040000000 1.0
C      1  0.5546420000000  0.4875650000000  0.5936010000000 1.0
C      1  0.5086260000000  0.5938450000000  0.4441630000000 1.0
C      1  0.4831290000000  0.5857750000000  0.5651360000000 1.0
C      1  0.5169150000000  0.3946670000000  0.5553260000000 1.0
C      1  0.5985630000000  0.4483470000000  0.5098790000000 1.0
C      1  0.4025370000000  0.4533070000000  0.4845370000000 1.0
C      1  0.5935580000000  0.5688190000000  0.4938830000000 1.0
C      1  0.4502460000000  0.5185240000000  0.6048440000000 1.0
C      1  0.5580460000000  0.5264800000000  0.4018550000000 1.0
C      1  0.4773460000000  0.4737780000000  0.3949680000000 1.0
C      1  0.6159780000000  0.5013410000000  0.5022440000000 1.0
C      1  0.4880990000000  0.4897540000000  0.6287990000000 1.0
C      1  0.4866530000000  0.6278140000000  0.5024270000000 1.0
C      1  0.3851840000000  0.5106290000000  0.5086820000000 1.0
C      1  0.5208690000000  0.4950570000000  0.3731290000000 1.0
C      1  0.4726980000000  0.3768360000000  0.4905870000000 1.0
C      1  0.5129170000000  0.4968120000000  0.4834110000000 1.0
END
