TITL C-3289325-7307-434 -0.00275604635591918 125000 -544.728274010579 0 0 102 (C1) n - 1
REM
REM in /nfs/bkarasulu/CARBON/AIRSS/Generating-Clusters/AIREBO/with-SteepDescent/Higher-Symm/SD-CG/HFTN-CG
REM
REM
REM
REM
REM
REM ./C.cell (b20cbc046b6831c77cfcea5457e17084)
REM
REM compiler GCC version 9.2.1 20190827 (Red Hat 9.2.1-1)
REM options -cpp -mtune=generic -march=x86-64 -g -O0 -fpre-include=/usr/include/finclude/math-vector-fortran.h
REM seed -1476450195 1955107264 -1630523176 559729106 -1177265399 2023102128 -1393245515 1256667401 -1648581824 544682020 499918892 -1791168585 -1125396209 -1346953320 -1255896578 -1813024388 1807517824 384935116 -110654239 -267206782 1232389951 -188874889 -774735863 1529889643 366559707 -1384348810 -506188234 290472618 -379049433 -135906764 1796705563 -2007741908 1073289436
REM
CELL 1.54180   50.00000   50.00000   50.00000   90.00000   90.00000   90.00000
LATT -1
SFAC C  
C      1  0.4820870000000  0.4752750000000  0.4117100000000 1.0
C      1  0.4787680000000  0.5081870000000  0.4196030000000 1.0
C      1  0.5027620000000  0.5301250000000  0.4096070000000 1.0
C      1  0.5264710000000  0.5076870000000  0.4191600000000 1.0
C      1  0.5133290000000  0.4789280000000  0.4233030000000 1.0
C      1  0.4811230000000  0.5239620000000  0.5871610000000 1.0
C      1  0.4769750000000  0.4925630000000  0.5776530000000 1.0
C      1  0.5032820000000  0.4744820000000  0.5807190000000 1.0
C      1  0.5305290000000  0.4917320000000  0.5914970000000 1.0
C      1  0.5144040000000  0.5195570000000  0.5804330000000 1.0
C      1  0.5338050000000  0.4814490000000  0.4890960000000 1.0
C      1  0.5018660000000  0.4757460000000  0.4822210000000 1.0
C      1  0.4594490000000  0.4976230000000  0.4878160000000 1.0
C      1  0.4828480000000  0.5353460000000  0.4905900000000 1.0
C      1  0.5181110000000  0.5204690000000  0.4794850000000 1.0
C      1  0.5351560000000  0.5183110000000  0.5107230000000 1.0
C      1  0.5018420000000  0.5228000000000  0.5158670000000 1.0
C      1  0.4644870000000  0.5098200000000  0.5151960000000 1.0
C      1  0.4834630000000  0.4611330000000  0.5068010000000 1.0
C      1  0.5188630000000  0.4779400000000  0.5182320000000 1.0
C      1  0.4495480000000  0.5125340000000  0.5799830000000 1.0
C      1  0.4994880000000  0.5482350000000  0.5724110000000 1.0
C      1  0.5480830000000  0.5168560000000  0.5765970000000 1.0
C      1  0.5344560000000  0.4606470000000  0.5789540000000 1.0
C      1  0.4740500000000  0.4587610000000  0.5733050000000 1.0
C      1  0.4521350000000  0.4871020000000  0.4224180000000 1.0
C      1  0.4991240000000  0.4483640000000  0.4243900000000 1.0
C      1  0.5474770000000  0.4821040000000  0.4245920000000 1.0
C      1  0.5326790000000  0.5403690000000  0.4221010000000 1.0
C      1  0.4743560000000  0.5415630000000  0.4244690000000 1.0
C      1  0.4130910000000  0.5207620000000  0.5023130000000 1.0
C      1  0.4977220000000  0.5872620000000  0.5021600000000 1.0
C      1  0.5830090000000  0.5350700000000  0.5043610000000 1.0
C      1  0.5523660000000  0.4367210000000  0.5033680000000 1.0
C      1  0.4493500000000  0.4245080000000  0.5041840000000 1.0
C      1  0.4122820000000  0.4795230000000  0.4925140000000 1.0
C      1  0.4958810000000  0.4088590000000  0.4965700000000 1.0
C      1  0.5836900000000  0.4666720000000  0.4944650000000 1.0
C      1  0.5550880000000  0.5665790000000  0.4942590000000 1.0
C      1  0.4500890000000  0.5742610000000  0.4950520000000 1.0
C      1  0.5523750000000  0.4799970000000  0.5392870000000 1.0
C      1  0.4991560000000  0.4391320000000  0.5420360000000 1.0
C      1  0.4476530000000  0.4834360000000  0.5396710000000 1.0
C      1  0.4660670000000  0.5473010000000  0.5395760000000 1.0
C      1  0.5339540000000  0.5451180000000  0.5402740000000 1.0
C      1  0.5529530000000  0.5219270000000  0.4605250000000 1.0
C      1  0.4987740000000  0.5600130000000  0.4568690000000 1.0
C      1  0.4454580000000  0.5178570000000  0.4570070000000 1.0
C      1  0.4678920000000  0.4540810000000  0.4613550000000 1.0
C      1  0.5356670000000  0.4562070000000  0.4584090000000 1.0
C      1  0.5313020000000  0.5479630000000  0.4945380000000 1.0
C      1  0.5639500000000  0.4880720000000  0.4927610000000 1.0
C      1  0.5031330000000  0.4370130000000  0.5020730000000 1.0
C      1  0.4410310000000  0.4735390000000  0.4908370000000 1.0
C      1  0.4551780000000  0.5455690000000  0.4999770000000 1.0
C      1  0.5270970000000  0.4471970000000  0.5083460000000 1.0
C      1  0.5644290000000  0.5126460000000  0.5021880000000 1.0
C      1  0.5042480000000  0.5591160000000  0.4963730000000 1.0
C      1  0.4378300000000  0.5292660000000  0.5150450000000 1.0
C      1  0.4542500000000  0.4533670000000  0.5006360000000 1.0
C      1  0.5727070000000  0.4732880000000  0.4463350000000 1.0
C      1  0.4994840000000  0.4223440000000  0.4473030000000 1.0
C      1  0.4254220000000  0.4804620000000  0.4432610000000 1.0
C      1  0.4573690000000  0.5648540000000  0.4436060000000 1.0
C      1  0.5495840000000  0.5627820000000  0.4423290000000 1.0
C      1  0.5723780000000  0.5273720000000  0.5542200000000 1.0
C      1  0.5002220000000  0.5763790000000  0.5523400000000 1.0
C      1  0.4248010000000  0.5196730000000  0.5567330000000 1.0
C      1  0.4565840000000  0.4361630000000  0.5536900000000 1.0
C      1  0.5511650000000  0.4397000000000  0.5569410000000 1.0
C      1  0.4604490000000  0.5822840000000  0.4686700000000 1.0
C      1  0.5673820000000  0.5673320000000  0.4657290000000 1.0
C      1  0.5818160000000  0.4545290000000  0.4665280000000 1.0
C      1  0.4842960000000  0.4091790000000  0.4689790000000 1.0
C      1  0.4067480000000  0.4897380000000  0.4633070000000 1.0
C      1  0.4592870000000  0.4164500000000  0.5310430000000 1.0
C      1  0.5672380000000  0.4353230000000  0.5319140000000 1.0
C      1  0.5803940000000  0.5460040000000  0.5330690000000 1.0
C      1  0.4856110000000  0.5889110000000  0.5288420000000 1.0
C      1  0.4083170000000  0.5107420000000  0.5344690000000 1.0
C      1  0.5260030000000  0.5420520000000  0.4553990000000 1.0
C      1  0.5447940000000  0.4889850000000  0.4578000000000 1.0
C      1  0.5016980000000  0.4546440000000  0.4577150000000 1.0
C      1  0.4564730000000  0.4856760000000  0.4561180000000 1.0
C      1  0.4726680000000  0.5382490000000  0.4582750000000 1.0
C      1  0.5259110000000  0.4597150000000  0.5460580000000 1.0
C      1  0.5437900000000  0.5126730000000  0.5431220000000 1.0
C      1  0.4999950000000  0.5452900000000  0.5385370000000 1.0
C      1  0.4570690000000  0.5153120000000  0.5469370000000 1.0
C      1  0.4738740000000  0.4617380000000  0.5394230000000 1.0
C      1  0.5742870000000  0.5384030000000  0.4734790000000 1.0
C      1  0.5564270000000  0.4401220000000  0.4744390000000 1.0
C      1  0.4604670000000  0.4264870000000  0.4721100000000 1.0
C      1  0.4184200000000  0.5160130000000  0.4737920000000 1.0
C      1  0.4899290000000  0.5857640000000  0.4707670000000 1.0
C      1  0.5725940000000  0.4645000000000  0.5238030000000 1.0
C      1  0.5547510000000  0.5600180000000  0.5245820000000 1.0
C      1  0.4599310000000  0.5743210000000  0.5270060000000 1.0
C      1  0.4216510000000  0.4854060000000  0.5236150000000 1.0
C      1  0.4888360000000  0.4124090000000  0.5296430000000 1.0
C      1  0.4913810000000  0.5041780000000  0.4799650000000 1.0
C      1  0.4911120000000  0.4922750000000  0.5181110000000 1.0
END
