TITL C-3289323-3850-775 -0.00123970560123493 125000 -255.599642334261 0 0 46 (C1) n - 1
REM
REM in /nfs/bkarasulu/CARBON/AIRSS/Generating-Clusters/AIREBO/with-SteepDescent/Higher-Symm/SD-CG/HFTN-CG
REM
REM
REM
REM
REM
REM ./C.cell (b20cbc046b6831c77cfcea5457e17084)
REM
REM compiler GCC version 9.2.1 20190827 (Red Hat 9.2.1-1)
REM options -cpp -mtune=generic -march=x86-64 -g -O0 -fpre-include=/usr/include/finclude/math-vector-fortran.h
REM seed 1875770841 -1775106344 -1618201483 1894038010 2691368 -958934231 1316688745 -1799426352 208270776 -1679867549 -1415814890 1512267668 -611714877 1205243808 1934909006 1728617253 -1197166516 1473204372 1180881123 950515711 -1934993107 1762050942 424751098 -1584184193 -644146886 1785761435 797886000 1501653130 -1579001171 1128603576 1875587059 2059651865 1641226453
REM
CELL 1.54180   50.00000   50.00000   50.00000   90.00000   90.00000   90.00000
LATT -1
SFAC C  
C      1  0.5033180000000  0.4910090000000  0.4674700000000 1.0
C      1  0.4903190000000  0.5194420000000  0.4666090000000 1.0
C      1  0.4963350000000  0.5385950000000  0.4913140000000 1.0
C      1  0.5049950000000  0.5255200000000  0.5179740000000 1.0
C      1  0.4899570000000  0.4984990000000  0.5268520000000 1.0
C      1  0.5008990000000  0.4737940000000  0.5167300000000 1.0
C      1  0.4927010000000  0.4662230000000  0.4880430000000 1.0
C      1  0.4617620000000  0.4696910000000  0.5017220000000 1.0
C      1  0.4600900000000  0.4709070000000  0.4649990000000 1.0
C      1  0.4626210000000  0.5191320000000  0.4828690000000 1.0
C      1  0.4642890000000  0.5351690000000  0.5080400000000 1.0
C      1  0.4699700000000  0.5319250000000  0.5357410000000 1.0
C      1  0.4614170000000  0.5004020000000  0.5452330000000 1.0
C      1  0.4626450000000  0.4698730000000  0.5312680000000 1.0
C      1  0.5841780000000  0.5320910000000  0.4965540000000 1.0
C      1  0.5749950000000  0.5225480000000  0.5242850000000 1.0
C      1  0.5689440000000  0.4960180000000  0.5309360000000 1.0
C      1  0.5768690000000  0.4714570000000  0.5191980000000 1.0
C      1  0.5719220000000  0.4689980000000  0.4884540000000 1.0
C      1  0.5647170000000  0.4902700000000  0.4728020000000 1.0
C      1  0.5771030000000  0.5177030000000  0.4724150000000 1.0
C      1  0.4916780000000  0.5061390000000  0.5599420000000 1.0
C      1  0.4783560000000  0.4515570000000  0.5437020000000 1.0
C      1  0.5085050000000  0.4396140000000  0.4826880000000 1.0
C      1  0.4830100000000  0.4734800000000  0.4501200000000 1.0
C      1  0.5029370000000  0.5327360000000  0.4413530000000 1.0
C      1  0.5082950000000  0.5652250000000  0.4845740000000 1.0
C      1  0.4995300000000  0.5463550000000  0.5438230000000 1.0
C      1  0.5281560000000  0.4625400000000  0.5294880000000 1.0
C      1  0.5501220000000  0.4523370000000  0.5085340000000 1.0
C      1  0.5323760000000  0.4955150000000  0.4730080000000 1.0
C      1  0.5461050000000  0.5238780000000  0.4622880000000 1.0
C      1  0.5526300000000  0.5469950000000  0.4859590000000 1.0
C      1  0.5532720000000  0.5438180000000  0.5181470000000 1.0
C      1  0.5389560000000  0.4922500000000  0.5377930000000 1.0
C      1  0.5302340000000  0.5521010000000  0.5334700000000 1.0
C      1  0.5208790000000  0.5139690000000  0.5457940000000 1.0
C      1  0.5052430000000  0.4477500000000  0.5467320000000 1.0
C      1  0.5313050000000  0.4336340000000  0.4916820000000 1.0
C      1  0.4888030000000  0.4654820000000  0.4247560000000 1.0
C      1  0.5282190000000  0.5336210000000  0.4391160000000 1.0
C      1  0.5328550000000  0.5694020000000  0.4802720000000 1.0
C      1  0.4080390000000  0.4582380000000  0.4896580000000 1.0
C      1  0.4313700000000  0.4707560000000  0.4886390000000 1.0
C      1  0.5398950000000  0.4906890000000  0.5040100000000 1.0
C      1  0.4468870000000  0.4975400000000  0.4773130000000 1.0
END
