TITL C-3289328-6581-698 -0.00368009544431244 125000 -568.756450867779 0 0 106 (C1) n - 1
REM
REM in /nfs/bkarasulu/CARBON/AIRSS/Generating-Clusters/AIREBO/with-SteepDescent/Higher-Symm/SD-CG/HFTN-CG
REM
REM
REM
REM
REM
REM ./C.cell (b20cbc046b6831c77cfcea5457e17084)
REM
REM compiler GCC version 9.2.1 20190827 (Red Hat 9.2.1-1)
REM options -cpp -mtune=generic -march=x86-64 -g -O0 -fpre-include=/usr/include/finclude/math-vector-fortran.h
REM seed 1231263828 590761748 1678830156 -485589641 -182228707 1390559499 -1535966107 -311629100 -1834924183 -1692919494 -1701644159 -1912695689 -158220770 1981951795 693746929 -360164230 1089625167 -300511046 426960831 -1707394863 824420827 -897573244 -266833410 -540534194 -873597655 919730417 444225632 2101977674 324033047 1928597474 2108032246 1463918207 84138886
REM
CELL 1.54180   50.00000   50.00000   50.00000   90.00000   90.00000   90.00000
LATT -1
SFAC C  
C      1  0.5589460000000  0.4704200000000  0.4573090000000 1.0
C      1  0.5726280000000  0.4472850000000  0.5392350000000 1.0
C      1  0.5555920000000  0.4876060000000  0.5069230000000 1.0
C      1  0.4541030000000  0.5747310000000  0.5179580000000 1.0
C      1  0.5289970000000  0.5754750000000  0.5447130000000 1.0
C      1  0.4954590000000  0.5200070000000  0.5767680000000 1.0
C      1  0.4340840000000  0.5436010000000  0.4339530000000 1.0
C      1  0.5306490000000  0.4546960000000  0.5650170000000 1.0
C      1  0.5219330000000  0.5597050000000  0.4746870000000 1.0
C      1  0.4517200000000  0.5165470000000  0.5520870000000 1.0
C      1  0.5122050000000  0.5129410000000  0.4094630000000 1.0
C      1  0.5270790000000  0.4869300000000  0.6051300000000 1.0
C      1  0.4257930000000  0.5070500000000  0.5034340000000 1.0
C      1  0.5843590000000  0.4979550000000  0.5803690000000 1.0
C      1  0.5309140000000  0.4866270000000  0.4211010000000 1.0
C      1  0.4640280000000  0.5415260000000  0.4483390000000 1.0
C      1  0.4989830000000  0.4866730000000  0.3938860000000 1.0
C      1  0.4984030000000  0.4799180000000  0.4272130000000 1.0
C      1  0.5088840000000  0.4610320000000  0.5394820000000 1.0
C      1  0.4765520000000  0.4791280000000  0.4869890000000 1.0
C      1  0.5287500000000  0.5064620000000  0.4664390000000 1.0
C      1  0.5198070000000  0.4465000000000  0.5040750000000 1.0
C      1  0.4480930000000  0.4711250000000  0.5576440000000 1.0
C      1  0.4879570000000  0.5778160000000  0.5189440000000 1.0
C      1  0.4370620000000  0.4409170000000  0.5183910000000 1.0
C      1  0.4266370000000  0.4781190000000  0.5105830000000 1.0
C      1  0.5373240000000  0.5851330000000  0.5010570000000 1.0
C      1  0.4844710000000  0.5307410000000  0.4159570000000 1.0
C      1  0.4472570000000  0.5573190000000  0.4900680000000 1.0
C      1  0.4999740000000  0.5332240000000  0.5411780000000 1.0
C      1  0.4869460000000  0.4279170000000  0.4923780000000 1.0
C      1  0.5605690000000  0.5188740000000  0.4456300000000 1.0
C      1  0.5064600000000  0.5292410000000  0.6028570000000 1.0
C      1  0.5500600000000  0.5569650000000  0.4889850000000 1.0
C      1  0.5173810000000  0.5516720000000  0.5871900000000 1.0
C      1  0.5587430000000  0.5411450000000  0.5697260000000 1.0
C      1  0.5964710000000  0.4946650000000  0.4797330000000 1.0
C      1  0.5700760000000  0.4777890000000  0.5334360000000 1.0
C      1  0.5242120000000  0.5002030000000  0.5107350000000 1.0
C      1  0.5602570000000  0.4494230000000  0.5667090000000 1.0
C      1  0.4081010000000  0.5118890000000  0.4785000000000 1.0
C      1  0.4588700000000  0.5062280000000  0.4974630000000 1.0
C      1  0.4262270000000  0.4952680000000  0.5467020000000 1.0
C      1  0.4818870000000  0.5519150000000  0.4715490000000 1.0
C      1  0.4984700000000  0.5217170000000  0.4456080000000 1.0
C      1  0.5732910000000  0.4779050000000  0.4804860000000 1.0
C      1  0.4757820000000  0.5641370000000  0.5476020000000 1.0
C      1  0.4469370000000  0.4481240000000  0.4455760000000 1.0
C      1  0.4894220000000  0.4913480000000  0.4579550000000 1.0
C      1  0.4717200000000  0.4735470000000  0.4084360000000 1.0
C      1  0.4606490000000  0.4968640000000  0.5265740000000 1.0
C      1  0.5189280000000  0.5029090000000  0.5590340000000 1.0
C      1  0.4748000000000  0.4536200000000  0.4645440000000 1.0
C      1  0.5089900000000  0.6076210000000  0.4790740000000 1.0
C      1  0.5281890000000  0.5456870000000  0.5555120000000 1.0
C      1  0.5301350000000  0.5231550000000  0.4367680000000 1.0
C      1  0.5065410000000  0.5296270000000  0.4776780000000 1.0
C      1  0.5370570000000  0.5195900000000  0.5355550000000 1.0
C      1  0.4724390000000  0.5351010000000  0.5596980000000 1.0
C      1  0.4894200000000  0.5010360000000  0.5442040000000 1.0
C      1  0.5714110000000  0.5092200000000  0.5370110000000 1.0
C      1  0.5162520000000  0.5084280000000  0.6186610000000 1.0
C      1  0.5841410000000  0.5262950000000  0.5140320000000 1.0
C      1  0.5781350000000  0.4734770000000  0.5687980000000 1.0
C      1  0.5008590000000  0.5249160000000  0.5107680000000 1.0
C      1  0.5043280000000  0.4525230000000  0.4765820000000 1.0
C      1  0.4298320000000  0.5534970000000  0.5258670000000 1.0
C      1  0.5520860000000  0.5113430000000  0.4839850000000 1.0
C      1  0.5197270000000  0.4764850000000  0.4621840000000 1.0
C      1  0.4406590000000  0.4372010000000  0.4765520000000 1.0
C      1  0.4478340000000  0.4624390000000  0.4943030000000 1.0
C      1  0.4189380000000  0.5258830000000  0.4588500000000 1.0
C      1  0.5561520000000  0.5383540000000  0.5145850000000 1.0
C      1  0.5159000000000  0.4292710000000  0.5493840000000 1.0
C      1  0.4220470000000  0.4517530000000  0.4021310000000 1.0
C      1  0.5697650000000  0.5359590000000  0.4709130000000 1.0
C      1  0.5251960000000  0.4806270000000  0.5790320000000 1.0
C      1  0.4568490000000  0.4176920000000  0.4905850000000 1.0
C      1  0.4712500000000  0.5335350000000  0.4959840000000 1.0
C      1  0.4962240000000  0.5792260000000  0.4858610000000 1.0
C      1  0.5385430000000  0.4488770000000  0.4563010000000 1.0
C      1  0.5076620000000  0.5723000000000  0.4475770000000 1.0
C      1  0.5319970000000  0.4302300000000  0.5222030000000 1.0
C      1  0.5265790000000  0.4240740000000  0.4559020000000 1.0
C      1  0.4892260000000  0.5584230000000  0.4329130000000 1.0
C      1  0.5741670000000  0.5194210000000  0.5653270000000 1.0
C      1  0.4220550000000  0.4625170000000  0.5385780000000 1.0
C      1  0.4491270000000  0.4947620000000  0.4211940000000 1.0
C      1  0.4480190000000  0.4092170000000  0.5179030000000 1.0
C      1  0.4612750000000  0.5078730000000  0.4484140000000 1.0
C      1  0.5918300000000  0.5214890000000  0.4877510000000 1.0
C      1  0.5531420000000  0.4905490000000  0.4382920000000 1.0
C      1  0.5096130000000  0.4130080000000  0.4742520000000 1.0
C      1  0.4762140000000  0.4691390000000  0.5386300000000 1.0
C      1  0.4693020000000  0.4234360000000  0.4523930000000 1.0
C      1  0.4632020000000  0.5871280000000  0.4876340000000 1.0
C      1  0.4714220000000  0.4128250000000  0.5376510000000 1.0
C      1  0.5024890000000  0.4753070000000  0.5091980000000 1.0
C      1  0.4305870000000  0.5532300000000  0.4663790000000 1.0
C      1  0.4433080000000  0.4623580000000  0.4206740000000 1.0
C      1  0.5598810000000  0.4280940000000  0.5234180000000 1.0
C      1  0.4281250000000  0.5252500000000  0.5299100000000 1.0
C      1  0.4710610000000  0.4415120000000  0.5193990000000 1.0
C      1  0.4539730000000  0.5250990000000  0.4135320000000 1.0
C      1  0.5189900000000  0.5835550000000  0.5211030000000 1.0
C      1  0.4929570000000  0.4098090000000  0.5531170000000 1.0
END
