TITL C-3289333-7213-640 0.000534889522187332 125000 -225.344864116488 0 0 41 (C1) n - 1
REM
REM in /nfs/bkarasulu/CARBON/AIRSS/Generating-Clusters/AIREBO/with-SteepDescent/Higher-Symm/SD-CG/HFTN-CG
REM
REM
REM
REM
REM
REM ./C.cell (b20cbc046b6831c77cfcea5457e17084)
REM
REM compiler GCC version 9.2.1 20190827 (Red Hat 9.2.1-1)
REM options -cpp -mtune=generic -march=x86-64 -g -O0 -fpre-include=/usr/include/finclude/math-vector-fortran.h
REM seed -345169766 1541411207 273843565 -1847222154 -1254581823 -1392252949 1651863798 -1290014463 135406647 -2004806265 474736937 -772563622 1418939299 -1337153263 1718128569 375707141 -546103662 -812361583 1716864196 -789948559 657986799 -386585534 1168213316 821486286 809444285 -1721597981 1010917224 -1868323873 -497976415 -552802104 419041833 1659431817 1988349234
REM
CELL 1.54180   50.00000   50.00000   50.00000   90.00000   90.00000   90.00000
LATT -1
SFAC C  
C      1  0.4387430000000  0.5421280000000  0.5086270000000 1.0
C      1  0.5641330000000  0.4529460000000  0.5008930000000 1.0
C      1  0.5712480000000  0.5423910000000  0.4851170000000 1.0
C      1  0.4482030000000  0.4597090000000  0.4978620000000 1.0
C      1  0.5424860000000  0.4345290000000  0.5121270000000 1.0
C      1  0.4613190000000  0.5581440000000  0.5100620000000 1.0
C      1  0.5543670000000  0.5681690000000  0.4807330000000 1.0
C      1  0.4679410000000  0.4403150000000  0.4976240000000 1.0
C      1  0.4672870000000  0.5021630000000  0.5260050000000 1.0
C      1  0.5155840000000  0.4955830000000  0.5362530000000 1.0
C      1  0.5331750000000  0.4950740000000  0.4807950000000 1.0
C      1  0.4801500000000  0.4934280000000  0.4759180000000 1.0
C      1  0.5070150000000  0.4692870000000  0.5346620000000 1.0
C      1  0.4953570000000  0.5180440000000  0.5205960000000 1.0
C      1  0.5028340000000  0.5390620000000  0.4806710000000 1.0
C      1  0.4928830000000  0.4666920000000  0.4680840000000 1.0
C      1  0.5319810000000  0.5461480000000  0.4809970000000 1.0
C      1  0.4936170000000  0.4488770000000  0.4896900000000 1.0
C      1  0.4852950000000  0.5469820000000  0.5058540000000 1.0
C      1  0.5151480000000  0.4542960000000  0.5100920000000 1.0
C      1  0.5492820000000  0.5205460000000  0.4842940000000 1.0
C      1  0.4575050000000  0.4891750000000  0.4965020000000 1.0
C      1  0.5407110000000  0.4711170000000  0.4971400000000 1.0
C      1  0.4423990000000  0.5157750000000  0.5092650000000 1.0
C      1  0.4734000000000  0.5122740000000  0.4530760000000 1.0
C      1  0.5317200000000  0.4864480000000  0.4517680000000 1.0
C      1  0.5295290000000  0.5127350000000  0.5567300000000 1.0
C      1  0.4657740000000  0.4843790000000  0.5497410000000 1.0
C      1  0.5116460000000  0.4679730000000  0.4472330000000 1.0
C      1  0.4866160000000  0.5363190000000  0.4549270000000 1.0
C      1  0.5101540000000  0.5337550000000  0.5468690000000 1.0
C      1  0.4842640000000  0.4634530000000  0.5497690000000 1.0
C      1  0.5017020000000  0.5569390000000  0.5581830000000 1.0
C      1  0.4802030000000  0.4399230000000  0.5621230000000 1.0
C      1  0.4847730000000  0.5573070000000  0.4375150000000 1.0
C      1  0.5106120000000  0.4519350000000  0.4256660000000 1.0
C      1  0.5510730000000  0.5113930000000  0.5719280000000 1.0
C      1  0.4497330000000  0.4907860000000  0.5709690000000 1.0
C      1  0.5502950000000  0.4948830000000  0.4335930000000 1.0
C      1  0.4554560000000  0.5049370000000  0.4338190000000 1.0
C      1  0.5050310000000  0.5070970000000  0.4897940000000 1.0
END
