TITL C-3289324-3781-555 0.000298838230164729 125000 -342.166452543535 0 0 60 (C1) n - 1
REM
REM in /nfs/bkarasulu/CARBON/AIRSS/Generating-Clusters/AIREBO/with-SteepDescent/Higher-Symm/SD-CG/HFTN-CG
REM
REM
REM
REM
REM
REM ./C.cell (b20cbc046b6831c77cfcea5457e17084)
REM
REM compiler GCC version 9.2.1 20190827 (Red Hat 9.2.1-1)
REM options -cpp -mtune=generic -march=x86-64 -g -O0 -fpre-include=/usr/include/finclude/math-vector-fortran.h
REM seed -1187743348 293055190 -981177659 773425273 -1179642328 -963490690 1575885733 -2044677889 1337646493 -1950100526 1019538023 -1539898302 1680945130 1654191172 -1851909876 1720144048 1239148397 230237741 -1112052221 -1131222247 -806200212 1514293836 -56687970 -215496308 249168716 -659495010 1353499042 -474302141 1426631374 1284942477 907276131 1593727023 706429278
REM
CELL 1.54180   50.00000   50.00000   50.00000   90.00000   90.00000   90.00000
LATT -1
SFAC C  
C      1  0.5766880000000  0.5335700000000  0.4971330000000 1.0
C      1  0.5589620000000  0.4758110000000  0.5026630000000 1.0
C      1  0.5395870000000  0.4659010000000  0.5232390000000 1.0
C      1  0.5520950000000  0.5597220000000  0.4794970000000 1.0
C      1  0.4998980000000  0.4448650000000  0.5036970000000 1.0
C      1  0.5100940000000  0.5546570000000  0.5043650000000 1.0
C      1  0.5943850000000  0.5250930000000  0.4793380000000 1.0
C      1  0.5835950000000  0.4871200000000  0.5187930000000 1.0
C      1  0.5155660000000  0.5178340000000  0.4902790000000 1.0
C      1  0.5166970000000  0.4860080000000  0.5296490000000 1.0
C      1  0.4560460000000  0.4328740000000  0.5149000000000 1.0
C      1  0.4674840000000  0.5600070000000  0.4858200000000 1.0
C      1  0.4430440000000  0.5492650000000  0.4782810000000 1.0
C      1  0.4320570000000  0.4466080000000  0.5196740000000 1.0
C      1  0.4260160000000  0.4718260000000  0.5096200000000 1.0
C      1  0.4305120000000  0.5276600000000  0.4903300000000 1.0
C      1  0.4675270000000  0.5121300000000  0.5530290000000 1.0
C      1  0.4581490000000  0.4797890000000  0.4391630000000 1.0
C      1  0.4992840000000  0.5415230000000  0.4301360000000 1.0
C      1  0.4785270000000  0.4411410000000  0.5724120000000 1.0
C      1  0.5668920000000  0.5676060000000  0.4586230000000 1.0
C      1  0.5534510000000  0.4587120000000  0.5470900000000 1.0
C      1  0.4566810000000  0.4969990000000  0.4668950000000 1.0
C      1  0.4723460000000  0.5097910000000  0.5215980000000 1.0
C      1  0.4804480000000  0.4436780000000  0.5242850000000 1.0
C      1  0.4932420000000  0.5445240000000  0.4796820000000 1.0
C      1  0.4943670000000  0.5052330000000  0.5672360000000 1.0
C      1  0.4874970000000  0.4804860000000  0.4283610000000 1.0
C      1  0.4946380000000  0.5045950000000  0.5951020000000 1.0
C      1  0.4926280000000  0.4830370000000  0.4015400000000 1.0
C      1  0.5579640000000  0.5292870000000  0.5251910000000 1.0
C      1  0.5761530000000  0.4811240000000  0.4739170000000 1.0
C      1  0.4398030000000  0.5190260000000  0.5180760000000 1.0
C      1  0.4315910000000  0.4786310000000  0.4807610000000 1.0
C      1  0.4527700000000  0.5373850000000  0.5424070000000 1.0
C      1  0.4470650000000  0.4595950000000  0.4589710000000 1.0
C      1  0.5059910000000  0.4621400000000  0.4461030000000 1.0
C      1  0.5137280000000  0.5270750000000  0.5531800000000 1.0
C      1  0.4229400000000  0.4938500000000  0.5254160000000 1.0
C      1  0.4192710000000  0.5077150000000  0.4756480000000 1.0
C      1  0.4718050000000  0.5557670000000  0.5334370000000 1.0
C      1  0.4666660000000  0.4433940000000  0.4699850000000 1.0
C      1  0.4878290000000  0.5003950000000  0.4559610000000 1.0
C      1  0.5004640000000  0.4786130000000  0.5520150000000 1.0
C      1  0.5833120000000  0.5101140000000  0.5287700000000 1.0
C      1  0.5943810000000  0.4998000000000  0.4682530000000 1.0
C      1  0.5255090000000  0.4416170000000  0.5108950000000 1.0
C      1  0.5316960000000  0.5694280000000  0.4987220000000 1.0
C      1  0.4940010000000  0.4579340000000  0.4760060000000 1.0
C      1  0.4984160000000  0.5423960000000  0.5306830000000 1.0
C      1  0.4863380000000  0.4544330000000  0.5502240000000 1.0
C      1  0.4938800000000  0.5299730000000  0.4529000000000 1.0
C      1  0.5038490000000  0.5114210000000  0.5177360000000 1.0
C      1  0.5101840000000  0.4881820000000  0.4759130000000 1.0
C      1  0.4590730000000  0.4234410000000  0.4882910000000 1.0
C      1  0.4671330000000  0.5727030000000  0.5112680000000 1.0
C      1  0.5407700000000  0.5320550000000  0.5504700000000 1.0
C      1  0.5326590000000  0.4690600000000  0.4476690000000 1.0
C      1  0.5433490000000  0.4840440000000  0.4742220000000 1.0
C      1  0.5430080000000  0.5313420000000  0.4944810000000 1.0
END
