TITL C-3289334-2237-472 0.000165403583843911 125000 -818.136250042524 0 0 159 (C1) n - 1
REM
REM in /nfs/bkarasulu/CARBON/AIRSS/Generating-Clusters/AIREBO/with-SteepDescent/Higher-Symm/SD-CG/HFTN-CG
REM
REM
REM
REM
REM
REM ./C.cell (b20cbc046b6831c77cfcea5457e17084)
REM
REM compiler GCC version 9.2.1 20190827 (Red Hat 9.2.1-1)
REM options -cpp -mtune=generic -march=x86-64 -g -O0 -fpre-include=/usr/include/finclude/math-vector-fortran.h
REM seed -1689125 1937321815 -2085106039 551228998 -579197877 -1664458641 -1511349178 518660674 568114068 1575646796 -877487791 -405659635 -948813789 322752567 73448378 937696559 -1758296043 -1603837390 1407186405 -996832976 1185991976 -698865336 -169043409 1897204151 -692625358 -713088620 -1055176409 -566750326 313265590 384622410 -965146159 -484108406 -388932837
REM
CELL 1.54180   50.00000   50.00000   50.00000   90.00000   90.00000   90.00000
LATT -1
SFAC C  
C      1  0.4513570000000  0.5399090000000  0.4263440000000 1.0
C      1  0.4425640000000  0.4496850000000  0.4428000000000 1.0
C      1  0.4474950000000  0.4249740000000  0.5311320000000 1.0
C      1  0.4452330000000  0.5101800000000  0.5779840000000 1.0
C      1  0.4486740000000  0.5908060000000  0.5194080000000 1.0
C      1  0.5000230000000  0.4985370000000  0.4718720000000 1.0
C      1  0.5007330000000  0.4764430000000  0.4977830000000 1.0
C      1  0.5010070000000  0.4895770000000  0.5291690000000 1.0
C      1  0.5016290000000  0.5231300000000  0.5232510000000 1.0
C      1  0.4992660000000  0.5276550000000  0.4895460000000 1.0
C      1  0.5424240000000  0.5241400000000  0.4109940000000 1.0
C      1  0.5478760000000  0.4149810000000  0.4513960000000 1.0
C      1  0.5409200000000  0.4262940000000  0.5606610000000 1.0
C      1  0.5417040000000  0.5361510000000  0.5909780000000 1.0
C      1  0.5429150000000  0.5960930000000  0.4957430000000 1.0
C      1  0.5126860000000  0.4272820000000  0.5438310000000 1.0
C      1  0.5134340000000  0.5225580000000  0.5870400000000 1.0
C      1  0.5150160000000  0.5871930000000  0.5073370000000 1.0
C      1  0.5140770000000  0.5336690000000  0.4205350000000 1.0
C      1  0.5207540000000  0.4209990000000  0.4344070000000 1.0
C      1  0.5500980000000  0.4337830000000  0.5312960000000 1.0
C      1  0.5432280000000  0.5202140000000  0.5609820000000 1.0
C      1  0.5514290000000  0.5739570000000  0.5167720000000 1.0
C      1  0.5479030000000  0.5277050000000  0.4408330000000 1.0
C      1  0.5377730000000  0.4462200000000  0.4611420000000 1.0
C      1  0.5053830000000  0.5331410000000  0.5557400000000 1.0
C      1  0.5060860000000  0.5609420000000  0.4876200000000 1.0
C      1  0.5053310000000  0.5064260000000  0.4389940000000 1.0
C      1  0.5067810000000  0.4323720000000  0.4631010000000 1.0
C      1  0.5092350000000  0.4610570000000  0.5461650000000 1.0
C      1  0.4587660000000  0.4914550000000  0.4244280000000 1.0
C      1  0.4560260000000  0.4324660000000  0.4781020000000 1.0
C      1  0.4609380000000  0.4621960000000  0.5661810000000 1.0
C      1  0.4544410000000  0.5477020000000  0.5556340000000 1.0
C      1  0.4565460000000  0.5680370000000  0.4708790000000 1.0
C      1  0.3881910000000  0.5207410000000  0.4832110000000 1.0
C      1  0.3927910000000  0.4873250000000  0.4767180000000 1.0
C      1  0.3894010000000  0.4690910000000  0.5030980000000 1.0
C      1  0.3912450000000  0.4915130000000  0.5285950000000 1.0
C      1  0.3864980000000  0.5204900000000  0.5167010000000 1.0
C      1  0.5771470000000  0.4240650000000  0.5143320000000 1.0
C      1  0.5718510000000  0.5034540000000  0.5675900000000 1.0
C      1  0.5789250000000  0.5711080000000  0.5327360000000 1.0
C      1  0.5756190000000  0.5428610000000  0.4467840000000 1.0
C      1  0.5663290000000  0.4577460000000  0.4466960000000 1.0
C      1  0.4774670000000  0.5130040000000  0.6014420000000 1.0
C      1  0.4803380000000  0.5986620000000  0.5230430000000 1.0
C      1  0.4799090000000  0.5526890000000  0.4130230000000 1.0
C      1  0.4867490000000  0.4363630000000  0.4208670000000 1.0
C      1  0.4784970000000  0.4099730000000  0.5333640000000 1.0
C      1  0.4677840000000  0.5263280000000  0.5247170000000 1.0
C      1  0.4651300000000  0.5307710000000  0.4855950000000 1.0
C      1  0.4663550000000  0.4949360000000  0.4685450000000 1.0
C      1  0.4679370000000  0.4673440000000  0.4974210000000 1.0
C      1  0.4672990000000  0.4872330000000  0.5330950000000 1.0
C      1  0.4360170000000  0.5337480000000  0.4720440000000 1.0
C      1  0.4417170000000  0.4789730000000  0.4582330000000 1.0
C      1  0.4386880000000  0.4536320000000  0.5075680000000 1.0
C      1  0.4397970000000  0.4915780000000  0.5499810000000 1.0
C      1  0.4363610000000  0.5391760000000  0.5210830000000 1.0
C      1  0.5274650000000  0.5584190000000  0.5319970000000 1.0
C      1  0.5236830000000  0.5369210000000  0.4591630000000 1.0
C      1  0.5239200000000  0.4733500000000  0.4508330000000 1.0
C      1  0.5282910000000  0.4339880000000  0.5079490000000 1.0
C      1  0.5294990000000  0.4897280000000  0.5653290000000 1.0
C      1  0.5348830000000  0.4877720000000  0.5316500000000 1.0
C      1  0.5348930000000  0.5277170000000  0.5298820000000 1.0
C      1  0.5330400000000  0.5315340000000  0.4884500000000 1.0
C      1  0.5337410000000  0.4974510000000  0.4675450000000 1.0
C      1  0.5301130000000  0.4606950000000  0.4909630000000 1.0
C      1  0.4916810000000  0.5225320000000  0.3993700000000 1.0
C      1  0.4904530000000  0.4060680000000  0.4383260000000 1.0
C      1  0.4876500000000  0.4196310000000  0.5651390000000 1.0
C      1  0.4913560000000  0.5447440000000  0.5943720000000 1.0
C      1  0.4911760000000  0.6028950000000  0.4904320000000 1.0
C      1  0.5895930000000  0.5315420000000  0.5004320000000 1.0
C      1  0.5959480000000  0.5134550000000  0.4753110000000 1.0
C      1  0.6103130000000  0.4904160000000  0.4815050000000 1.0
C      1  0.5938480000000  0.4736300000000  0.5031060000000 1.0
C      1  0.5961290000000  0.5021190000000  0.5169230000000 1.0
C      1  0.5121770000000  0.5885150000000  0.4678650000000 1.0
C      1  0.5121930000000  0.4963010000000  0.4070740000000 1.0
C      1  0.5066670000000  0.4005860000000  0.4682920000000 1.0
C      1  0.5034160000000  0.4466730000000  0.5769550000000 1.0
C      1  0.5143670000000  0.5601890000000  0.5746160000000 1.0
C      1  0.4130770000000  0.5105660000000  0.4623830000000 1.0
C      1  0.4225830000000  0.4773630000000  0.4824460000000 1.0
C      1  0.4131640000000  0.4648260000000  0.5270540000000 1.0
C      1  0.4203930000000  0.5040060000000  0.5300150000000 1.0
C      1  0.4088290000000  0.5401340000000  0.5005180000000 1.0
C      1  0.4787610000000  0.4574350000000  0.5375580000000 1.0
C      1  0.4769540000000  0.5222320000000  0.5546610000000 1.0
C      1  0.4758460000000  0.5589840000000  0.4973730000000 1.0
C      1  0.4750020000000  0.5134620000000  0.4446320000000 1.0
C      1  0.4844820000000  0.4488100000000  0.4742660000000 1.0
C      1  0.4925470000000  0.5385200000000  0.4578680000000 1.0
C      1  0.4936470000000  0.4700790000000  0.4540110000000 1.0
C      1  0.4974710000000  0.4454250000000  0.5117970000000 1.0
C      1  0.4960510000000  0.4951460000000  0.5623470000000 1.0
C      1  0.4951080000000  0.5564550000000  0.5252840000000 1.0
C      1  0.5808160000000  0.5273270000000  0.5500430000000 1.0
C      1  0.5863080000000  0.5618410000000  0.5026830000000 1.0
C      1  0.5841620000000  0.5129430000000  0.4330580000000 1.0
C      1  0.5756630000000  0.4465540000000  0.4735610000000 1.0
C      1  0.5839450000000  0.4525400000000  0.5229370000000 1.0
C      1  0.4279250000000  0.5706680000000  0.5131510000000 1.0
C      1  0.4257770000000  0.5313640000000  0.4386640000000 1.0
C      1  0.4150490000000  0.4359600000000  0.4502150000000 1.0
C      1  0.4186960000000  0.4339120000000  0.5400970000000 1.0
C      1  0.4146370000000  0.5200890000000  0.5774080000000 1.0
C      1  0.5065750000000  0.4965230000000  0.6005370000000 1.0
C      1  0.5075020000000  0.5924020000000  0.5375580000000 1.0
C      1  0.5085940000000  0.5668190000000  0.4211300000000 1.0
C      1  0.5183090000000  0.4442280000000  0.4117790000000 1.0
C      1  0.5076920000000  0.4026700000000  0.5208410000000 1.0
C      1  0.5482180000000  0.5590460000000  0.5691750000000 1.0
C      1  0.5461340000000  0.5850630000000  0.4663090000000 1.0
C      1  0.5456820000000  0.4942780000000  0.4031530000000 1.0
C      1  0.5440010000000  0.4080680000000  0.4804200000000 1.0
C      1  0.5368090000000  0.4526620000000  0.5783630000000 1.0
C      1  0.4624740000000  0.5173510000000  0.4069710000000 1.0
C      1  0.4663430000000  0.4274040000000  0.4460840000000 1.0
C      1  0.4591600000000  0.4313960000000  0.5606810000000 1.0
C      1  0.4606240000000  0.5389700000000  0.5867860000000 1.0
C      1  0.4608990000000  0.5948560000000  0.4885930000000 1.0
C      1  0.5045230000000  0.5894330000000  0.5697460000000 1.0
C      1  0.5038270000000  0.5918840000000  0.4404240000000 1.0
C      1  0.5054640000000  0.4691930000000  0.3973160000000 1.0
C      1  0.4960940000000  0.3901350000000  0.4915640000000 1.0
C      1  0.5073540000000  0.4632550000000  0.6031260000000 1.0
C      1  0.4679070000000  0.5701780000000  0.5380600000000 1.0
C      1  0.4700500000000  0.5568560000000  0.4458080000000 1.0
C      1  0.4712650000000  0.4643100000000  0.4316280000000 1.0
C      1  0.4693100000000  0.4284020000000  0.5063050000000 1.0
C      1  0.4696800000000  0.4881100000000  0.5796230000000 1.0
C      1  0.4280830000000  0.4620150000000  0.5574890000000 1.0
C      1  0.4254300000000  0.5308720000000  0.5502660000000 1.0
C      1  0.4252540000000  0.5631010000000  0.4815700000000 1.0
C      1  0.4277110000000  0.4972290000000  0.4347310000000 1.0
C      1  0.4265300000000  0.4440230000000  0.4787330000000 1.0
C      1  0.5663870000000  0.5180280000000  0.5213010000000 1.0
C      1  0.5553000000000  0.5509980000000  0.4937860000000 1.0
C      1  0.5657290000000  0.5070280000000  0.4611010000000 1.0
C      1  0.5620680000000  0.4670990000000  0.4929070000000 1.0
C      1  0.5578140000000  0.4648290000000  0.5357920000000 1.0
C      1  0.5321960000000  0.5639460000000  0.4440690000000 1.0
C      1  0.5363070000000  0.4685500000000  0.4226770000000 1.0
C      1  0.5394780000000  0.4019330000000  0.5099220000000 1.0
C      1  0.5356140000000  0.4804520000000  0.5979220000000 1.0
C      1  0.5363450000000  0.5843960000000  0.5520740000000 1.0
C      1  0.5712640000000  0.5623370000000  0.4667760000000 1.0
C      1  0.5664270000000  0.4843410000000  0.4281930000000 1.0
C      1  0.5719140000000  0.4213000000000  0.4863850000000 1.0
C      1  0.5597690000000  0.4742250000000  0.5655600000000 1.0
C      1  0.5752660000000  0.5542870000000  0.5549980000000 1.0
C      1  0.5324920000000  0.5002200000000  0.5016900000000 1.0
C      1  0.4669080000000  0.5010290000000  0.5020050000000 1.0
C      1  0.5638840000000  0.4983390000000  0.4936830000000 1.0
C      1  0.4337090000000  0.4956620000000  0.5039600000000 1.0
END
