TITL C-3289327-5623-207 -0.00199509077361961 125000 -816.828270859623 0 0 138 (C1) n - 1
REM
REM in /nfs/bkarasulu/CARBON/AIRSS/Generating-Clusters/AIREBO/with-SteepDescent/Higher-Symm/SD-CG/HFTN-CG
REM
REM
REM
REM
REM
REM ./C.cell (b20cbc046b6831c77cfcea5457e17084)
REM
REM compiler GCC version 9.2.1 20190827 (Red Hat 9.2.1-1)
REM options -cpp -mtune=generic -march=x86-64 -g -O0 -fpre-include=/usr/include/finclude/math-vector-fortran.h
REM seed -1011261311 291169833 549329626 -1482119426 108605105 -1431362641 -1358827134 1975219034 -1807581972 723884154 377135483 1582933226 1045844689 -2129055546 -118271018 495902691 -1144169237 -1108295106 -1714799370 -373396556 317505213 -1886175214 481855215 1591186613 1445000205 1086813694 941873908 -572515417 -321976561 1119535988 -170437898 1665025483 -187675957
REM
CELL 1.54180   50.00000   50.00000   50.00000   90.00000   90.00000   90.00000
LATT -1
SFAC C  
C      1  0.4915370000000  0.5325050000000  0.4436400000000 1.0
C      1  0.4461120000000  0.4785500000000  0.5432920000000 1.0
C      1  0.5299190000000  0.4500800000000  0.4890910000000 1.0
C      1  0.4843610000000  0.4544630000000  0.5737600000000 1.0
C      1  0.5112030000000  0.4722490000000  0.4387180000000 1.0
C      1  0.5083630000000  0.5323900000000  0.5569900000000 1.0
C      1  0.4414930000000  0.5187390000000  0.4543230000000 1.0
C      1  0.5645870000000  0.5147550000000  0.5369730000000 1.0
C      1  0.5636110000000  0.4847420000000  0.4557290000000 1.0
C      1  0.5334350000000  0.5632640000000  0.5131030000000 1.0
C      1  0.4681800000000  0.5480790000000  0.4905310000000 1.0
C      1  0.4508070000000  0.4338720000000  0.5109070000000 1.0
C      1  0.4885460000000  0.4097020000000  0.5417740000000 1.0
C      1  0.4408710000000  0.5355450000000  0.4833950000000 1.0
C      1  0.5382070000000  0.4886190000000  0.4336350000000 1.0
C      1  0.4842500000000  0.5588280000000  0.4639190000000 1.0
C      1  0.5165850000000  0.4271200000000  0.4695220000000 1.0
C      1  0.5115810000000  0.5797670000000  0.5332580000000 1.0
C      1  0.4501850000000  0.4638440000000  0.5129030000000 1.0
C      1  0.5596660000000  0.5421410000000  0.5178920000000 1.0
C      1  0.5551050000000  0.4626120000000  0.4801030000000 1.0
C      1  0.5331040000000  0.5144680000000  0.5687420000000 1.0
C      1  0.4727460000000  0.4823160000000  0.5646200000000 1.0
C      1  0.4666200000000  0.5194580000000  0.4323440000000 1.0
C      1  0.4197570000000  0.4862880000000  0.4479290000000 1.0
C      1  0.4423920000000  0.4140370000000  0.4859870000000 1.0
C      1  0.4788080000000  0.4410240000000  0.4227150000000 1.0
C      1  0.4326480000000  0.5232810000000  0.5562510000000 1.0
C      1  0.5826810000000  0.5247920000000  0.4432350000000 1.0
C      1  0.5786890000000  0.4788280000000  0.5645240000000 1.0
C      1  0.4359710000000  0.5758960000000  0.5000200000000 1.0
C      1  0.5590140000000  0.5806140000000  0.4769030000000 1.0
C      1  0.5593260000000  0.4255720000000  0.5003000000000 1.0
C      1  0.4832590000000  0.5638010000000  0.5791010000000 1.0
C      1  0.5242120000000  0.5618850000000  0.4204800000000 1.0
C      1  0.5090510000000  0.4417750000000  0.5740410000000 1.0
C      1  0.4093650000000  0.4533580000000  0.4870100000000 1.0
C      1  0.4403240000000  0.4797320000000  0.4260200000000 1.0
C      1  0.4763090000000  0.4178630000000  0.4428420000000 1.0
C      1  0.4149820000000  0.5510750000000  0.5095520000000 1.0
C      1  0.5796180000000  0.4520880000000  0.5090760000000 1.0
C      1  0.5818460000000  0.5606510000000  0.4810090000000 1.0
C      1  0.4497410000000  0.5229970000000  0.5820070000000 1.0
C      1  0.5538040000000  0.4781980000000  0.5881200000000 1.0
C      1  0.5623070000000  0.5239880000000  0.4200060000000 1.0
C      1  0.4853540000000  0.5808710000000  0.5523220000000 1.0
C      1  0.5099260000000  0.4149510000000  0.5581960000000 1.0
C      1  0.5187900000000  0.5852980000000  0.4401280000000 1.0
C      1  0.5842490000000  0.4630520000000  0.4367360000000 1.0
C      1  0.4364140000000  0.5732360000000  0.4698640000000 1.0
C      1  0.4633890000000  0.4357780000000  0.5756300000000 1.0
C      1  0.5731440000000  0.5390910000000  0.5551940000000 1.0
C      1  0.4191160000000  0.5375180000000  0.4352440000000 1.0
C      1  0.4260700000000  0.4593660000000  0.5596160000000 1.0
C      1  0.4415330000000  0.4217950000000  0.5357730000000 1.0
C      1  0.5636540000000  0.4256300000000  0.4681580000000 1.0
C      1  0.5593200000000  0.5852180000000  0.5484440000000 1.0
C      1  0.4548720000000  0.5683930000000  0.4257750000000 1.0
C      1  0.5299630000000  0.5540700000000  0.5682740000000 1.0
C      1  0.5355790000000  0.4490720000000  0.4330480000000 1.0
C      1  0.5811390000000  0.4495290000000  0.4625690000000 1.0
C      1  0.4388430000000  0.4484300000000  0.5829750000000 1.0
C      1  0.4592940000000  0.5744970000000  0.4533150000000 1.0
C      1  0.5751430000000  0.5638160000000  0.5390910000000 1.0
C      1  0.4184840000000  0.4356820000000  0.5450810000000 1.0
C      1  0.4190260000000  0.5505860000000  0.4621080000000 1.0
C      1  0.4457720000000  0.5416040000000  0.4218840000000 1.0
C      1  0.5589210000000  0.4644400000000  0.4217050000000 1.0
C      1  0.5539490000000  0.5387240000000  0.5755080000000 1.0
C      1  0.4630640000000  0.4169660000000  0.5532750000000 1.0
C      1  0.5329040000000  0.5777140000000  0.5548050000000 1.0
C      1  0.5394600000000  0.4286460000000  0.4524090000000 1.0
C      1  0.5261960000000  0.4220380000000  0.5072230000000 1.0
C      1  0.5169690000000  0.5356980000000  0.4272010000000 1.0
C      1  0.4354750000000  0.5068570000000  0.5342060000000 1.0
C      1  0.5339200000000  0.5739410000000  0.4867580000000 1.0
C      1  0.4663170000000  0.5728770000000  0.5102240000000 1.0
C      1  0.4735600000000  0.4184850000000  0.4939200000000 1.0
C      1  0.5051450000000  0.4947390000000  0.6017900000000 1.0
C      1  0.4885350000000  0.4697260000000  0.4179260000000 1.0
C      1  0.4866490000000  0.5362110000000  0.5767300000000 1.0
C      1  0.4274280000000  0.4983690000000  0.4776380000000 1.0
C      1  0.5836990000000  0.4933260000000  0.5414680000000 1.0
C      1  0.5777450000000  0.5101190000000  0.4735310000000 1.0
C      1  0.5360580000000  0.5159780000000  0.4237270000000 1.0
C      1  0.4982040000000  0.4084660000000  0.5125850000000 1.0
C      1  0.4215510000000  0.5179980000000  0.5051980000000 1.0
C      1  0.5302490000000  0.4937080000000  0.5888360000000 1.0
C      1  0.4784310000000  0.5058300000000  0.5865320000000 1.0
C      1  0.4658510000000  0.4900820000000  0.4240830000000 1.0
C      1  0.5086540000000  0.5781780000000  0.4676820000000 1.0
C      1  0.4913610000000  0.4127080000000  0.4680690000000 1.0
C      1  0.4892460000000  0.5882510000000  0.5131110000000 1.0
C      1  0.4281110000000  0.4720340000000  0.4938530000000 1.0
C      1  0.5744690000000  0.5362760000000  0.4918650000000 1.0
C      1  0.5811530000000  0.4810390000000  0.4912350000000 1.0
C      1  0.5601190000000  0.4487900000000  0.5826200000000 1.0
C      1  0.5912370000000  0.5734950000000  0.4547030000000 1.0
C      1  0.4561940000000  0.5908820000000  0.5503560000000 1.0
C      1  0.5732570000000  0.5508230000000  0.4143950000000 1.0
C      1  0.4366290000000  0.5533400000000  0.5818630000000 1.0
C      1  0.4304130000000  0.4525630000000  0.4155660000000 1.0
C      1  0.5750960000000  0.4384080000000  0.5347220000000 1.0
C      1  0.4113530000000  0.4394380000000  0.4622710000000 1.0
C      1  0.4174870000000  0.5652910000000  0.5346800000000 1.0
C      1  0.4457240000000  0.4112190000000  0.4396720000000 1.0
C      1  0.5402190000000  0.4102780000000  0.5547010000000 1.0
C      1  0.5476110000000  0.5923600000000  0.4306440000000 1.0
C      1  0.5671790000000  0.5948340000000  0.4509220000000 1.0
C      1  0.5814270000000  0.4481030000000  0.5605340000000 1.0
C      1  0.4550640000000  0.5745640000000  0.5773800000000 1.0
C      1  0.5559470000000  0.4159690000000  0.5327590000000 1.0
C      1  0.4362490000000  0.5879490000000  0.5318360000000 1.0
C      1  0.4299740000000  0.4182580000000  0.4621720000000 1.0
C      1  0.5955520000000  0.5534020000000  0.4352480000000 1.0
C      1  0.4108770000000  0.4571600000000  0.4402270000000 1.0
C      1  0.4167890000000  0.5494280000000  0.5578110000000 1.0
C      1  0.4497280000000  0.4321620000000  0.4170290000000 1.0
C      1  0.5529530000000  0.5700410000000  0.4093760000000 1.0
C      1  0.5388110000000  0.4315070000000  0.5794200000000 1.0
C      1  0.5099690000000  0.4838320000000  0.5245340000000 1.0
C      1  0.4970340000000  0.5215510000000  0.4707750000000 1.0
C      1  0.4825330000000  0.4944010000000  0.5386380000000 1.0
C      1  0.5126800000000  0.4725010000000  0.4945400000000 1.0
C      1  0.4858300000000  0.5260010000000  0.5024320000000 1.0
C      1  0.5199920000000  0.5038280000000  0.4856920000000 1.0
C      1  0.4983460000000  0.5214510000000  0.5313810000000 1.0
C      1  0.5343290000000  0.5036470000000  0.5375920000000 1.0
C      1  0.5241710000000  0.5185180000000  0.5107540000000 1.0
C      1  0.5019030000000  0.4824430000000  0.4648250000000 1.0
C      1  0.4773630000000  0.4781340000000  0.5120830000000 1.0
C      1  0.4811230000000  0.4961340000000  0.4879930000000 1.0
C      1  0.5974380000000  0.4859670000000  0.5192760000000 1.0
C      1  0.4989260000000  0.5991470000000  0.4899330000000 1.0
C      1  0.5019290000000  0.4856300000000  0.6275640000000 1.0
C      1  0.3924400000000  0.5087550000000  0.5083140000000 1.0
C      1  0.4937590000000  0.3851730000000  0.4878750000000 1.0
C      1  0.4981300000000  0.4730710000000  0.3913840000000 1.0
END
