TITL C-3289335-9438-430 0.00335754806592218 125000 -110.060290698229 0 0 22 (C2) n - 1
REM
REM in /nfs/bkarasulu/CARBON/AIRSS/Generating-Clusters/AIREBO/with-SteepDescent/Higher-Symm/SD-CG/HFTN-CG
REM
REM
REM
REM
REM
REM ./C.cell (b20cbc046b6831c77cfcea5457e17084)
REM
REM compiler GCC version 9.2.1 20190827 (Red Hat 9.2.1-1)
REM options -cpp -mtune=generic -march=x86-64 -g -O0 -fpre-include=/usr/include/finclude/math-vector-fortran.h
REM seed -319606665 -583609409 873811115 816605669 603769241 -614282364 -1254801733 531799428 -1805543386 1667794368 -1348551120 1334518579 -1319776252 312470202 140929864 831864651 341225056 294010573 -1969111167 -1270270503 -1330672466 751670886 1690366140 -184853298 -1503943276 -1631690623 121779379 33657720 -1285050550 866806222 886454746 -1416765073 -1127070146
REM
CELL 1.54180   50.00000   50.00000   50.00000   90.00000   90.00000   90.00000
LATT -1
SFAC C  
C      1  0.5161010000000  0.5388590000000  0.4471620000000 1.0
C      1  0.4841190000000  0.5390570000000  0.5527540000000 1.0
C      1  0.5113890000000  0.4656190000000  0.4689280000000 1.0
C      1  0.4884280000000  0.4657460000000  0.5311410000000 1.0
C      1  0.4885310000000  0.5371460000000  0.4502440000000 1.0
C      1  0.5116800000000  0.5371860000000  0.5496770000000 1.0
C      1  0.4866860000000  0.4666640000000  0.4646020000000 1.0
C      1  0.5131370000000  0.4666640000000  0.5354650000000 1.0
C      1  0.5333820000000  0.4855860000000  0.4732120000000 1.0
C      1  0.4665460000000  0.4858260000000  0.5268150000000 1.0
C      1  0.5156050000000  0.5174620000000  0.4719280000000 1.0
C      1  0.4845010000000  0.5176040000000  0.5280310000000 1.0
C      1  0.4668020000000  0.4879820000000  0.4696660000000 1.0
C      1  0.5331370000000  0.4878640000000  0.5303570000000 1.0
C      1  0.4816210000000  0.5162090000000  0.4737520000000 1.0
C      1  0.5184720000000  0.5161620000000  0.5262110000000 1.0
C      1  0.5585070000000  0.4813060000000  0.4631590000000 1.0
C      1  0.4413980000000  0.4817060000000  0.5368790000000 1.0
C      1  0.4392480000000  0.4847610000000  0.4611900000000 1.0
C      1  0.5606720000000  0.4845100000000  0.5388400000000 1.0
C      1  0.5289580000000  0.5053670000000  0.4982920000000 1.0
C      1  0.4710780000000  0.5055300000000  0.5016940000000 1.0
END
