TITL C-3289322-3858-455 -0.00174139193799086 125000 -876.277082230974 0 0 167 (C1) n - 1
REM
REM in /nfs/bkarasulu/CARBON/AIRSS/Generating-Clusters/AIREBO/with-SteepDescent/Higher-Symm/SD-CG/HFTN-CG
REM
REM
REM
REM
REM
REM ./C.cell (b20cbc046b6831c77cfcea5457e17084)
REM
REM compiler GCC version 9.2.1 20190827 (Red Hat 9.2.1-1)
REM options -cpp -mtune=generic -march=x86-64 -g -O0 -fpre-include=/usr/include/finclude/math-vector-fortran.h
REM seed 1293197310 -1259286811 1624700540 1642524194 -439013595 -963768011 1440065609 -1730646950 1512391690 846623391 325168495 -1780393312 435644211 1310537742 1692393167 1418008057 2141147356 1103343845 401665750 1653469646 177587680 1703648973 2118046137 -704783237 876649282 1634474398 1586976302 671064091 -1395880573 -995839015 -1309440709 -1947528802 2083357539
REM
CELL 1.54180   50.00000   50.00000   50.00000   90.00000   90.00000   90.00000
LATT -1
SFAC C  
C      1  0.5187870000000  0.4879050000000  0.3867450000000 1.0
C      1  0.5114400000000  0.5764930000000  0.4236810000000 1.0
C      1  0.5301280000000  0.6215150000000  0.5141150000000 1.0
C      1  0.5171470000000  0.5580620000000  0.5920740000000 1.0
C      1  0.5151990000000  0.4653140000000  0.6080540000000 1.0
C      1  0.5180590000000  0.3776000000000  0.5414640000000 1.0
C      1  0.5248860000000  0.4148540000000  0.4402260000000 1.0
C      1  0.4400390000000  0.5635180000000  0.5398510000000 1.0
C      1  0.4441920000000  0.4956390000000  0.5725400000000 1.0
C      1  0.4327240000000  0.4429230000000  0.5344330000000 1.0
C      1  0.4308810000000  0.4290650000000  0.4787500000000 1.0
C      1  0.4276600000000  0.4699470000000  0.4294950000000 1.0
C      1  0.4254920000000  0.5287560000000  0.4352910000000 1.0
C      1  0.4281890000000  0.5696460000000  0.4854100000000 1.0
C      1  0.4706530000000  0.4925170000000  0.5800480000000 1.0
C      1  0.4523080000000  0.4236350000000  0.5413680000000 1.0
C      1  0.4498960000000  0.4052380000000  0.4761250000000 1.0
C      1  0.4603170000000  0.4723340000000  0.4257080000000 1.0
C      1  0.4570250000000  0.5287140000000  0.4312540000000 1.0
C      1  0.4612290000000  0.5753170000000  0.4831670000000 1.0
C      1  0.4650500000000  0.5669300000000  0.5502190000000 1.0
C      1  0.5339720000000  0.5330530000000  0.5538730000000 1.0
C      1  0.5448400000000  0.4840930000000  0.5704830000000 1.0
C      1  0.5385140000000  0.4262870000000  0.5320200000000 1.0
C      1  0.5410420000000  0.4396620000000  0.4671040000000 1.0
C      1  0.5335740000000  0.4887910000000  0.4269180000000 1.0
C      1  0.5375140000000  0.5527260000000  0.4422580000000 1.0
C      1  0.5340940000000  0.5720140000000  0.4984970000000 1.0
C      1  0.5711360000000  0.5130810000000  0.4204050000000 1.0
C      1  0.5709950000000  0.5627990000000  0.4545880000000 1.0
C      1  0.5663790000000  0.5797230000000  0.5204520000000 1.0
C      1  0.5658760000000  0.5362240000000  0.5642650000000 1.0
C      1  0.5481270000000  0.4443700000000  0.5690010000000 1.0
C      1  0.5503520000000  0.3959130000000  0.4914110000000 1.0
C      1  0.5762880000000  0.4426590000000  0.4488360000000 1.0
C      1  0.5465410000000  0.4364560000000  0.4342620000000 1.0
C      1  0.5260550000000  0.5137810000000  0.4051230000000 1.0
C      1  0.5205700000000  0.5799330000000  0.4537140000000 1.0
C      1  0.5366380000000  0.5934680000000  0.5250790000000 1.0
C      1  0.5208740000000  0.5307590000000  0.5826210000000 1.0
C      1  0.5239370000000  0.4595160000000  0.5812100000000 1.0
C      1  0.5214320000000  0.4007130000000  0.5180590000000 1.0
C      1  0.5072570000000  0.4259540000000  0.5455230000000 1.0
C      1  0.5115120000000  0.4370160000000  0.4707720000000 1.0
C      1  0.5046020000000  0.4764240000000  0.4366050000000 1.0
C      1  0.5103120000000  0.5323500000000  0.4435070000000 1.0
C      1  0.5058390000000  0.5619720000000  0.4975340000000 1.0
C      1  0.5091440000000  0.5496680000000  0.5458690000000 1.0
C      1  0.5010610000000  0.4651790000000  0.5616260000000 1.0
C      1  0.4941890000000  0.5277800000000  0.4793950000000 1.0
C      1  0.5012720000000  0.5312220000000  0.5113210000000 1.0
C      1  0.5030850000000  0.4966600000000  0.5488860000000 1.0
C      1  0.5037570000000  0.4556140000000  0.5314650000000 1.0
C      1  0.5137590000000  0.4596520000000  0.5033600000000 1.0
C      1  0.4980740000000  0.4655100000000  0.4645910000000 1.0
C      1  0.4885680000000  0.4981870000000  0.4658040000000 1.0
C      1  0.4735250000000  0.5622810000000  0.5766210000000 1.0
C      1  0.4765120000000  0.4705460000000  0.5996240000000 1.0
C      1  0.4511720000000  0.3998870000000  0.5266890000000 1.0
C      1  0.4721630000000  0.4032670000000  0.4558250000000 1.0
C      1  0.4754770000000  0.4738220000000  0.3967990000000 1.0
C      1  0.4681590000000  0.5522760000000  0.4232970000000 1.0
C      1  0.4720260000000  0.6055580000000  0.4888700000000 1.0
C      1  0.4805810000000  0.5230460000000  0.3995220000000 1.0
C      1  0.4739330000000  0.5900610000000  0.4485650000000 1.0
C      1  0.4894840000000  0.5979100000000  0.5442410000000 1.0
C      1  0.4798210000000  0.5217270000000  0.6056820000000 1.0
C      1  0.4806090000000  0.4180330000000  0.5814460000000 1.0
C      1  0.4877240000000  0.3927170000000  0.4985540000000 1.0
C      1  0.4936420000000  0.4332690000000  0.4162300000000 1.0
C      1  0.5680560000000  0.4272130000000  0.5480950000000 1.0
C      1  0.5834100000000  0.4338230000000  0.4785910000000 1.0
C      1  0.5663600000000  0.4831270000000  0.4198900000000 1.0
C      1  0.5650470000000  0.5549930000000  0.4220730000000 1.0
C      1  0.5663800000000  0.5951160000000  0.4947820000000 1.0
C      1  0.5562920000000  0.5660770000000  0.5566420000000 1.0
C      1  0.5648820000000  0.4987820000000  0.5937080000000 1.0
C      1  0.4621250000000  0.5385250000000  0.5873130000000 1.0
C      1  0.4569070000000  0.4553180000000  0.5781630000000 1.0
C      1  0.4603430000000  0.3939590000000  0.5007170000000 1.0
C      1  0.4701140000000  0.4180840000000  0.4321100000000 1.0
C      1  0.4584880000000  0.5022390000000  0.3996040000000 1.0
C      1  0.4559510000000  0.5730160000000  0.4370780000000 1.0
C      1  0.4669180000000  0.5932330000000  0.5183950000000 1.0
C      1  0.5859000000000  0.4718350000000  0.4394790000000 1.0
C      1  0.5919250000000  0.5368150000000  0.4323280000000 1.0
C      1  0.5951090000000  0.5587190000000  0.4716400000000 1.0
C      1  0.5864810000000  0.5618440000000  0.5415730000000 1.0
C      1  0.5871820000000  0.5134680000000  0.5778380000000 1.0
C      1  0.5924860000000  0.4444480000000  0.5407190000000 1.0
C      1  0.6017540000000  0.4483030000000  0.4924000000000 1.0
C      1  0.5373700000000  0.5047020000000  0.4535710000000 1.0
C      1  0.5266430000000  0.5298820000000  0.4732350000000 1.0
C      1  0.5412920000000  0.5300960000000  0.5039330000000 1.0
C      1  0.5245600000000  0.5129510000000  0.5281160000000 1.0
C      1  0.5385770000000  0.4820980000000  0.5247750000000 1.0
C      1  0.5427590000000  0.4504940000000  0.5123930000000 1.0
C      1  0.5445930000000  0.4888210000000  0.4770200000000 1.0
C      1  0.4706560000000  0.4567820000000  0.5287210000000 1.0
C      1  0.4833570000000  0.4476860000000  0.4984350000000 1.0
C      1  0.4689520000000  0.4533090000000  0.4719160000000 1.0
C      1  0.4689350000000  0.5011440000000  0.4399900000000 1.0
C      1  0.4678920000000  0.5441220000000  0.4783860000000 1.0
C      1  0.4705980000000  0.5412540000000  0.5200580000000 1.0
C      1  0.4798050000000  0.5208370000000  0.5434320000000 1.0
C      1  0.5459610000000  0.4109790000000  0.5684000000000 1.0
C      1  0.5189830000000  0.3879280000000  0.4865960000000 1.0
C      1  0.5396910000000  0.4582270000000  0.4133200000000 1.0
C      1  0.5361970000000  0.5414490000000  0.4102020000000 1.0
C      1  0.5391320000000  0.5955050000000  0.4744340000000 1.0
C      1  0.5339000000000  0.5817790000000  0.5535450000000 1.0
C      1  0.5303270000000  0.5028050000000  0.5949020000000 1.0
C      1  0.4376470000000  0.5271180000000  0.4670180000000 1.0
C      1  0.4473590000000  0.5272740000000  0.4996200000000 1.0
C      1  0.4290780000000  0.5358060000000  0.5457310000000 1.0
C      1  0.4488270000000  0.5124090000000  0.5366770000000 1.0
C      1  0.4529180000000  0.4799690000000  0.5273500000000 1.0
C      1  0.4427450000000  0.4670930000000  0.4761130000000 1.0
C      1  0.4450000000000  0.4958750000000  0.4630380000000 1.0
C      1  0.5955270000000  0.4748770000000  0.4993880000000 1.0
C      1  0.5864270000000  0.4882180000000  0.4694420000000 1.0
C      1  0.5882420000000  0.5204790000000  0.4622770000000 1.0
C      1  0.5868290000000  0.5362520000000  0.4923790000000 1.0
C      1  0.5935940000000  0.5323710000000  0.5251640000000 1.0
C      1  0.5926000000000  0.5075180000000  0.5442110000000 1.0
C      1  0.5885540000000  0.4770350000000  0.5318280000000 1.0
C      1  0.5632130000000  0.5459640000000  0.5229990000000 1.0
C      1  0.5603600000000  0.5056920000000  0.5503520000000 1.0
C      1  0.5593230000000  0.4660820000000  0.5453480000000 1.0
C      1  0.5565550000000  0.4266760000000  0.4923820000000 1.0
C      1  0.5611130000000  0.4654910000000  0.4691140000000 1.0
C      1  0.5576930000000  0.5260570000000  0.4484230000000 1.0
C      1  0.5578020000000  0.5523060000000  0.4841320000000 1.0
C      1  0.4987320000000  0.5471760000000  0.4151830000000 1.0
C      1  0.5305140000000  0.6230160000000  0.4885590000000 1.0
C      1  0.5031090000000  0.5758420000000  0.5667180000000 1.0
C      1  0.4997310000000  0.4942540000000  0.6073780000000 1.0
C      1  0.5216930000000  0.4011650000000  0.5580120000000 1.0
C      1  0.5026780000000  0.4049840000000  0.4635560000000 1.0
C      1  0.5063040000000  0.4633650000000  0.4066950000000 1.0
C      1  0.4318350000000  0.4671020000000  0.5584510000000 1.0
C      1  0.4242630000000  0.4415690000000  0.5048850000000 1.0
C      1  0.4285190000000  0.4507760000000  0.4526720000000 1.0
C      1  0.4329120000000  0.5003030000000  0.4180890000000 1.0
C      1  0.4333350000000  0.5581310000000  0.4537470000000 1.0
C      1  0.4382810000000  0.5795290000000  0.5162060000000 1.0
C      1  0.4397100000000  0.5238830000000  0.5737810000000 1.0
C      1  0.4000560000000  0.5050900000000  0.5414820000000 1.0
C      1  0.4197350000000  0.4853900000000  0.5324550000000 1.0
C      1  0.4226710000000  0.4730280000000  0.5022620000000 1.0
C      1  0.4153570000000  0.4957860000000  0.4780300000000 1.0
C      1  0.4051880000000  0.5282290000000  0.4782940000000 1.0
C      1  0.4031370000000  0.5530730000000  0.5002790000000 1.0
C      1  0.4006320000000  0.5372070000000  0.5302860000000 1.0
C      1  0.4781480000000  0.4392510000000  0.5570290000000 1.0
C      1  0.5023360000000  0.4216670000000  0.4997010000000 1.0
C      1  0.4715810000000  0.4489140000000  0.4399200000000 1.0
C      1  0.4983190000000  0.5073860000000  0.4240370000000 1.0
C      1  0.4932860000000  0.5746310000000  0.4718410000000 1.0
C      1  0.4893000000000  0.5689190000000  0.5264590000000 1.0
C      1  0.4930070000000  0.5162350000000  0.5748110000000 1.0
C      1  0.5577540000000  0.5047180000000  0.4979500000000 1.0
C      1  0.5213700000000  0.4884670000000  0.4967930000000 1.0
C      1  0.4196610000000  0.5188090000000  0.5100910000000 1.0
C      1  0.4905480000000  0.4917150000000  0.4960910000000 1.0
C      1  0.3932120000000  0.4995340000000  0.5025240000000 1.0
C      1  0.4679320000000  0.5022930000000  0.5100460000000 1.0
END
