TITL C-3289324-3781-481 0.00217403670283855 125000 -995.40934613899 0 0 183 (C1) n - 1
REM
REM in /nfs/bkarasulu/CARBON/AIRSS/Generating-Clusters/AIREBO/with-SteepDescent/Higher-Symm/SD-CG/HFTN-CG
REM
REM
REM
REM
REM
REM ./C.cell (b20cbc046b6831c77cfcea5457e17084)
REM
REM compiler GCC version 9.2.1 20190827 (Red Hat 9.2.1-1)
REM options -cpp -mtune=generic -march=x86-64 -g -O0 -fpre-include=/usr/include/finclude/math-vector-fortran.h
REM seed 342141281 1750533881 -1963512672 -329769466 1944635296 -1207021384 457863604 -952875571 -914252082 -1368859836 493655724 1207031773 532887333 1700217295 -685957616 -1072121468 -1844417864 1279292797 339700486 1647717998 -593270414 1988235091 -460088870 1751356296 -1595951822 -939872967 -983968517 -1619885860 1057271952 -1665004187 -1838103751 579914030 2078382527
REM
CELL 1.54180   50.00000   50.00000   50.00000   90.00000   90.00000   90.00000
LATT -1
SFAC C  
C      1  0.5382850000000  0.4923280000000  0.6086860000000 1.0
C      1  0.5205640000000  0.3951960000000  0.5046030000000 1.0
C      1  0.5269080000000  0.4951260000000  0.3971820000000 1.0
C      1  0.5340160000000  0.6079030000000  0.5091680000000 1.0
C      1  0.4748000000000  0.4951950000000  0.6079780000000 1.0
C      1  0.4783500000000  0.5958260000000  0.5026980000000 1.0
C      1  0.4740860000000  0.5041390000000  0.3983220000000 1.0
C      1  0.4604740000000  0.3884030000000  0.5020670000000 1.0
C      1  0.5965700000000  0.4843470000000  0.5243850000000 1.0
C      1  0.6024020000000  0.4825780000000  0.4799000000000 1.0
C      1  0.5976340000000  0.5259250000000  0.4762500000000 1.0
C      1  0.6161540000000  0.5386330000000  0.5134560000000 1.0
C      1  0.3922630000000  0.5388690000000  0.5317540000000 1.0
C      1  0.3904400000000  0.5298470000000  0.4882470000000 1.0
C      1  0.3965850000000  0.4738520000000  0.4650650000000 1.0
C      1  0.3967320000000  0.4681740000000  0.5294980000000 1.0
C      1  0.4187550000000  0.4939550000000  0.5320140000000 1.0
C      1  0.4176470000000  0.4769980000000  0.4908710000000 1.0
C      1  0.4256210000000  0.5100560000000  0.4701750000000 1.0
C      1  0.4227550000000  0.5383970000000  0.5160530000000 1.0
C      1  0.5884780000000  0.5233550000000  0.5260480000000 1.0
C      1  0.5732100000000  0.5456340000000  0.4866690000000 1.0
C      1  0.5759200000000  0.4860840000000  0.4587620000000 1.0
C      1  0.5779430000000  0.4667370000000  0.5124470000000 1.0
C      1  0.5812980000000  0.5163080000000  0.5873570000000 1.0
C      1  0.5798560000000  0.4177280000000  0.5077880000000 1.0
C      1  0.5833670000000  0.4978410000000  0.4106850000000 1.0
C      1  0.5767700000000  0.5967930000000  0.4873440000000 1.0
C      1  0.4189250000000  0.4944750000000  0.5845880000000 1.0
C      1  0.4228810000000  0.5877120000000  0.5021900000000 1.0
C      1  0.4159890000000  0.5144260000000  0.4184360000000 1.0
C      1  0.4175270000000  0.4144710000000  0.4881960000000 1.0
C      1  0.5212930000000  0.5427590000000  0.5546700000000 1.0
C      1  0.5195330000000  0.4367880000000  0.5431100000000 1.0
C      1  0.5216210000000  0.4615700000000  0.4442020000000 1.0
C      1  0.5258220000000  0.5569550000000  0.4605330000000 1.0
C      1  0.4740190000000  0.4571580000000  0.5625550000000 1.0
C      1  0.4746420000000  0.5536730000000  0.5389820000000 1.0
C      1  0.4807990000000  0.5370500000000  0.4390330000000 1.0
C      1  0.4716500000000  0.4452070000000  0.4611200000000 1.0
C      1  0.5099400000000  0.4788110000000  0.4172750000000 1.0
C      1  0.5112460000000  0.5824860000000  0.4776160000000 1.0
C      1  0.5157850000000  0.5232740000000  0.5787650000000 1.0
C      1  0.5034660000000  0.4149060000000  0.5226100000000 1.0
C      1  0.4957480000000  0.5162310000000  0.4171100000000 1.0
C      1  0.4757820000000  0.4154150000000  0.4769750000000 1.0
C      1  0.4899800000000  0.4759800000000  0.5859860000000 1.0
C      1  0.4928550000000  0.5738270000000  0.5184810000000 1.0
C      1  0.4668270000000  0.5628110000000  0.4839220000000 1.0
C      1  0.4644290000000  0.5085020000000  0.5729070000000 1.0
C      1  0.4563740000000  0.4339550000000  0.5178410000000 1.0
C      1  0.4672880000000  0.4819710000000  0.4305740000000 1.0
C      1  0.5313960000000  0.4267500000000  0.4839240000000 1.0
C      1  0.5403490000000  0.4765910000000  0.5722470000000 1.0
C      1  0.5330660000000  0.5600340000000  0.5208740000000 1.0
C      1  0.5400490000000  0.5105070000000  0.4311370000000 1.0
C      1  0.5599270000000  0.4225870000000  0.5684610000000 1.0
C      1  0.5589490000000  0.4302540000000  0.4310040000000 1.0
C      1  0.5521630000000  0.5841310000000  0.4482860000000 1.0
C      1  0.5509670000000  0.5521610000000  0.5817790000000 1.0
C      1  0.4417990000000  0.5714820000000  0.5699060000000 1.0
C      1  0.4477470000000  0.5501070000000  0.4205580000000 1.0
C      1  0.4436650000000  0.4203330000000  0.4477350000000 1.0
C      1  0.4403060000000  0.4355440000000  0.5756500000000 1.0
C      1  0.5196460000000  0.4672600000000  0.5952240000000 1.0
C      1  0.5080690000000  0.4055020000000  0.4744660000000 1.0
C      1  0.5237830000000  0.5279130000000  0.4068750000000 1.0
C      1  0.5204860000000  0.5876180000000  0.5298000000000 1.0
C      1  0.4861520000000  0.5240040000000  0.5931910000000 1.0
C      1  0.4808150000000  0.5900150000000  0.4690790000000 1.0
C      1  0.4801480000000  0.4711340000000  0.4045040000000 1.0
C      1  0.4712910000000  0.4072980000000  0.5247800000000 1.0
C      1  0.5932130000000  0.4849340000000  0.5520940000000 1.0
C      1  0.6022250000000  0.4511290000000  0.4848640000000 1.0
C      1  0.5946730000000  0.5305700000000  0.4455700000000 1.0
C      1  0.5940790000000  0.5617890000000  0.5166700000000 1.0
C      1  0.4068030000000  0.5278700000000  0.5543190000000 1.0
C      1  0.4040440000000  0.5522610000000  0.4781090000000 1.0
C      1  0.4088450000000  0.4752380000000  0.4407400000000 1.0
C      1  0.4023890000000  0.4404510000000  0.5229690000000 1.0
C      1  0.4317310000000  0.4488990000000  0.5301370000000 1.0
C      1  0.4398270000000  0.4740400000000  0.4446720000000 1.0
C      1  0.4342710000000  0.5412790000000  0.4758100000000 1.0
C      1  0.4386760000000  0.5264430000000  0.5436170000000 1.0
C      1  0.5644220000000  0.5477620000000  0.5256250000000 1.0
C      1  0.5627800000000  0.5314480000000  0.4575760000000 1.0
C      1  0.5721990000000  0.4577280000000  0.4740890000000 1.0
C      1  0.5678270000000  0.4689240000000  0.5571890000000 1.0
C      1  0.5120150000000  0.5190450000000  0.4770320000000 1.0
C      1  0.5319970000000  0.5075040000000  0.5178470000000 1.0
C      1  0.5277330000000  0.4700860000000  0.5096590000000 1.0
C      1  0.5048350000000  0.4758240000000  0.4775580000000 1.0
C      1  0.4781970000000  0.4715250000000  0.4982520000000 1.0
C      1  0.4934050000000  0.4767020000000  0.5342160000000 1.0
C      1  0.4822450000000  0.5148450000000  0.5230890000000 1.0
C      1  0.4810230000000  0.5069530000000  0.4841020000000 1.0
C      1  0.5291260000000  0.4228270000000  0.5704250000000 1.0
C      1  0.5282490000000  0.4310560000000  0.4321070000000 1.0
C      1  0.5281990000000  0.5748170000000  0.4315500000000 1.0
C      1  0.5258410000000  0.5686840000000  0.5762370000000 1.0
C      1  0.4719770000000  0.5694020000000  0.5690400000000 1.0
C      1  0.4744280000000  0.5647260000000  0.4232040000000 1.0
C      1  0.4695230000000  0.4265730000000  0.4320150000000 1.0
C      1  0.4708310000000  0.4273300000000  0.5749150000000 1.0
C      1  0.4887790000000  0.4017130000000  0.4304950000000 1.0
C      1  0.4945490000000  0.5650570000000  0.3988430000000 1.0
C      1  0.4885400000000  0.5961160000000  0.5654750000000 1.0
C      1  0.4903020000000  0.4274600000000  0.5997520000000 1.0
C      1  0.5070740000000  0.5982120000000  0.4303050000000 1.0
C      1  0.5106440000000  0.4319690000000  0.4050060000000 1.0
C      1  0.5083330000000  0.4001340000000  0.5597910000000 1.0
C      1  0.5072770000000  0.5668320000000  0.6009350000000 1.0
C      1  0.6009230000000  0.4984030000000  0.5754790000000 1.0
C      1  0.6018980000000  0.4231260000000  0.4904210000000 1.0
C      1  0.5990790000000  0.5200980000000  0.4199190000000 1.0
C      1  0.5917250000000  0.5894710000000  0.5115020000000 1.0
C      1  0.4036360000000  0.5177500000000  0.5801550000000 1.0
C      1  0.4036750000000  0.5800700000000  0.4825820000000 1.0
C      1  0.4025040000000  0.4900950000000  0.4179340000000 1.0
C      1  0.4008140000000  0.4156610000000  0.5100510000000 1.0
C      1  0.4182970000000  0.4783470000000  0.5615350000000 1.0
C      1  0.4186590000000  0.4446760000000  0.4803660000000 1.0
C      1  0.4154960000000  0.5262980000000  0.4440330000000 1.0
C      1  0.4202290000000  0.5713300000000  0.5246000000000 1.0
C      1  0.5780230000000  0.5233710000000  0.5542590000000 1.0
C      1  0.5884110000000  0.5732460000000  0.4737030000000 1.0
C      1  0.5844050000000  0.4760580000000  0.4283820000000 1.0
C      1  0.5780670000000  0.4403660000000  0.5248660000000 1.0
C      1  0.5340530000000  0.4388070000000  0.5138440000000 1.0
C      1  0.5430430000000  0.4855890000000  0.4500310000000 1.0
C      1  0.5431320000000  0.5612400000000  0.4894900000000 1.0
C      1  0.5521840000000  0.5053470000000  0.5594650000000 1.0
C      1  0.4542010000000  0.5507070000000  0.5119180000000 1.0
C      1  0.4598960000000  0.5136240000000  0.4343830000000 1.0
C      1  0.4509250000000  0.4446440000000  0.4880730000000 1.0
C      1  0.4676090000000  0.4880570000000  0.5498450000000 1.0
C      1  0.4888370000000  0.5422590000000  0.4679860000000 1.0
C      1  0.4849620000000  0.5244820000000  0.5533240000000 1.0
C      1  0.4818670000000  0.4471930000000  0.5303510000000 1.0
C      1  0.4838000000000  0.4726040000000  0.4543990000000 1.0
C      1  0.5100940000000  0.4453530000000  0.4718280000000 1.0
C      1  0.5157680000000  0.4688430000000  0.5538940000000 1.0
C      1  0.5078520000000  0.5372950000000  0.5238830000000 1.0
C      1  0.5194370000000  0.5282050000000  0.4468270000000 1.0
C      1  0.5469640000000  0.5194000000000  0.5899880000000 1.0
C      1  0.5510400000000  0.4102880000000  0.5047940000000 1.0
C      1  0.5568780000000  0.5039720000000  0.4041490000000 1.0
C      1  0.5437410000000  0.5938220000000  0.4797820000000 1.0
C      1  0.4445700000000  0.4957190000000  0.5951820000000 1.0
C      1  0.4491550000000  0.5902310000000  0.4935220000000 1.0
C      1  0.4450480000000  0.5200970000000  0.4047660000000 1.0
C      1  0.4445530000000  0.4019810000000  0.4761210000000 1.0
C      1  0.5475440000000  0.4835110000000  0.5338180000000 1.0
C      1  0.5545260000000  0.4806040000000  0.4920310000000 1.0
C      1  0.5446760000000  0.5084870000000  0.4751210000000 1.0
C      1  0.5520450000000  0.5250450000000  0.5035510000000 1.0
C      1  0.4508160000000  0.5017260000000  0.5236230000000 1.0
C      1  0.4532640000000  0.5218660000000  0.4963160000000 1.0
C      1  0.4543560000000  0.4982670000000  0.4642120000000 1.0
C      1  0.4459120000000  0.4714040000000  0.5089280000000 1.0
C      1  0.4817560000000  0.5898900000000  0.4391000000000 1.0
C      1  0.4834990000000  0.5544650000000  0.5934300000000 1.0
C      1  0.4816680000000  0.4067500000000  0.5550760000000 1.0
C      1  0.4841590000000  0.4406110000000  0.4075160000000 1.0
C      1  0.5124740000000  0.4064140000000  0.4441460000000 1.0
C      1  0.5162350000000  0.4367360000000  0.5945570000000 1.0
C      1  0.5154890000000  0.5915870000000  0.5591380000000 1.0
C      1  0.5207450000000  0.5577210000000  0.4067890000000 1.0
C      1  0.4308060000000  0.5590630000000  0.5491370000000 1.0
C      1  0.4294140000000  0.4536220000000  0.5592420000000 1.0
C      1  0.4319410000000  0.4450370000000  0.4529740000000 1.0
C      1  0.4313810000000  0.5508170000000  0.4432740000000 1.0
C      1  0.5720220000000  0.4401990000000  0.5520320000000 1.0
C      1  0.5685980000000  0.5529590000000  0.5589660000000 1.0
C      1  0.5718830000000  0.5635580000000  0.4510710000000 1.0
C      1  0.5729780000000  0.4506370000000  0.4412550000000 1.0
C      1  0.5041820000000  0.5539510000000  0.4944470000000 1.0
C      1  0.4913570000000  0.4357620000000  0.4986440000000 1.0
C      1  0.5045170000000  0.4977010000000  0.4442360000000 1.0
C      1  0.5025970000000  0.4977160000000  0.5665290000000 1.0
C      1  0.4134650000000  0.5088850000000  0.5019200000000 1.0
C      1  0.6070850000000  0.5078510000000  0.5021730000000 1.0
C      1  0.5030700000000  0.4937260000000  0.5064160000000 1.0
END
