TITL C-3289325-7307-328 0.00100934172247802 125000 -652.260980098598 0 0 122 (C1) n - 1
REM
REM in /nfs/bkarasulu/CARBON/AIRSS/Generating-Clusters/AIREBO/with-SteepDescent/Higher-Symm/SD-CG/HFTN-CG
REM
REM
REM
REM
REM
REM ./C.cell (b20cbc046b6831c77cfcea5457e17084)
REM
REM compiler GCC version 9.2.1 20190827 (Red Hat 9.2.1-1)
REM options -cpp -mtune=generic -march=x86-64 -g -O0 -fpre-include=/usr/include/finclude/math-vector-fortran.h
REM seed 1466377981 -81220973 2019734640 -1211010840 -1846070689 1681225865 497085745 1627016231 -45940276 1373701784 -1824434533 1985087065 1615199200 1127031649 309611591 1498946894 1173647336 1067086325 1575725067 1276549518 1529671392 1904781098 576766935 101770037 1195035035 -1213340605 -1184464644 -535413842 1479685491 -1405324718 -1637004754 -1904968708 -225883975
REM
CELL 1.54180   50.00000   50.00000   50.00000   90.00000   90.00000   90.00000
LATT -1
SFAC C  
C      1  0.4738360000000  0.4768410000000  0.4489510000000 1.0
C      1  0.4841400000000  0.4487790000000  0.5314810000000 1.0
C      1  0.4720620000000  0.5303980000000  0.5575880000000 1.0
C      1  0.4808840000000  0.5585720000000  0.4627320000000 1.0
C      1  0.5327890000000  0.4667830000000  0.5609140000000 1.0
C      1  0.5201910000000  0.4426680000000  0.4643800000000 1.0
C      1  0.5174140000000  0.5183650000000  0.4429700000000 1.0
C      1  0.5209110000000  0.5470090000000  0.5310650000000 1.0
C      1  0.4877080000000  0.5575970000000  0.4356690000000 1.0
C      1  0.4826120000000  0.4478890000000  0.4357830000000 1.0
C      1  0.4988270000000  0.4327450000000  0.5576320000000 1.0
C      1  0.4807490000000  0.5604330000000  0.5581820000000 1.0
C      1  0.5086570000000  0.5625460000000  0.5577650000000 1.0
C      1  0.5274630000000  0.4353570000000  0.5596490000000 1.0
C      1  0.5100090000000  0.4423180000000  0.4381840000000 1.0
C      1  0.5143930000000  0.5493540000000  0.4325430000000 1.0
C      1  0.4818190000000  0.4402530000000  0.5807670000000 1.0
C      1  0.4589920000000  0.5740430000000  0.5473230000000 1.0
C      1  0.4640880000000  0.5507940000000  0.4185910000000 1.0
C      1  0.4648980000000  0.4388450000000  0.4575610000000 1.0
C      1  0.5285520000000  0.4532860000000  0.4174670000000 1.0
C      1  0.5323750000000  0.5662010000000  0.4444070000000 1.0
C      1  0.5371030000000  0.5591310000000  0.5657100000000 1.0
C      1  0.5509900000000  0.4252280000000  0.5482740000000 1.0
C      1  0.5156770000000  0.4980480000000  0.4081800000000 1.0
C      1  0.5134250000000  0.4139920000000  0.5047930000000 1.0
C      1  0.5111370000000  0.5088060000000  0.5729010000000 1.0
C      1  0.5218460000000  0.5888840000000  0.4925300000000 1.0
C      1  0.4828580000000  0.4920680000000  0.5816500000000 1.0
C      1  0.4842830000000  0.4138660000000  0.4965540000000 1.0
C      1  0.4819400000000  0.5004330000000  0.4046850000000 1.0
C      1  0.4928000000000  0.5848110000000  0.5001950000000 1.0
C      1  0.5839480000000  0.5130260000000  0.5493620000000 1.0
C      1  0.5837120000000  0.5366070000000  0.4871010000000 1.0
C      1  0.5903730000000  0.4800430000000  0.4666950000000 1.0
C      1  0.5890640000000  0.4653060000000  0.5251460000000 1.0
C      1  0.4068250000000  0.5292840000000  0.4728790000000 1.0
C      1  0.4135630000000  0.5417150000000  0.5232620000000 1.0
C      1  0.4199220000000  0.4825150000000  0.5389390000000 1.0
C      1  0.4096270000000  0.4635420000000  0.4765510000000 1.0
C      1  0.4012820000000  0.5426090000000  0.4964750000000 1.0
C      1  0.4087750000000  0.4975480000000  0.4760900000000 1.0
C      1  0.4161750000000  0.4729610000000  0.5065160000000 1.0
C      1  0.4085010000000  0.5134320000000  0.5385250000000 1.0
C      1  0.5817800000000  0.5244410000000  0.5187990000000 1.0
C      1  0.5913490000000  0.4861350000000  0.5453620000000 1.0
C      1  0.5965630000000  0.4738090000000  0.4969390000000 1.0
C      1  0.5861700000000  0.5135670000000  0.4626460000000 1.0
C      1  0.4474120000000  0.4835800000000  0.5105410000000 1.0
C      1  0.4516450000000  0.5173520000000  0.5093180000000 1.0
C      1  0.4548240000000  0.5222890000000  0.4758250000000 1.0
C      1  0.4393390000000  0.4929570000000  0.4804300000000 1.0
C      1  0.5382690000000  0.4795610000000  0.4749940000000 1.0
C      1  0.5570470000000  0.5059810000000  0.4784790000000 1.0
C      1  0.5522130000000  0.5103170000000  0.5255370000000 1.0
C      1  0.5455150000000  0.4818140000000  0.5081600000000 1.0
C      1  0.5025880000000  0.4824250000000  0.4337360000000 1.0
C      1  0.5151900000000  0.4389450000000  0.5217200000000 1.0
C      1  0.4903720000000  0.5077350000000  0.5459810000000 1.0
C      1  0.5038220000000  0.5432170000000  0.4818190000000 1.0
C      1  0.5075660000000  0.4784300000000  0.5473070000000 1.0
C      1  0.5018650000000  0.4585230000000  0.4847290000000 1.0
C      1  0.4862130000000  0.5122190000000  0.4351250000000 1.0
C      1  0.4938380000000  0.5543040000000  0.5123780000000 1.0
C      1  0.4488130000000  0.4937700000000  0.4103860000000 1.0
C      1  0.4560590000000  0.4098560000000  0.5095010000000 1.0
C      1  0.4558850000000  0.4962360000000  0.6012040000000 1.0
C      1  0.4629640000000  0.5866980000000  0.4838870000000 1.0
C      1  0.5297650000000  0.5077340000000  0.6005770000000 1.0
C      1  0.5409280000000  0.4138320000000  0.4849220000000 1.0
C      1  0.5464010000000  0.5098600000000  0.4168450000000 1.0
C      1  0.5492480000000  0.5854980000000  0.5109590000000 1.0
C      1  0.5671720000000  0.4434870000000  0.5245410000000 1.0
C      1  0.5622270000000  0.5385990000000  0.5550910000000 1.0
C      1  0.5572200000000  0.5459440000000  0.4680220000000 1.0
C      1  0.5659370000000  0.4648030000000  0.4507350000000 1.0
C      1  0.4369330000000  0.4543030000000  0.4637500000000 1.0
C      1  0.4290590000000  0.5383180000000  0.4506330000000 1.0
C      1  0.4391760000000  0.5588260000000  0.5242540000000 1.0
C      1  0.4465470000000  0.4644000000000  0.5477260000000 1.0
C      1  0.4796830000000  0.4717830000000  0.5068420000000 1.0
C      1  0.4804080000000  0.5038900000000  0.5180440000000 1.0
C      1  0.4844740000000  0.5177380000000  0.4871840000000 1.0
C      1  0.4726610000000  0.4869920000000  0.4772490000000 1.0
C      1  0.5112430000000  0.4890100000000  0.4895130000000 1.0
C      1  0.5250250000000  0.5172230000000  0.4760990000000 1.0
C      1  0.5258610000000  0.5214840000000  0.5091520000000 1.0
C      1  0.5175860000000  0.4911040000000  0.5219880000000 1.0
C      1  0.5284520000000  0.5188330000000  0.5485400000000 1.0
C      1  0.5302370000000  0.5640150000000  0.4767310000000 1.0
C      1  0.5339560000000  0.4740820000000  0.4438230000000 1.0
C      1  0.5385600000000  0.4577200000000  0.5286360000000 1.0
C      1  0.4612020000000  0.5290160000000  0.4445480000000 1.0
C      1  0.4672280000000  0.5413900000000  0.5258020000000 1.0
C      1  0.4781820000000  0.4669150000000  0.5599760000000 1.0
C      1  0.4816940000000  0.4352860000000  0.4791480000000 1.0
C      1  0.5297020000000  0.3847840000000  0.4985060000000 1.0
C      1  0.5249040000000  0.5147170000000  0.6260720000000 1.0
C      1  0.5407630000000  0.6145080000000  0.5007260000000 1.0
C      1  0.5327450000000  0.5177890000000  0.3887550000000 1.0
C      1  0.4443470000000  0.3858400000000  0.5149560000000 1.0
C      1  0.4656750000000  0.4802970000000  0.3846480000000 1.0
C      1  0.4774240000000  0.6137250000000  0.4971570000000 1.0
C      1  0.4500150000000  0.4934430000000  0.6271480000000 1.0
C      1  0.4520200000000  0.4398790000000  0.5247290000000 1.0
C      1  0.4528510000000  0.5174860000000  0.5749910000000 1.0
C      1  0.4483740000000  0.5607030000000  0.4675080000000 1.0
C      1  0.4435110000000  0.4779280000000  0.4400020000000 1.0
C      1  0.5516500000000  0.4415050000000  0.4683150000000 1.0
C      1  0.5500440000000  0.5275400000000  0.4456620000000 1.0
C      1  0.5518090000000  0.5574700000000  0.5287800000000 1.0
C      1  0.5437370000000  0.4863770000000  0.5786340000000 1.0
C      1  0.4378050000000  0.5726570000000  0.4975960000000 1.0
C      1  0.4307050000000  0.5089510000000  0.4335090000000 1.0
C      1  0.4437930000000  0.4361070000000  0.4917000000000 1.0
C      1  0.4452320000000  0.4872160000000  0.5699810000000 1.0
C      1  0.5650220000000  0.5604120000000  0.4984510000000 1.0
C      1  0.5542550000000  0.5167880000000  0.5787370000000 1.0
C      1  0.5662080000000  0.4306680000000  0.4971320000000 1.0
C      1  0.5660330000000  0.4973170000000  0.4405900000000 1.0
C      1  0.4081310000000  0.5052550000000  0.5088010000000 1.0
C      1  0.5800320000000  0.4993750000000  0.4994390000000 1.0
END
