TITL C-3289328-6581-668 0.000317804738539766 125000 -291.653246317581 0 0 52 (C1) n - 1
REM
REM in /nfs/bkarasulu/CARBON/AIRSS/Generating-Clusters/AIREBO/with-SteepDescent/Higher-Symm/SD-CG/HFTN-CG
REM
REM
REM
REM
REM
REM ./C.cell (b20cbc046b6831c77cfcea5457e17084)
REM
REM compiler GCC version 9.2.1 20190827 (Red Hat 9.2.1-1)
REM options -cpp -mtune=generic -march=x86-64 -g -O0 -fpre-include=/usr/include/finclude/math-vector-fortran.h
REM seed 1747427892 -1607433541 668670444 1723969245 -1807514205 -1019975895 1731651160 -1154428688 624962343 -1456856395 1678397154 758847113 -118078146 -1466025898 -1342161221 -1566489246 -316067257 1439619303 -625861997 -1585647764 1368040564 -1421991968 1288952913 774704843 -3428548 64205572 -627597743 -1915824800 140482317 1864508448 1412180645 -1635642883 157332937
REM
CELL 1.54180   50.00000   50.00000   50.00000   90.00000   90.00000   90.00000
LATT -1
SFAC C  
C      1  0.4904270000000  0.4669050000000  0.4433480000000 1.0
C      1  0.5084090000000  0.5314730000000  0.4420690000000 1.0
C      1  0.4915740000000  0.4671030000000  0.5573730000000 1.0
C      1  0.5102280000000  0.5317570000000  0.5584760000000 1.0
C      1  0.5680980000000  0.4694280000000  0.5383410000000 1.0
C      1  0.4370880000000  0.5285640000000  0.5409510000000 1.0
C      1  0.5635250000000  0.4717600000000  0.4576740000000 1.0
C      1  0.4354280000000  0.5328800000000  0.4613950000000 1.0
C      1  0.4679820000000  0.4809490000000  0.4844900000000 1.0
C      1  0.5258040000000  0.5136930000000  0.4858800000000 1.0
C      1  0.4721840000000  0.4839780000000  0.5133990000000 1.0
C      1  0.5325810000000  0.5145480000000  0.5147510000000 1.0
C      1  0.5187000000000  0.5400610000000  0.4708370000000 1.0
C      1  0.4847320000000  0.4598720000000  0.4692050000000 1.0
C      1  0.5190060000000  0.5400600000000  0.5297630000000 1.0
C      1  0.4805570000000  0.4579090000000  0.5286960000000 1.0
C      1  0.5436880000000  0.4725290000000  0.4347830000000 1.0
C      1  0.4522570000000  0.5161700000000  0.4370240000000 1.0
C      1  0.5481410000000  0.4871330000000  0.5595960000000 1.0
C      1  0.4565090000000  0.5274570000000  0.5638850000000 1.0
C      1  0.4705860000000  0.5092860000000  0.5313270000000 1.0
C      1  0.5235530000000  0.4895380000000  0.5285950000000 1.0
C      1  0.4715030000000  0.5089400000000  0.4703030000000 1.0
C      1  0.5292660000000  0.4892950000000  0.4678170000000 1.0
C      1  0.5555970000000  0.4574770000000  0.5148000000000 1.0
C      1  0.4439370000000  0.5482880000000  0.5158610000000 1.0
C      1  0.5580120000000  0.4533760000000  0.4857390000000 1.0
C      1  0.4443510000000  0.5474250000000  0.4867080000000 1.0
C      1  0.4716950000000  0.5392410000000  0.5243370000000 1.0
C      1  0.5278150000000  0.4628970000000  0.5210860000000 1.0
C      1  0.4714120000000  0.5383660000000  0.4777570000000 1.0
C      1  0.5300750000000  0.4596920000000  0.4756030000000 1.0
C      1  0.5614020000000  0.4996530000000  0.4719060000000 1.0
C      1  0.4391600000000  0.5000010000000  0.4647980000000 1.0
C      1  0.5722260000000  0.5009050000000  0.5412360000000 1.0
C      1  0.4378850000000  0.5003380000000  0.5286330000000 1.0
C      1  0.4327610000000  0.4773790000000  0.5142490000000 1.0
C      1  0.5645390000000  0.5191110000000  0.5187940000000 1.0
C      1  0.4280670000000  0.4798050000000  0.4864570000000 1.0
C      1  0.5648300000000  0.5222940000000  0.4868520000000 1.0
C      1  0.5506530000000  0.5473440000000  0.5283800000000 1.0
C      1  0.4475800000000  0.4544420000000  0.5237730000000 1.0
C      1  0.5505540000000  0.5438810000000  0.4772570000000 1.0
C      1  0.4450200000000  0.4607540000000  0.4696120000000 1.0
C      1  0.4950840000000  0.5494040000000  0.4869020000000 1.0
C      1  0.5055940000000  0.4493750000000  0.4842250000000 1.0
C      1  0.4954780000000  0.5491770000000  0.5144280000000 1.0
C      1  0.5048230000000  0.4491580000000  0.5122880000000 1.0
C      1  0.4852910000000  0.5073430000000  0.4406970000000 1.0
C      1  0.5141410000000  0.4893090000000  0.4392930000000 1.0
C      1  0.4857150000000  0.5102180000000  0.5596880000000 1.0
C      1  0.5144760000000  0.4920590000000  0.5586620000000 1.0
END
