TITL C-3289321-8710-558 -0.00162271000213283 125000 -808.349154846876 0 0 152 (C1) n - 1
REM
REM in /nfs/bkarasulu/CARBON/AIRSS/Generating-Clusters/AIREBO/with-SteepDescent/Higher-Symm/SD-CG/HFTN-CG
REM
REM
REM
REM
REM
REM ./C.cell (b20cbc046b6831c77cfcea5457e17084)
REM
REM compiler GCC version 9.2.1 20190827 (Red Hat 9.2.1-1)
REM options -cpp -mtune=generic -march=x86-64 -g -O0 -fpre-include=/usr/include/finclude/math-vector-fortran.h
REM seed 750745936 -460022821 535713173 1079090327 1260788115 591540827 -846555212 -775657471 -1198130156 1534852695 -2013041130 -768817114 -307884460 264128523 -840778036 149233092 -318358844 2089300298 -40763142 441727008 518632003 1530274290 -992140178 608044013 1838530619 1872178024 -716793693 855800631 1757774921 -286956502 -254021315 165406742 -361884368
REM
CELL 1.54180   50.00000   50.00000   50.00000   90.00000   90.00000   90.00000
LATT -1
SFAC C  
C      1  0.5623920000000  0.4730790000000  0.4274020000000 1.0
C      1  0.5663800000000  0.4535800000000  0.5510010000000 1.0
C      1  0.5639880000000  0.5620740000000  0.5180850000000 1.0
C      1  0.4376210000000  0.4718130000000  0.5699480000000 1.0
C      1  0.4331120000000  0.4513740000000  0.4475140000000 1.0
C      1  0.4363310000000  0.5615000000000  0.4822370000000 1.0
C      1  0.4426280000000  0.5240590000000  0.5650040000000 1.0
C      1  0.4335720000000  0.5566000000000  0.4487040000000 1.0
C      1  0.4445010000000  0.4384820000000  0.4834210000000 1.0
C      1  0.5562540000000  0.5199110000000  0.4330150000000 1.0
C      1  0.5660970000000  0.5587270000000  0.5505900000000 1.0
C      1  0.5596560000000  0.4384570000000  0.5219940000000 1.0
C      1  0.4702990000000  0.4815060000000  0.4807460000000 1.0
C      1  0.4764460000000  0.4873500000000  0.5320210000000 1.0
C      1  0.4790420000000  0.5261180000000  0.5000110000000 1.0
C      1  0.5290180000000  0.4895760000000  0.5169590000000 1.0
C      1  0.5235250000000  0.4868810000000  0.4673540000000 1.0
C      1  0.5268290000000  0.5259390000000  0.4983960000000 1.0
C      1  0.5149100000000  0.5166430000000  0.5269870000000 1.0
C      1  0.5154940000000  0.5156350000000  0.4719150000000 1.0
C      1  0.5155000000000  0.4732410000000  0.4945760000000 1.0
C      1  0.4868000000000  0.5070600000000  0.4793490000000 1.0
C      1  0.4840430000000  0.5157320000000  0.5290450000000 1.0
C      1  0.4863020000000  0.4766250000000  0.5056980000000 1.0
C      1  0.4721250000000  0.4564100000000  0.5569400000000 1.0
C      1  0.4759090000000  0.5717560000000  0.5042580000000 1.0
C      1  0.4654080000000  0.4730130000000  0.4364560000000 1.0
C      1  0.5296170000000  0.4560690000000  0.4427230000000 1.0
C      1  0.5356160000000  0.5671740000000  0.4904490000000 1.0
C      1  0.5344580000000  0.4742840000000  0.5650720000000 1.0
C      1  0.5464830000000  0.5465260000000  0.4461390000000 1.0
C      1  0.5390440000000  0.4349750000000  0.4965730000000 1.0
C      1  0.5332630000000  0.5311480000000  0.5679100000000 1.0
C      1  0.4583540000000  0.5507840000000  0.5524420000000 1.0
C      1  0.4680980000000  0.4287070000000  0.5051390000000 1.0
C      1  0.4609070000000  0.5252270000000  0.4267810000000 1.0
C      1  0.5137580000000  0.5461130000000  0.5444020000000 1.0
C      1  0.5156780000000  0.5322530000000  0.4438770000000 1.0
C      1  0.5098300000000  0.4434550000000  0.5099770000000 1.0
C      1  0.5041440000000  0.5539830000000  0.4669980000000 1.0
C      1  0.4816390000000  0.5265410000000  0.5576270000000 1.0
C      1  0.4916070000000  0.4369930000000  0.4819960000000 1.0
C      1  0.4822350000000  0.4597800000000  0.4631410000000 1.0
C      1  0.4964780000000  0.4743530000000  0.5526500000000 1.0
C      1  0.4959520000000  0.5511410000000  0.4952330000000 1.0
C      1  0.5200630000000  0.4641000000000  0.5355460000000 1.0
C      1  0.5040800000000  0.4736130000000  0.4465170000000 1.0
C      1  0.5201690000000  0.5542030000000  0.5151720000000 1.0
C      1  0.5236060000000  0.4440920000000  0.5763290000000 1.0
C      1  0.5247750000000  0.5938850000000  0.5084770000000 1.0
C      1  0.5282450000000  0.4607550000000  0.4108750000000 1.0
C      1  0.4767430000000  0.4428160000000  0.4254800000000 1.0
C      1  0.4760790000000  0.5926330000000  0.4828710000000 1.0
C      1  0.4709800000000  0.4605280000000  0.5887260000000 1.0
C      1  0.4737450000000  0.5543550000000  0.4199070000000 1.0
C      1  0.4762450000000  0.3970320000000  0.4804920000000 1.0
C      1  0.4745470000000  0.5328630000000  0.5980890000000 1.0
C      1  0.5256520000000  0.5587810000000  0.5863030000000 1.0
C      1  0.5225090000000  0.3972380000000  0.5155360000000 1.0
C      1  0.5250020000000  0.5345400000000  0.4027730000000 1.0
C      1  0.4465950000000  0.5314660000000  0.4947840000000 1.0
C      1  0.4391370000000  0.4777530000000  0.4676710000000 1.0
C      1  0.4437320000000  0.4804970000000  0.5382940000000 1.0
C      1  0.5597870000000  0.5305690000000  0.5054140000000 1.0
C      1  0.5583970000000  0.4800520000000  0.5311950000000 1.0
C      1  0.5561110000000  0.4826660000000  0.4585720000000 1.0
C      1  0.5647600000000  0.4650070000000  0.5013740000000 1.0
C      1  0.5602380000000  0.5283620000000  0.5388260000000 1.0
C      1  0.5610410000000  0.5154970000000  0.4665430000000 1.0
C      1  0.4383750000000  0.4674160000000  0.5000610000000 1.0
C      1  0.4411130000000  0.5277050000000  0.4614380000000 1.0
C      1  0.4375250000000  0.5131930000000  0.5365440000000 1.0
C      1  0.4446680000000  0.4218830000000  0.5503300000000 1.0
C      1  0.4388920000000  0.5840250000000  0.5325920000000 1.0
C      1  0.4361720000000  0.4809520000000  0.4210090000000 1.0
C      1  0.5593010000000  0.4233510000000  0.4497820000000 1.0
C      1  0.5630330000000  0.5861120000000  0.4686480000000 1.0
C      1  0.5603930000000  0.4868890000000  0.5831040000000 1.0
C      1  0.5735270000000  0.5650870000000  0.4480980000000 1.0
C      1  0.5662970000000  0.4222130000000  0.4807470000000 1.0
C      1  0.5616340000000  0.5192840000000  0.5824940000000 1.0
C      1  0.4296040000000  0.5677840000000  0.5588270000000 1.0
C      1  0.4396720000000  0.4177090000000  0.5202300000000 1.0
C      1  0.4328290000000  0.5115230000000  0.4189360000000 1.0
C      1  0.4073900000000  0.5375210000000  0.4998480000000 1.0
C      1  0.4107430000000  0.4893950000000  0.4823280000000 1.0
C      1  0.4104790000000  0.4846850000000  0.5310400000000 1.0
C      1  0.5927190000000  0.5368310000000  0.4996700000000 1.0
C      1  0.5905580000000  0.4877440000000  0.5209130000000 1.0
C      1  0.5884110000000  0.4865070000000  0.4684860000000 1.0
C      1  0.5969140000000  0.4685360000000  0.4935780000000 1.0
C      1  0.5898380000000  0.5184700000000  0.5287570000000 1.0
C      1  0.5946070000000  0.5186370000000  0.4709710000000 1.0
C      1  0.4049970000000  0.4652180000000  0.5061580000000 1.0
C      1  0.4115930000000  0.5208350000000  0.4739150000000 1.0
C      1  0.4058390000000  0.5180800000000  0.5266150000000 1.0
C      1  0.4923320000000  0.4326720000000  0.5816450000000 1.0
C      1  0.4940190000000  0.6047300000000  0.5172610000000 1.0
C      1  0.4954240000000  0.4606680000000  0.4033790000000 1.0
C      1  0.5084200000000  0.4326480000000  0.4184540000000 1.0
C      1  0.5044940000000  0.6071480000000  0.4846220000000 1.0
C      1  0.5031010000000  0.4597740000000  0.5991280000000 1.0
C      1  0.5070650000000  0.5604790000000  0.4169690000000 1.0
C      1  0.5091120000000  0.3896700000000  0.4852090000000 1.0
C      1  0.5079830000000  0.5357080000000  0.6039540000000 1.0
C      1  0.4914170000000  0.5604440000000  0.5875290000000 1.0
C      1  0.4890030000000  0.3918410000000  0.5117410000000 1.0
C      1  0.4920640000000  0.5388000000000  0.3954900000000 1.0
C      1  0.5422570000000  0.5740290000000  0.5625090000000 1.0
C      1  0.5419260000000  0.5135640000000  0.4102710000000 1.0
C      1  0.5374800000000  0.4141670000000  0.5306700000000 1.0
C      1  0.4568580000000  0.5729300000000  0.4364170000000 1.0
C      1  0.4558510000000  0.5144390000000  0.5878800000000 1.0
C      1  0.4589920000000  0.4143320000000  0.4680900000000 1.0
C      1  0.4523390000000  0.4315310000000  0.4431150000000 1.0
C      1  0.4525010000000  0.4864030000000  0.5914350000000 1.0
C      1  0.4557220000000  0.5841310000000  0.4656830000000 1.0
C      1  0.5445410000000  0.4296070000000  0.5576720000000 1.0
C      1  0.5459570000000  0.4858990000000  0.4053210000000 1.0
C      1  0.5445730000000  0.5845780000000  0.5302440000000 1.0
C      1  0.4886450000000  0.5657440000000  0.5563250000000 1.0
C      1  0.4943740000000  0.5203560000000  0.4239620000000 1.0
C      1  0.4920540000000  0.4200170000000  0.5276510000000 1.0
C      1  0.5160400000000  0.5722030000000  0.4437850000000 1.0
C      1  0.5038990000000  0.5164370000000  0.5767130000000 1.0
C      1  0.5090720000000  0.4154320000000  0.4675870000000 1.0
C      1  0.5265750000000  0.4235230000000  0.4447680000000 1.0
C      1  0.5065270000000  0.4872930000000  0.5794550000000 1.0
C      1  0.5293090000000  0.5906930000000  0.4688700000000 1.0
C      1  0.4768020000000  0.4241560000000  0.5543600000000 1.0
C      1  0.4913980000000  0.4891130000000  0.4215640000000 1.0
C      1  0.4728990000000  0.5851480000000  0.5337480000000 1.0
C      1  0.5858310000000  0.5079190000000  0.5609240000000 1.0
C      1  0.5969820000000  0.5492700000000  0.4617210000000 1.0
C      1  0.5838180000000  0.4466040000000  0.4711020000000 1.0
C      1  0.4137000000000  0.5043680000000  0.4441990000000 1.0
C      1  0.4185200000000  0.5483950000000  0.5353740000000 1.0
C      1  0.4201230000000  0.4424730000000  0.5264720000000 1.0
C      1  0.4111820000000  0.4729340000000  0.4394910000000 1.0
C      1  0.4274290000000  0.4469400000000  0.5573010000000 1.0
C      1  0.4203220000000  0.5677940000000  0.5087410000000 1.0
C      1  0.5842140000000  0.4761870000000  0.5659210000000 1.0
C      1  0.5748700000000  0.4496030000000  0.4409810000000 1.0
C      1  0.5854640000000  0.5672640000000  0.4860460000000 1.0
C      1  0.4562460000000  0.5512860000000  0.5206700000000 1.0
C      1  0.5525750000000  0.5468750000000  0.4765460000000 1.0
C      1  0.5445040000000  0.4532610000000  0.4711010000000 1.0
C      1  0.4588530000000  0.4517500000000  0.5282370000000 1.0
C      1  0.4551690000000  0.5022890000000  0.4504140000000 1.0
C      1  0.5439520000000  0.5037020000000  0.5509060000000 1.0
C      1  0.5615540000000  0.4980230000000  0.4957240000000 1.0
C      1  0.4353830000000  0.5009720000000  0.5048470000000 1.0
END
