TITL C-3289325-7307-705 -0.00114294136222835 125000 -515.136164903262 0 0 92 (C1) n - 1
REM
REM in /nfs/bkarasulu/CARBON/AIRSS/Generating-Clusters/AIREBO/with-SteepDescent/Higher-Symm/SD-CG/HFTN-CG
REM
REM
REM
REM
REM
REM ./C.cell (b20cbc046b6831c77cfcea5457e17084)
REM
REM compiler GCC version 9.2.1 20190827 (Red Hat 9.2.1-1)
REM options -cpp -mtune=generic -march=x86-64 -g -O0 -fpre-include=/usr/include/finclude/math-vector-fortran.h
REM seed 678729815 -1589375628 -1514817180 275200223 38945109 1885485766 1205096950 -626819025 -446878744 -89638373 1279810073 1465613270 1690889729 -1017222177 1066436738 -663859169 -997684195 -1385533311 -1856917844 -1944159996 -2036898143 1128536229 278729705 -1837059344 -1551250535 -99634928 -1728534538 -574383318 -1927061358 -1769009757 -1097323601 2126835027 -1135140388
REM
CELL 1.54180   50.00000   50.00000   50.00000   90.00000   90.00000   90.00000
LATT -1
SFAC C  
C      1  0.5054490000000  0.5157360000000  0.5866860000000 1.0
C      1  0.5057170000000  0.4334640000000  0.5332300000000 1.0
C      1  0.5219300000000  0.4333940000000  0.4589300000000 1.0
C      1  0.5023870000000  0.5359420000000  0.4152890000000 1.0
C      1  0.5289570000000  0.5775860000000  0.5032530000000 1.0
C      1  0.5721490000000  0.4971310000000  0.5502920000000 1.0
C      1  0.5658690000000  0.4515390000000  0.5156300000000 1.0
C      1  0.5754470000000  0.4646500000000  0.4611040000000 1.0
C      1  0.5684370000000  0.5239550000000  0.4634620000000 1.0
C      1  0.5759660000000  0.5421790000000  0.5141600000000 1.0
C      1  0.4111270000000  0.5323820000000  0.5610130000000 1.0
C      1  0.4297580000000  0.4527770000000  0.5495330000000 1.0
C      1  0.4467410000000  0.4395400000000  0.4632780000000 1.0
C      1  0.4092910000000  0.5030380000000  0.4324040000000 1.0
C      1  0.4015210000000  0.5647860000000  0.4858790000000 1.0
C      1  0.5375990000000  0.4619260000000  0.5540550000000 1.0
C      1  0.5479660000000  0.4266370000000  0.4695720000000 1.0
C      1  0.5356650000000  0.5115550000000  0.4273890000000 1.0
C      1  0.5522930000000  0.5729290000000  0.4874450000000 1.0
C      1  0.5462170000000  0.5404660000000  0.5573160000000 1.0
C      1  0.5225570000000  0.5592420000000  0.5680870000000 1.0
C      1  0.5069570000000  0.4537990000000  0.5615250000000 1.0
C      1  0.5020650000000  0.4298780000000  0.4799820000000 1.0
C      1  0.5211360000000  0.4852680000000  0.4161430000000 1.0
C      1  0.5144190000000  0.5603220000000  0.4620910000000 1.0
C      1  0.4405730000000  0.4361790000000  0.5299240000000 1.0
C      1  0.4326020000000  0.4508890000000  0.4437510000000 1.0
C      1  0.4063780000000  0.5297070000000  0.4393330000000 1.0
C      1  0.4021440000000  0.5626490000000  0.5135920000000 1.0
C      1  0.4115060000000  0.5054060000000  0.5689020000000 1.0
C      1  0.4194980000000  0.4830360000000  0.5233140000000 1.0
C      1  0.4116510000000  0.4759340000000  0.4929740000000 1.0
C      1  0.4095990000000  0.5035590000000  0.4752700000000 1.0
C      1  0.4121850000000  0.5278240000000  0.4966720000000 1.0
C      1  0.4162600000000  0.5148090000000  0.5254510000000 1.0
C      1  0.4610480000000  0.5217910000000  0.4767200000000 1.0
C      1  0.4646810000000  0.5326910000000  0.5070010000000 1.0
C      1  0.4677610000000  0.5080010000000  0.5303300000000 1.0
C      1  0.4696270000000  0.4835020000000  0.5104910000000 1.0
C      1  0.4601370000000  0.4915570000000  0.4792370000000 1.0
C      1  0.5285270000000  0.5231230000000  0.4648200000000 1.0
C      1  0.5183000000000  0.5332020000000  0.5116450000000 1.0
C      1  0.5337120000000  0.4990720000000  0.5400960000000 1.0
C      1  0.5304370000000  0.4638830000000  0.5017930000000 1.0
C      1  0.5370810000000  0.4920190000000  0.4702510000000 1.0
C      1  0.5565450000000  0.5270820000000  0.4336310000000 1.0
C      1  0.5760440000000  0.5697940000000  0.5006490000000 1.0
C      1  0.5679940000000  0.5219950000000  0.5679750000000 1.0
C      1  0.5595090000000  0.4468320000000  0.5443400000000 1.0
C      1  0.5714460000000  0.4343920000000  0.4578490000000 1.0
C      1  0.5061040000000  0.5431720000000  0.5832500000000 1.0
C      1  0.4784090000000  0.4455620000000  0.5464640000000 1.0
C      1  0.4764930000000  0.4446520000000  0.4773140000000 1.0
C      1  0.5029650000000  0.5093230000000  0.4050640000000 1.0
C      1  0.5062500000000  0.5682480000000  0.4884330000000 1.0
C      1  0.5487650000000  0.4756380000000  0.4506650000000 1.0
C      1  0.5466570000000  0.5500760000000  0.4647030000000 1.0
C      1  0.5477960000000  0.5432680000000  0.5248420000000 1.0
C      1  0.5451300000000  0.4894630000000  0.5695000000000 1.0
C      1  0.5442950000000  0.4345050000000  0.4991180000000 1.0
C      1  0.5065990000000  0.5088810000000  0.4448590000000 1.0
C      1  0.4891250000000  0.5495830000000  0.5075550000000 1.0
C      1  0.5174400000000  0.5269830000000  0.5450140000000 1.0
C      1  0.5191390000000  0.4736030000000  0.5291530000000 1.0
C      1  0.4848840000000  0.4740220000000  0.4740320000000 1.0
C      1  0.4358030000000  0.5413160000000  0.5168430000000 1.0
C      1  0.4408620000000  0.5014760000000  0.5423820000000 1.0
C      1  0.4422630000000  0.4677550000000  0.5057780000000 1.0
C      1  0.4343610000000  0.4816420000000  0.4691450000000 1.0
C      1  0.4323690000000  0.5283110000000  0.4695630000000 1.0
C      1  0.5845410000000  0.4790870000000  0.5242370000000 1.0
C      1  0.5804070000000  0.4716800000000  0.4929770000000 1.0
C      1  0.5863300000000  0.4956710000000  0.4699810000000 1.0
C      1  0.5849220000000  0.5199580000000  0.4922970000000 1.0
C      1  0.5871780000000  0.5121660000000  0.5241620000000 1.0
C      1  0.5223390000000  0.4599410000000  0.4389360000000 1.0
C      1  0.4984650000000  0.5477960000000  0.4419610000000 1.0
C      1  0.5269970000000  0.5674040000000  0.5352950000000 1.0
C      1  0.5104050000000  0.4865930000000  0.5698480000000 1.0
C      1  0.5132940000000  0.4284050000000  0.5073680000000 1.0
C      1  0.4974610000000  0.5545860000000  0.5381330000000 1.0
C      1  0.4911800000000  0.5071490000000  0.5507200000000 1.0
C      1  0.4892940000000  0.4695830000000  0.5293440000000 1.0
C      1  0.4983920000000  0.4797350000000  0.4477030000000 1.0
C      1  0.4806430000000  0.5278370000000  0.4553720000000 1.0
C      1  0.4072500000000  0.5489590000000  0.4632130000000 1.0
C      1  0.4135030000000  0.5516410000000  0.5400100000000 1.0
C      1  0.4276820000000  0.4785030000000  0.5619870000000 1.0
C      1  0.4492370000000  0.4387900000000  0.4971200000000 1.0
C      1  0.4229940000000  0.4794960000000  0.4393160000000 1.0
C      1  0.5217150000000  0.5114680000000  0.4936310000000 1.0
C      1  0.5063660000000  0.4824040000000  0.4927900000000 1.0
END
