TITL C-3289326-3776-26 0.0255554921648423 125000 -277.378411668151 0 0 48 (C1) n - 1
REM
REM in /nfs/bkarasulu/CARBON/AIRSS/Generating-Clusters/AIREBO/with-SteepDescent/Higher-Symm/SD-CG/HFTN-CG
REM
REM
REM
REM
REM
REM ./C.cell (b20cbc046b6831c77cfcea5457e17084)
REM
REM compiler GCC version 9.2.1 20190827 (Red Hat 9.2.1-1)
REM options -cpp -mtune=generic -march=x86-64 -g -O0 -fpre-include=/usr/include/finclude/math-vector-fortran.h
REM seed -1479348841 810183794 -1990553334 1322148566 631649112 1758083965 1109758138 -2035350913 -516488357 706836213 1779096421 778176806 1691816971 934425319 80027368 1643768325 -420570948 906987750 1997726459 -1274304882 1176306419 1217244854 338863149 270587819 -1062960281 -402015954 642881588 -274762985 810216787 -399582115 1978095685 -803603788 3321626
REM
CELL 1.54180   50.00000   50.00000   50.00000   90.00000   90.00000   90.00000
LATT -1
SFAC C  
C      1  0.5282920000000  0.5086390000000  0.4564800000000 1.0
C      1  0.5121870000000  0.4815640000000  0.4586800000000 1.0
C      1  0.4836280000000  0.4843750000000  0.4480340000000 1.0
C      1  0.4660220000000  0.5007900000000  0.4681640000000 1.0
C      1  0.5151860000000  0.5313660000000  0.4645460000000 1.0
C      1  0.4785000000000  0.4928490000000  0.5642540000000 1.0
C      1  0.4870990000000  0.5170210000000  0.5422130000000 1.0
C      1  0.5161610000000  0.5160200000000  0.5563510000000 1.0
C      1  0.5252590000000  0.4892550000000  0.5584110000000 1.0
C      1  0.5025550000000  0.4733040000000  0.5619700000000 1.0
C      1  0.4480360000000  0.5207910000000  0.4607960000000 1.0
C      1  0.5278720000000  0.5603370000000  0.4624510000000 1.0
C      1  0.5565420000000  0.5066960000000  0.4521260000000 1.0
C      1  0.5220370000000  0.4493720000000  0.4574890000000 1.0
C      1  0.4600020000000  0.4635800000000  0.4548330000000 1.0
C      1  0.4757630000000  0.4597140000000  0.5020850000000 1.0
C      1  0.4708330000000  0.4930580000000  0.4972290000000 1.0
C      1  0.4949210000000  0.5379490000000  0.4911740000000 1.0
C      1  0.5205310000000  0.5099670000000  0.5031970000000 1.0
C      1  0.5281750000000  0.4848490000000  0.4886010000000 1.0
C      1  0.4301140000000  0.5178360000000  0.4408670000000 1.0
C      1  0.5366810000000  0.5774820000000  0.4445290000000 1.0
C      1  0.5681510000000  0.5147930000000  0.4291950000000 1.0
C      1  0.5288860000000  0.4308810000000  0.4394220000000 1.0
C      1  0.4515790000000  0.4466520000000  0.4349620000000 1.0
C      1  0.4352330000000  0.4800090000000  0.5334180000000 1.0
C      1  0.4633150000000  0.5579590000000  0.5217630000000 1.0
C      1  0.5480400000000  0.5403650000000  0.5311350000000 1.0
C      1  0.5618460000000  0.4770650000000  0.5220340000000 1.0
C      1  0.5041210000000  0.4347770000000  0.5302500000000 1.0
C      1  0.5347970000000  0.5366450000000  0.5549420000000 1.0
C      1  0.5495240000000  0.4820190000000  0.5460460000000 1.0
C      1  0.5024330000000  0.4466480000000  0.5547900000000 1.0
C      1  0.4516270000000  0.4807060000000  0.5548070000000 1.0
C      1  0.4680340000000  0.5417920000000  0.5434760000000 1.0
C      1  0.4683270000000  0.5516020000000  0.4948590000000 1.0
C      1  0.5340980000000  0.5348990000000  0.5073690000000 1.0
C      1  0.5577800000000  0.4837850000000  0.4951100000000 1.0
C      1  0.4995140000000  0.4465280000000  0.5052930000000 1.0
C      1  0.4417550000000  0.4790270000000  0.5068570000000 1.0
C      1  0.4498990000000  0.5449460000000  0.4751350000000 1.0
C      1  0.5224190000000  0.5578690000000  0.4928370000000 1.0
C      1  0.5716640000000  0.4958330000000  0.4738490000000 1.0
C      1  0.5187470000000  0.4543730000000  0.4869010000000 1.0
C      1  0.4521380000000  0.4616480000000  0.4813810000000 1.0
C      1  0.4763070000000  0.5033820000000  0.5905790000000 1.0
C      1  0.4903020000000  0.5112630000000  0.5114700000000 1.0
C      1  0.4830060000000  0.4931730000000  0.4212500000000 1.0
END
