TITL C-3289321-8710-753 0.00146554113569219 125000 -163.639295488236 0 0 30 (C1) n - 1
REM
REM in /nfs/bkarasulu/CARBON/AIRSS/Generating-Clusters/AIREBO/with-SteepDescent/Higher-Symm/SD-CG/HFTN-CG
REM
REM
REM
REM
REM
REM ./C.cell (b20cbc046b6831c77cfcea5457e17084)
REM
REM compiler GCC version 9.2.1 20190827 (Red Hat 9.2.1-1)
REM options -cpp -mtune=generic -march=x86-64 -g -O0 -fpre-include=/usr/include/finclude/math-vector-fortran.h
REM seed 1789532338 -253942107 -843077369 621323225 1606553946 -1832664004 -1349769886 335350711 -288598067 -2146442739 1584625898 2046460310 1008493266 136875454 595961209 262951546 -1736679515 933336044 -1708262031 708276589 1400874601 -1941127754 -736256967 -349984223 -523155294 110820712 -677449504 -1039012746 1674087270 -284638146 -1496369179 -30662858 1739475674
REM
CELL 1.54180   50.00000   50.00000   50.00000   90.00000   90.00000   90.00000
LATT -1
SFAC C  
C      1  0.4913190000000  0.5309280000000  0.4637540000000 1.0
C      1  0.5338770000000  0.4892970000000  0.5375130000000 1.0
C      1  0.4923420000000  0.4267440000000  0.5281620000000 1.0
C      1  0.4637960000000  0.4996000000000  0.5265470000000 1.0
C      1  0.5195270000000  0.4370790000000  0.4864370000000 1.0
C      1  0.4907900000000  0.4917140000000  0.5687330000000 1.0
C      1  0.5195270000000  0.5126490000000  0.4691930000000 1.0
C      1  0.5104510000000  0.4677200000000  0.4917940000000 1.0
C      1  0.5175210000000  0.4868150000000  0.5666310000000 1.0
C      1  0.4674160000000  0.5098170000000  0.4671430000000 1.0
C      1  0.4666010000000  0.4910220000000  0.5560660000000 1.0
C      1  0.4927830000000  0.5360570000000  0.5116590000000 1.0
C      1  0.5088340000000  0.4810270000000  0.4645410000000 1.0
C      1  0.5103640000000  0.4961160000000  0.4341080000000 1.0
C      1  0.4907070000000  0.5099550000000  0.5181070000000 1.0
C      1  0.4950770000000  0.5496880000000  0.4873100000000 1.0
C      1  0.4510330000000  0.5050480000000  0.4891070000000 1.0
C      1  0.5532210000000  0.5448090000000  0.4813130000000 1.0
C      1  0.5020500000000  0.5204160000000  0.4341850000000 1.0
C      1  0.5413920000000  0.5057140000000  0.5094290000000 1.0
C      1  0.5127840000000  0.4894320000000  0.5130560000000 1.0
C      1  0.5401090000000  0.5689910000000  0.4833990000000 1.0
C      1  0.5411980000000  0.5197340000000  0.4856880000000 1.0
C      1  0.4635490000000  0.4535510000000  0.4988420000000 1.0
C      1  0.4394740000000  0.5199760000000  0.5137300000000 1.0
C      1  0.4777460000000  0.4867070000000  0.4551610000000 1.0
C      1  0.5476970000000  0.4780200000000  0.5663920000000 1.0
C      1  0.5126220000000  0.5712980000000  0.4840710000000 1.0
C      1  0.4918360000000  0.4421800000000  0.5048770000000 1.0
C      1  0.4543590000000  0.4778930000000  0.5030530000000 1.0
END
