TITL C-3289322-3858-673 -0.00168221141869247 125000 -147.857128915202 0 0 26 (C1) n - 1
REM
REM in /nfs/bkarasulu/CARBON/AIRSS/Generating-Clusters/AIREBO/with-SteepDescent/Higher-Symm/SD-CG/HFTN-CG
REM
REM
REM
REM
REM
REM ./C.cell (b20cbc046b6831c77cfcea5457e17084)
REM
REM compiler GCC version 9.2.1 20190827 (Red Hat 9.2.1-1)
REM options -cpp -mtune=generic -march=x86-64 -g -O0 -fpre-include=/usr/include/finclude/math-vector-fortran.h
REM seed 627495051 42933981 -171496814 -156308868 -48871738 -96147511 -143121503 453996176 1826426754 286979427 -1462241790 688185599 -663779564 1845136487 54321891 1836670570 1523430005 975337280 -1468300621 -556362 804191994 -694896832 -1615862265 -1539826125 -1993400675 2023711370 -1562203750 -1883184926 -1240271284 -920369387 305672761 -443701888 -1718801275
REM
CELL 1.54180   50.00000   50.00000   50.00000   90.00000   90.00000   90.00000
LATT -1
SFAC C  
C      1  0.5093290000000  0.5243430000000  0.4655280000000 1.0
C      1  0.5381220000000  0.5211580000000  0.5034040000000 1.0
C      1  0.4890180000000  0.5243680000000  0.5315960000000 1.0
C      1  0.4688800000000  0.5237900000000  0.4892710000000 1.0
C      1  0.5094300000000  0.4687010000000  0.4655690000000 1.0
C      1  0.5381870000000  0.4719340000000  0.5028960000000 1.0
C      1  0.4887390000000  0.4698830000000  0.5313390000000 1.0
C      1  0.4689120000000  0.4693250000000  0.4894830000000 1.0
C      1  0.4707960000000  0.5107410000000  0.5146080000000 1.0
C      1  0.4841680000000  0.5107830000000  0.4687110000000 1.0
C      1  0.5311660000000  0.5108040000000  0.4782180000000 1.0
C      1  0.5197720000000  0.5121520000000  0.5305770000000 1.0
C      1  0.4701290000000  0.4828500000000  0.5147020000000 1.0
C      1  0.4842350000000  0.4822250000000  0.4688490000000 1.0
C      1  0.5314710000000  0.4823980000000  0.4777820000000 1.0
C      1  0.5177070000000  0.4818130000000  0.5275460000000 1.0
C      1  0.5077910000000  0.5527280000000  0.4703760000000 1.0
C      1  0.5245850000000  0.5445030000000  0.5191420000000 1.0
C      1  0.4869790000000  0.5519400000000  0.5293550000000 1.0
C      1  0.4732060000000  0.5520460000000  0.4912970000000 1.0
C      1  0.5081840000000  0.4404240000000  0.4712510000000 1.0
C      1  0.5260910000000  0.4489240000000  0.5208830000000 1.0
C      1  0.4878620000000  0.4423580000000  0.5298270000000 1.0
C      1  0.4741630000000  0.4411760000000  0.4922680000000 1.0
C      1  0.5049560000000  0.4314440000000  0.5029260000000 1.0
C      1  0.5039390000000  0.5621630000000  0.5017450000000 1.0
END
