TITL C-3289334-2237-363 0.00151706987704528 125000 -516.296800436203 0 0 95 (C1) n - 1
REM
REM in /nfs/bkarasulu/CARBON/AIRSS/Generating-Clusters/AIREBO/with-SteepDescent/Higher-Symm/SD-CG/HFTN-CG
REM
REM
REM
REM
REM
REM ./C.cell (b20cbc046b6831c77cfcea5457e17084)
REM
REM compiler GCC version 9.2.1 20190827 (Red Hat 9.2.1-1)
REM options -cpp -mtune=generic -march=x86-64 -g -O0 -fpre-include=/usr/include/finclude/math-vector-fortran.h
REM seed -319387053 -374046504 1810341124 1613004453 -1865126999 -836749471 344451200 174208692 -108319341 -2102662733 -1045247209 -12025767 1836404537 1499294902 1887043246 -1473264401 532162405 2078247352 1429142972 -1562605651 -1625730683 819029446 -2049727188 -1772428425 -689826874 -617164130 -1243527295 121679119 1510407556 -964174763 -1039748778 2115114659 1135159697
REM
CELL 1.54180   50.00000   50.00000   50.00000   90.00000   90.00000   90.00000
LATT -1
SFAC C  
C      1  0.4813840000000  0.5622460000000  0.5612930000000 1.0
C      1  0.5616280000000  0.5595750000000  0.4838830000000 1.0
C      1  0.4512230000000  0.5667720000000  0.4562670000000 1.0
C      1  0.5602740000000  0.5391610000000  0.4338040000000 1.0
C      1  0.4126680000000  0.5400210000000  0.4832780000000 1.0
C      1  0.5271940000000  0.5347770000000  0.5862490000000 1.0
C      1  0.5122650000000  0.5260660000000  0.4396950000000 1.0
C      1  0.4287700000000  0.5346000000000  0.5194330000000 1.0
C      1  0.5460210000000  0.5280140000000  0.5516270000000 1.0
C      1  0.4422150000000  0.5397380000000  0.4521530000000 1.0
C      1  0.4795180000000  0.5363620000000  0.5740860000000 1.0
C      1  0.5757640000000  0.5356890000000  0.4776880000000 1.0
C      1  0.5018680000000  0.4328650000000  0.4771760000000 1.0
C      1  0.4833870000000  0.4265010000000  0.5117370000000 1.0
C      1  0.5226230000000  0.4320950000000  0.5110770000000 1.0
C      1  0.4540580000000  0.5742890000000  0.4842960000000 1.0
C      1  0.5071390000000  0.5702940000000  0.5501480000000 1.0
C      1  0.5357060000000  0.5632320000000  0.4711620000000 1.0
C      1  0.4336790000000  0.5618560000000  0.5362670000000 1.0
C      1  0.5588740000000  0.5496770000000  0.5282670000000 1.0
C      1  0.4887040000000  0.5515980000000  0.4379430000000 1.0
C      1  0.4977970000000  0.4764810000000  0.4566210000000 1.0
C      1  0.4616020000000  0.4815810000000  0.5169480000000 1.0
C      1  0.5348060000000  0.4812910000000  0.5237380000000 1.0
C      1  0.5241470000000  0.5068060000000  0.5903660000000 1.0
C      1  0.5642980000000  0.5108770000000  0.4316450000000 1.0
C      1  0.4114030000000  0.5115190000000  0.4822360000000 1.0
C      1  0.5051490000000  0.5332200000000  0.5167920000000 1.0
C      1  0.5192660000000  0.5261790000000  0.4789600000000 1.0
C      1  0.4780680000000  0.5297790000000  0.4964000000000 1.0
C      1  0.5351640000000  0.4302430000000  0.5413540000000 1.0
C      1  0.5230510000000  0.4322480000000  0.4524290000000 1.0
C      1  0.4516120000000  0.4279360000000  0.5051640000000 1.0
C      1  0.4547640000000  0.5109240000000  0.4556800000000 1.0
C      1  0.4796390000000  0.5070790000000  0.5610640000000 1.0
C      1  0.5727110000000  0.5085780000000  0.4803730000000 1.0
C      1  0.5355510000000  0.5485650000000  0.4456730000000 1.0
C      1  0.4322760000000  0.5596900000000  0.4967360000000 1.0
C      1  0.5277950000000  0.5544810000000  0.5627540000000 1.0
C      1  0.5639100000000  0.4235740000000  0.4894230000000 1.0
C      1  0.4692950000000  0.4339050000000  0.4539340000000 1.0
C      1  0.4880860000000  0.4422230000000  0.5558200000000 1.0
C      1  0.5954760000000  0.4798410000000  0.5266410000000 1.0
C      1  0.4776370000000  0.4758010000000  0.4146080000000 1.0
C      1  0.4055760000000  0.4723380000000  0.5395000000000 1.0
C      1  0.5468180000000  0.4792220000000  0.4913530000000 1.0
C      1  0.4661700000000  0.4633590000000  0.4598890000000 1.0
C      1  0.4826710000000  0.4721040000000  0.5419970000000 1.0
C      1  0.4393480000000  0.4996360000000  0.4812550000000 1.0
C      1  0.5049970000000  0.4942210000000  0.5700610000000 1.0
C      1  0.5562960000000  0.4983200000000  0.4576220000000 1.0
C      1  0.4577860000000  0.4458520000000  0.5589870000000 1.0
C      1  0.5730280000000  0.4346720000000  0.5104000000000 1.0
C      1  0.4813460000000  0.4301520000000  0.4296940000000 1.0
C      1  0.5023300000000  0.4224130000000  0.5372650000000 1.0
C      1  0.5337230000000  0.4225580000000  0.4832240000000 1.0
C      1  0.4724680000000  0.4181570000000  0.4806290000000 1.0
C      1  0.4428350000000  0.4561540000000  0.5091350000000 1.0
C      1  0.5447780000000  0.4617530000000  0.5484940000000 1.0
C      1  0.5219010000000  0.4621470000000  0.4373900000000 1.0
C      1  0.5456530000000  0.4884900000000  0.5943490000000 1.0
C      1  0.5558370000000  0.4937920000000  0.4107960000000 1.0
C      1  0.3925500000000  0.4964230000000  0.4970450000000 1.0
C      1  0.3968990000000  0.4949990000000  0.5250490000000 1.0
C      1  0.5599050000000  0.4826730000000  0.5703570000000 1.0
C      1  0.5288630000000  0.4856820000000  0.4138350000000 1.0
C      1  0.5759410000000  0.4876220000000  0.5030940000000 1.0
C      1  0.4639800000000  0.4851210000000  0.4363870000000 1.0
C      1  0.4551630000000  0.4854070000000  0.5561170000000 1.0
C      1  0.4058780000000  0.5199880000000  0.5345280000000 1.0
C      1  0.5701280000000  0.5062640000000  0.5594310000000 1.0
C      1  0.5112120000000  0.5071170000000  0.4132900000000 1.0
C      1  0.5232460000000  0.5019430000000  0.5001210000000 1.0
C      1  0.4811690000000  0.4979290000000  0.4727250000000 1.0
C      1  0.4864130000000  0.5098170000000  0.5298930000000 1.0
C      1  0.4888850000000  0.5299220000000  0.4641600000000 1.0
C      1  0.4743110000000  0.5410860000000  0.5282060000000 1.0
C      1  0.5347180000000  0.5273790000000  0.5195610000000 1.0
C      1  0.5148550000000  0.5763820000000  0.4874790000000 1.0
C      1  0.4820360000000  0.5831230000000  0.4936660000000 1.0
C      1  0.5049060000000  0.5843740000000  0.5192350000000 1.0
C      1  0.5225530000000  0.4997430000000  0.4585980000000 1.0
C      1  0.4516580000000  0.5128760000000  0.5076640000000 1.0
C      1  0.5268690000000  0.5005070000000  0.5479930000000 1.0
C      1  0.5653690000000  0.5678070000000  0.5103200000000 1.0
C      1  0.4722770000000  0.5721810000000  0.4388030000000 1.0
C      1  0.4596040000000  0.5637340000000  0.5419810000000 1.0
C      1  0.5707420000000  0.4594770000000  0.5266310000000 1.0
C      1  0.4948200000000  0.4529970000000  0.4189810000000 1.0
C      1  0.4351670000000  0.4631710000000  0.5404720000000 1.0
C      1  0.5123370000000  0.4650100000000  0.5583530000000 1.0
C      1  0.5461720000000  0.4678410000000  0.4605190000000 1.0
C      1  0.4456070000000  0.4703460000000  0.4813110000000 1.0
C      1  0.4996950000000  0.4557540000000  0.5022310000000 1.0
C      1  0.4920510000000  0.4888780000000  0.5036860000000 1.0
END
