TITL C-3289323-3850-687 -66.8188874967052 125000 -1014.54578495638 0 0 188 (C1) n - 1
REM
REM in /nfs/bkarasulu/CARBON/AIRSS/Generating-Clusters/AIREBO/with-SteepDescent/Higher-Symm/SD-CG/HFTN-CG
REM
REM
REM
REM
REM
REM ./C.cell (b20cbc046b6831c77cfcea5457e17084)
REM
REM compiler GCC version 9.2.1 20190827 (Red Hat 9.2.1-1)
REM options -cpp -mtune=generic -march=x86-64 -g -O0 -fpre-include=/usr/include/finclude/math-vector-fortran.h
REM seed -544695649 1264428344 131137479 1424513768 -574965329 -2300451 -978406613 -811716273 664417918 1209008070 1626048642 1407076997 -1161453017 -781475651 566427528 -704881852 -429487002 -541986647 -1634188026 -1521016334 1115355721 2067669257 -1826542480 -1455618980 -907449536 1940985017 508058479 471006958 1759809033 695074411 -1383678890 -2074653178 1905212420
REM
CELL 1.54180   50.00000   50.00000   50.00000   90.00000   90.00000   90.00000
LATT -1
SFAC C  
C      1  0.4825580000000  0.6112820000000  0.4442200000000 1.0
C      1  0.6021900000000  0.4591090000000  0.4811320000000 1.0
C      1  0.4707090000000  0.4780540000000  0.6019730000000 1.0
C      1  0.5082430000000  0.6128980000000  0.5469640000000 1.0
C      1  0.5200830000000  0.3934140000000  0.4572840000000 1.0
C      1  0.4894970000000  0.4047150000000  0.5515610000000 1.0
C      1  0.3967520000000  0.4529220000000  0.5123560000000 1.0
C      1  0.3833480000000  0.5622860000000  0.4879650000000 1.0
C      1  0.5982350000000  0.5384020000000  0.5111120000000 1.0
C      1  0.5609340000000  0.4836960000000  0.4016790000000 1.0
C      1  0.5665350000000  0.5060640000000  0.6067920000000 1.0
C      1  0.4279070000000  0.5188230000000  0.3965020000000 1.0
C      1  0.4896250000000  0.3929280000000  0.4533610000000 1.0
C      1  0.6061120000000  0.5378230000000  0.4816450000000 1.0
C      1  0.4560780000000  0.5035460000000  0.6069530000000 1.0
C      1  0.5187020000000  0.3993740000000  0.5501060000000 1.0
C      1  0.5124840000000  0.6038060000000  0.4503800000000 1.0
C      1  0.4790280000000  0.6020090000000  0.5382190000000 1.0
C      1  0.3916520000000  0.5384160000000  0.5062120000000 1.0
C      1  0.3904510000000  0.4514260000000  0.4828670000000 1.0
C      1  0.6003620000000  0.4545050000000  0.5097990000000 1.0
C      1  0.5491060000000  0.5144480000000  0.3997380000000 1.0
C      1  0.5498260000000  0.4838730000000  0.6027280000000 1.0
C      1  0.4413990000000  0.4937980000000  0.3981910000000 1.0
C      1  0.4572710000000  0.4266670000000  0.4327800000000 1.0
C      1  0.4315740000000  0.4225300000000  0.4565650000000 1.0
C      1  0.4276020000000  0.4429850000000  0.4296970000000 1.0
C      1  0.5677790000000  0.4225280000000  0.5621560000000 1.0
C      1  0.5458600000000  0.5683040000000  0.4303480000000 1.0
C      1  0.4414100000000  0.5713160000000  0.5715380000000 1.0
C      1  0.5768870000000  0.4167870000000  0.5338040000000 1.0
C      1  0.5686890000000  0.5720360000000  0.4565380000000 1.0
C      1  0.4191690000000  0.5645630000000  0.5467160000000 1.0
C      1  0.5675900000000  0.4505590000000  0.5665360000000 1.0
C      1  0.5731580000000  0.5490990000000  0.4318340000000 1.0
C      1  0.4247600000000  0.5410250000000  0.5706190000000 1.0
C      1  0.4665710000000  0.5720600000000  0.4188340000000 1.0
C      1  0.4392000000000  0.5658990000000  0.4577740000000 1.0
C      1  0.4399160000000  0.5628140000000  0.4295860000000 1.0
C      1  0.5540640000000  0.5675360000000  0.5726170000000 1.0
C      1  0.5442650000000  0.4302640000000  0.4295840000000 1.0
C      1  0.4530040000000  0.4357870000000  0.5702200000000 1.0
C      1  0.5719850000000  0.5678250000000  0.5435870000000 1.0
C      1  0.5636300000000  0.4322090000000  0.4579830000000 1.0
C      1  0.4270690000000  0.4337110000000  0.5488410000000 1.0
C      1  0.5777060000000  0.5458910000000  0.5672540000000 1.0
C      1  0.5716430000000  0.4504100000000  0.4304770000000 1.0
C      1  0.4261620000000  0.4562680000000  0.5744570000000 1.0
C      1  0.4763950000000  0.4032950000000  0.4789660000000 1.0
C      1  0.4033090000000  0.4772790000000  0.4810480000000 1.0
C      1  0.4697990000000  0.4921710000000  0.3990110000000 1.0
C      1  0.5104390000000  0.4058690000000  0.5175560000000 1.0
C      1  0.5126360000000  0.5955990000000  0.4817960000000 1.0
C      1  0.4895120000000  0.5818940000000  0.5131360000000 1.0
C      1  0.5890300000000  0.4761520000000  0.5273570000000 1.0
C      1  0.5846950000000  0.5113830000000  0.4849140000000 1.0
C      1  0.4008090000000  0.5081630000000  0.5062080000000 1.0
C      1  0.5208380000000  0.4926760000000  0.5922460000000 1.0
C      1  0.5186980000000  0.5107110000000  0.4130250000000 1.0
C      1  0.4846190000000  0.5148620000000  0.6033740000000 1.0
C      1  0.4803210000000  0.5944770000000  0.4720090000000 1.0
C      1  0.4192310000000  0.5067350000000  0.4807140000000 1.0
C      1  0.4870290000000  0.5111400000000  0.4141490000000 1.0
C      1  0.5108100000000  0.6049250000000  0.5141360000000 1.0
C      1  0.5087390000000  0.4088400000000  0.4854070000000 1.0
C      1  0.4811280000000  0.4161140000000  0.5234850000000 1.0
C      1  0.5865150000000  0.5070040000000  0.5168530000000 1.0
C      1  0.5896290000000  0.4826400000000  0.4697600000000 1.0
C      1  0.4085450000000  0.4787500000000  0.5220550000000 1.0
C      1  0.5163660000000  0.5259020000000  0.5981800000000 1.0
C      1  0.5291870000000  0.4803440000000  0.4040050000000 1.0
C      1  0.4924220000000  0.4835010000000  0.5760550000000 1.0
C      1  0.5734030000000  0.4842530000000  0.4333120000000 1.0
C      1  0.4701760000000  0.4086810000000  0.5704370000000 1.0
C      1  0.4157330000000  0.5573960000000  0.4788340000000 1.0
C      1  0.4197750000000  0.4840210000000  0.5735280000000 1.0
C      1  0.4303360000000  0.5368790000000  0.4176450000000 1.0
C      1  0.5701590000000  0.5211770000000  0.5853490000000 1.0
C      1  0.5168640000000  0.4133620000000  0.4330520000000 1.0
C      1  0.5024210000000  0.5860070000000  0.5654300000000 1.0
C      1  0.4881990000000  0.5898860000000  0.4221730000000 1.0
C      1  0.5881890000000  0.5670190000000  0.5174960000000 1.0
C      1  0.5857370000000  0.4323950000000  0.4799670000000 1.0
C      1  0.4111670000000  0.4279240000000  0.5205390000000 1.0
C      1  0.5707820000000  0.5168370000000  0.4213520000000 1.0
C      1  0.4691240000000  0.5871470000000  0.5639200000000 1.0
C      1  0.4161040000000  0.4296800000000  0.4863620000000 1.0
C      1  0.4350860000000  0.5106460000000  0.5839340000000 1.0
C      1  0.4291950000000  0.4718890000000  0.4155170000000 1.0
C      1  0.5623320000000  0.4617010000000  0.5914230000000 1.0
C      1  0.5221690000000  0.5875550000000  0.4268990000000 1.0
C      1  0.5405360000000  0.4101100000000  0.5672060000000 1.0
C      1  0.4830540000000  0.4101900000000  0.4292900000000 1.0
C      1  0.5921740000000  0.4255750000000  0.5127170000000 1.0
C      1  0.5884730000000  0.5653820000000  0.4834040000000 1.0
C      1  0.4143970000000  0.5620120000000  0.5130300000000 1.0
C      1  0.4606340000000  0.4984150000000  0.5388370000000 1.0
C      1  0.4884840000000  0.5469120000000  0.4537320000000 1.0
C      1  0.5436000000000  0.4568580000000  0.4866720000000 1.0
C      1  0.5350580000000  0.4866040000000  0.4440340000000 1.0
C      1  0.5484420000000  0.5148190000000  0.5599720000000 1.0
C      1  0.4476360000000  0.5233680000000  0.4436170000000 1.0
C      1  0.5185560000000  0.5615420000000  0.5560460000000 1.0
C      1  0.5093350000000  0.4482150000000  0.4559280000000 1.0
C      1  0.4980190000000  0.4496010000000  0.5495430000000 1.0
C      1  0.4518470000000  0.4531110000000  0.5115410000000 1.0
C      1  0.4593000000000  0.5458820000000  0.4928450000000 1.0
C      1  0.5505840000000  0.5456850000000  0.5182410000000 1.0
C      1  0.4574720000000  0.5205850000000  0.5619540000000 1.0
C      1  0.4768450000000  0.4499160000000  0.4587270000000 1.0
C      1  0.5524530000000  0.5484860000000  0.4843780000000 1.0
C      1  0.5458590000000  0.5143070000000  0.4520710000000 1.0
C      1  0.5365050000000  0.4866380000000  0.5451470000000 1.0
C      1  0.4478640000000  0.4898650000000  0.4374490000000 1.0
C      1  0.5275650000000  0.4382350000000  0.5531790000000 1.0
C      1  0.5178230000000  0.5536170000000  0.4540730000000 1.0
C      1  0.4801350000000  0.5513290000000  0.5504240000000 1.0
C      1  0.4417940000000  0.5474540000000  0.5186620000000 1.0
C      1  0.4407020000000  0.4515920000000  0.4820190000000 1.0
C      1  0.5457200000000  0.4510000000000  0.5199380000000 1.0
C      1  0.4478790000000  0.3948510000000  0.5177220000000 1.0
C      1  0.3990760000000  0.5109620000000  0.4448700000000 1.0
C      1  0.5036220000000  0.4579850000000  0.4023570000000 1.0
C      1  0.5478540000000  0.4008270000000  0.4834990000000 1.0
C      1  0.5390860000000  0.5942130000000  0.5177540000000 1.0
C      1  0.4610740000000  0.6057580000000  0.4935210000000 1.0
C      1  0.5997210000000  0.5162580000000  0.5533690000000 1.0
C      1  0.6032200000000  0.4957990000000  0.4440610000000 1.0
C      1  0.4022540000000  0.4904750000000  0.5529590000000 1.0
C      1  0.4903990000000  0.4536080000000  0.6023840000000 1.0
C      1  0.4929050000000  0.5482480000000  0.4006810000000 1.0
C      1  0.5054500000000  0.5533300000000  0.6157700000000 1.0
C      1  0.4509140000000  0.5917810000000  0.5117010000000 1.0
C      1  0.4042950000000  0.4852800000000  0.4507000000000 1.0
C      1  0.5181730000000  0.5490500000000  0.4017430000000 1.0
C      1  0.5547350000000  0.5919330000000  0.4950830000000 1.0
C      1  0.5405980000000  0.3965530000000  0.5101380000000 1.0
C      1  0.4611370000000  0.3855450000000  0.4984810000000 1.0
C      1  0.6074220000000  0.4928050000000  0.5477720000000 1.0
C      1  0.6011510000000  0.5237980000000  0.4463010000000 1.0
C      1  0.4071310000000  0.5152850000000  0.5368350000000 1.0
C      1  0.4814270000000  0.5447170000000  0.6006920000000 1.0
C      1  0.4776300000000  0.4662620000000  0.4059520000000 1.0
C      1  0.5175690000000  0.4537990000000  0.6002680000000 1.0
C      1  0.4689080000000  0.5658640000000  0.4688770000000 1.0
C      1  0.5586320000000  0.4762580000000  0.4630890000000 1.0
C      1  0.4778770000000  0.4529870000000  0.5722940000000 1.0
C      1  0.5402700000000  0.5703470000000  0.5354500000000 1.0
C      1  0.5325420000000  0.4286540000000  0.4713320000000 1.0
C      1  0.4502590000000  0.4259290000000  0.5279050000000 1.0
C      1  0.4397970000000  0.4764980000000  0.5264920000000 1.0
C      1  0.4184050000000  0.5319720000000  0.4593370000000 1.0
C      1  0.5713980000000  0.5281720000000  0.5387590000000 1.0
C      1  0.5257840000000  0.4575450000000  0.4290080000000 1.0
C      1  0.5341020000000  0.5398220000000  0.5760670000000 1.0
C      1  0.4720280000000  0.5392620000000  0.4259900000000 1.0
C      1  0.4611400000000  0.4272940000000  0.4724330000000 1.0
C      1  0.5720140000000  0.5325530000000  0.4615170000000 1.0
C      1  0.4647900000000  0.5495910000000  0.5768960000000 1.0
C      1  0.5452270000000  0.4214930000000  0.5293590000000 1.0
C      1  0.5378370000000  0.5758090000000  0.4703680000000 1.0
C      1  0.4650160000000  0.5658620000000  0.5286090000000 1.0
C      1  0.4339990000000  0.5281990000000  0.5405110000000 1.0
C      1  0.4311340000000  0.4658890000000  0.4548080000000 1.0
C      1  0.5633670000000  0.4669360000000  0.5400510000000 1.0
C      1  0.5336870000000  0.5365540000000  0.4293050000000 1.0
C      1  0.5284490000000  0.4672350000000  0.5709900000000 1.0
C      1  0.4635600000000  0.4600840000000  0.4321470000000 1.0
C      1  0.4915930000000  0.4995240000000  0.5493060000000 1.0
C      1  0.4908660000000  0.5545420000000  0.5002730000000 1.0
C      1  0.5506990000000  0.5085910000000  0.4852390000000 1.0
C      1  0.5061160000000  0.4826880000000  0.4530920000000 1.0
C      1  0.5033690000000  0.5313550000000  0.5520760000000 1.0
C      1  0.4960910000000  0.5145640000000  0.4461270000000 1.0
C      1  0.5162980000000  0.4552580000000  0.5071470000000 1.0
C      1  0.4593760000000  0.5059470000000  0.5083120000000 1.0
C      1  0.4512550000000  0.5175140000000  0.4769270000000 1.0
C      1  0.5427430000000  0.5065200000000  0.5182760000000 1.0
C      1  0.5226630000000  0.5409860000000  0.4989530000000 1.0
C      1  0.4848610000000  0.4496780000000  0.5195450000000 1.0
C      1  0.5137950000000  0.5198450000000  0.4748880000000 1.0
C      1  0.5087640000000  0.4833010000000  0.5248390000000 1.0
C      1  0.4884020000000  0.5216710000000  0.5056600000000 1.0
C      1  0.4798270000000  0.4810800000000  0.5075100000000 1.0
C      1  0.5207460000000  0.4965390000000  0.4959000000000 1.0
C      1  0.4829270000000  0.5056310000000  0.4761810000000 1.0
C      1  0.4864090000000  0.4728920000000  0.4774930000000 1.0
C      1  0.5139280000000  0.5227030000000  0.5253370000000 1.0
END
