TITL C-3289328-6581-282 -0.00258337017212547 125000 -859.137445406805 0 0 161 (C1) n - 1
REM
REM in /nfs/bkarasulu/CARBON/AIRSS/Generating-Clusters/AIREBO/with-SteepDescent/Higher-Symm/SD-CG/HFTN-CG
REM
REM
REM
REM
REM
REM ./C.cell (b20cbc046b6831c77cfcea5457e17084)
REM
REM compiler GCC version 9.2.1 20190827 (Red Hat 9.2.1-1)
REM options -cpp -mtune=generic -march=x86-64 -g -O0 -fpre-include=/usr/include/finclude/math-vector-fortran.h
REM seed 456183000 547966842 -1794807802 -1772889919 -547674069 -1382935220 -1576673828 -1219429904 2031927494 -1628638213 175351687 -1388269542 -1625745997 1634939418 210565027 183096992 -1890872993 971049363 1478407305 735873925 -88989895 66641845 -1614862074 -781035839 -640672678 -1763657633 -388824397 -689879150 439775605 1020555102 750803482 -1065928688 1947944385
REM
CELL 1.54180   50.00000   50.00000   50.00000   90.00000   90.00000   90.00000
LATT -1
SFAC C  
C      1  0.4450740000000  0.4055040000000  0.4692260000000 1.0
C      1  0.4466820000000  0.4131040000000  0.5196510000000 1.0
C      1  0.4153750000000  0.4912780000000  0.5478280000000 1.0
C      1  0.4189950000000  0.4917160000000  0.4553450000000 1.0
C      1  0.4654800000000  0.5035620000000  0.4594600000000 1.0
C      1  0.4596790000000  0.5070910000000  0.5388240000000 1.0
C      1  0.5088770000000  0.5755500000000  0.5190830000000 1.0
C      1  0.5123540000000  0.5724830000000  0.4861520000000 1.0
C      1  0.5849800000000  0.4159260000000  0.4890740000000 1.0
C      1  0.5869450000000  0.4273400000000  0.5138410000000 1.0
C      1  0.4604140000000  0.4836320000000  0.5142190000000 1.0
C      1  0.4716400000000  0.4793830000000  0.4825590000000 1.0
C      1  0.4615590000000  0.5880080000000  0.5215750000000 1.0
C      1  0.4627810000000  0.5813940000000  0.4881930000000 1.0
C      1  0.5143140000000  0.4320290000000  0.4797040000000 1.0
C      1  0.5257910000000  0.4268780000000  0.5059280000000 1.0
C      1  0.5655880000000  0.4515600000000  0.5744080000000 1.0
C      1  0.5665710000000  0.4519610000000  0.4344090000000 1.0
C      1  0.5670550000000  0.5473940000000  0.4257410000000 1.0
C      1  0.5659090000000  0.5441550000000  0.5696620000000 1.0
C      1  0.5411430000000  0.5851200000000  0.5653650000000 1.0
C      1  0.5342670000000  0.5798420000000  0.4333490000000 1.0
C      1  0.5142410000000  0.5556860000000  0.4283660000000 1.0
C      1  0.5193610000000  0.5622000000000  0.5741890000000 1.0
C      1  0.6084240000000  0.5047810000000  0.4821890000000 1.0
C      1  0.6060040000000  0.5036360000000  0.5127430000000 1.0
C      1  0.4020790000000  0.4625720000000  0.4599130000000 1.0
C      1  0.4015840000000  0.4630780000000  0.5347610000000 1.0
C      1  0.4293740000000  0.5388780000000  0.5744880000000 1.0
C      1  0.4337130000000  0.5407130000000  0.4277430000000 1.0
C      1  0.4464770000000  0.4059830000000  0.4391240000000 1.0
C      1  0.4548700000000  0.4176370000000  0.5503480000000 1.0
C      1  0.4956890000000  0.4235520000000  0.5607890000000 1.0
C      1  0.4967750000000  0.4228570000000  0.4371020000000 1.0
C      1  0.5975170000000  0.5596850000000  0.5238870000000 1.0
C      1  0.5996320000000  0.5623560000000  0.4697820000000 1.0
C      1  0.5643180000000  0.5698950000000  0.5589170000000 1.0
C      1  0.5605660000000  0.5714090000000  0.4371390000000 1.0
C      1  0.4563090000000  0.5284970000000  0.5136260000000 1.0
C      1  0.4726720000000  0.5190100000000  0.4879050000000 1.0
C      1  0.4541830000000  0.5387020000000  0.5881110000000 1.0
C      1  0.4578260000000  0.5411310000000  0.4130820000000 1.0
C      1  0.5375190000000  0.4469810000000  0.5770380000000 1.0
C      1  0.5358510000000  0.4497060000000  0.4281690000000 1.0
C      1  0.4547050000000  0.4320840000000  0.5757260000000 1.0
C      1  0.4591100000000  0.4355540000000  0.4285620000000 1.0
C      1  0.4851170000000  0.4453210000000  0.5832120000000 1.0
C      1  0.4887160000000  0.4471750000000  0.4179850000000 1.0
C      1  0.5692920000000  0.5186710000000  0.5168130000000 1.0
C      1  0.5733210000000  0.5237910000000  0.4838080000000 1.0
C      1  0.5411120000000  0.4199940000000  0.5335190000000 1.0
C      1  0.5433270000000  0.4125290000000  0.4605220000000 1.0
C      1  0.5219680000000  0.5961560000000  0.4557090000000 1.0
C      1  0.5347220000000  0.5999590000000  0.5426130000000 1.0
C      1  0.4871540000000  0.4491180000000  0.4824170000000 1.0
C      1  0.4859080000000  0.4600790000000  0.5142170000000 1.0
C      1  0.4993850000000  0.4699820000000  0.4377290000000 1.0
C      1  0.4912040000000  0.4625850000000  0.5546920000000 1.0
C      1  0.4309910000000  0.5215310000000  0.5484640000000 1.0
C      1  0.4366900000000  0.5205970000000  0.4522970000000 1.0
C      1  0.5314020000000  0.4916320000000  0.4823750000000 1.0
C      1  0.5525670000000  0.4911990000000  0.5082110000000 1.0
C      1  0.5155250000000  0.5071410000000  0.5421840000000 1.0
C      1  0.5278900000000  0.5048550000000  0.4541420000000 1.0
C      1  0.5457820000000  0.5223410000000  0.4312040000000 1.0
C      1  0.5409210000000  0.5249130000000  0.5563620000000 1.0
C      1  0.4186810000000  0.5174290000000  0.4858300000000 1.0
C      1  0.4274520000000  0.5322110000000  0.5101260000000 1.0
C      1  0.5547790000000  0.4889330000000  0.5668660000000 1.0
C      1  0.5563440000000  0.4865850000000  0.4513660000000 1.0
C      1  0.4797890000000  0.4317190000000  0.5319680000000 1.0
C      1  0.4800450000000  0.4232880000000  0.4615750000000 1.0
C      1  0.5674020000000  0.4254860000000  0.4693350000000 1.0
C      1  0.5639540000000  0.4412100000000  0.5286430000000 1.0
C      1  0.5519620000000  0.5482550000000  0.4812990000000 1.0
C      1  0.5480390000000  0.5451400000000  0.5151760000000 1.0
C      1  0.5408860000000  0.4607330000000  0.4853410000000 1.0
C      1  0.5388090000000  0.4624090000000  0.5199820000000 1.0
C      1  0.3995520000000  0.5365110000000  0.5291690000000 1.0
C      1  0.3925840000000  0.5361700000000  0.4746900000000 1.0
C      1  0.4894200000000  0.5663980000000  0.5620680000000 1.0
C      1  0.4951890000000  0.5804700000000  0.4418000000000 1.0
C      1  0.4909180000000  0.4075370000000  0.5139680000000 1.0
C      1  0.4826230000000  0.4011400000000  0.4842050000000 1.0
C      1  0.5820970000000  0.4994550000000  0.5838920000000 1.0
C      1  0.5798970000000  0.4937780000000  0.4276590000000 1.0
C      1  0.5889160000000  0.5256070000000  0.5725170000000 1.0
C      1  0.5855810000000  0.5255480000000  0.4296720000000 1.0
C      1  0.4651330000000  0.5646630000000  0.5830070000000 1.0
C      1  0.4745580000000  0.5593340000000  0.4255660000000 1.0
C      1  0.4536270000000  0.4661710000000  0.4197240000000 1.0
C      1  0.4490720000000  0.4619890000000  0.5816610000000 1.0
C      1  0.5774290000000  0.5096950000000  0.4576100000000 1.0
C      1  0.5708120000000  0.5113240000000  0.5475190000000 1.0
C      1  0.4645180000000  0.5740180000000  0.4550280000000 1.0
C      1  0.4575510000000  0.5735250000000  0.5510690000000 1.0
C      1  0.4744220000000  0.5508230000000  0.4858380000000 1.0
C      1  0.4712040000000  0.5560480000000  0.5179200000000 1.0
C      1  0.4972040000000  0.5164700000000  0.3907640000000 1.0
C      1  0.4966670000000  0.5286080000000  0.6031210000000 1.0
C      1  0.5138240000000  0.4583650000000  0.5935680000000 1.0
C      1  0.5174410000000  0.4592320000000  0.4041330000000 1.0
C      1  0.4460700000000  0.4811530000000  0.5560950000000 1.0
C      1  0.4473820000000  0.4801760000000  0.4426760000000 1.0
C      1  0.4595960000000  0.4565530000000  0.5434880000000 1.0
C      1  0.4509180000000  0.4381110000000  0.4618450000000 1.0
C      1  0.3958060000000  0.5056390000000  0.5162190000000 1.0
C      1  0.3804920000000  0.5084170000000  0.4906220000000 1.0
C      1  0.5202250000000  0.4515940000000  0.5463410000000 1.0
C      1  0.5210950000000  0.4572190000000  0.4578930000000 1.0
C      1  0.5188370000000  0.3987060000000  0.5205090000000 1.0
C      1  0.5133620000000  0.4007300000000  0.4699200000000 1.0
C      1  0.5689080000000  0.4594200000000  0.4675110000000 1.0
C      1  0.5726060000000  0.4670690000000  0.5478200000000 1.0
C      1  0.4941720000000  0.4842000000000  0.5808480000000 1.0
C      1  0.4913410000000  0.4988220000000  0.4258100000000 1.0
C      1  0.4689960000000  0.5135700000000  0.4047660000000 1.0
C      1  0.4753790000000  0.5124340000000  0.5833380000000 1.0
C      1  0.5011020000000  0.4895650000000  0.4920280000000 1.0
C      1  0.5108110000000  0.4816190000000  0.5218320000000 1.0
C      1  0.5397340000000  0.5114540000000  0.5875640000000 1.0
C      1  0.5334140000000  0.5156630000000  0.4043450000000 1.0
C      1  0.4961910000000  0.5160250000000  0.4518180000000 1.0
C      1  0.4866890000000  0.5204400000000  0.5522280000000 1.0
C      1  0.5054110000000  0.5202280000000  0.4926130000000 1.0
C      1  0.5192830000000  0.5272320000000  0.5161570000000 1.0
C      1  0.4373700000000  0.5538940000000  0.4591630000000 1.0
C      1  0.4314340000000  0.5550570000000  0.5441920000000 1.0
C      1  0.5213730000000  0.4896740000000  0.5991530000000 1.0
C      1  0.5140400000000  0.4892440000000  0.4023780000000 1.0
C      1  0.5334970000000  0.5443550000000  0.4540230000000 1.0
C      1  0.5312030000000  0.5534750000000  0.5435330000000 1.0
C      1  0.4568880000000  0.4833080000000  0.3987550000000 1.0
C      1  0.4543320000000  0.4881620000000  0.5945030000000 1.0
C      1  0.5268040000000  0.4216080000000  0.5609610000000 1.0
C      1  0.5252390000000  0.4224390000000  0.4387170000000 1.0
C      1  0.5997950000000  0.5329350000000  0.5197140000000 1.0
C      1  0.6024000000000  0.5353570000000  0.4751100000000 1.0
C      1  0.4455680000000  0.4576180000000  0.4842540000000 1.0
C      1  0.4438580000000  0.4445940000000  0.5156370000000 1.0
C      1  0.5424230000000  0.5869760000000  0.4808020000000 1.0
C      1  0.5407580000000  0.5843730000000  0.5129770000000 1.0
C      1  0.5677000000000  0.5698310000000  0.5278430000000 1.0
C      1  0.5688340000000  0.5727200000000  0.4668590000000 1.0
C      1  0.4286510000000  0.4848990000000  0.4859080000000 1.0
C      1  0.4275200000000  0.4927990000000  0.5161080000000 1.0
C      1  0.5897310000000  0.4782660000000  0.4867920000000 1.0
C      1  0.5825330000000  0.4811020000000  0.5200710000000 1.0
C      1  0.5040620000000  0.5439900000000  0.4695150000000 1.0
C      1  0.4984120000000  0.5479170000000  0.5359480000000 1.0
C      1  0.3879350000000  0.5113400000000  0.5488540000000 1.0
C      1  0.3909710000000  0.5069530000000  0.4589960000000 1.0
C      1  0.5140770000000  0.5405140000000  0.4025170000000 1.0
C      1  0.5205070000000  0.5368770000000  0.5917430000000 1.0
C      1  0.4127140000000  0.4519240000000  0.5121180000000 1.0
C      1  0.4021490000000  0.4516560000000  0.4856480000000 1.0
C      1  0.4154300000000  0.5631830000000  0.5152930000000 1.0
C      1  0.4156810000000  0.5575190000000  0.4816850000000 1.0
C      1  0.4903510000000  0.5973040000000  0.5246470000000 1.0
C      1  0.4904100000000  0.5918010000000  0.4797750000000 1.0
C      1  0.4528140000000  0.3984510000000  0.4969890000000 1.0
END
