TITL C-3289335-9438-354 -0.00232429031814353 125000 -986.881546053131 0 0 187 (C1) n - 1
REM
REM in /nfs/bkarasulu/CARBON/AIRSS/Generating-Clusters/AIREBO/with-SteepDescent/Higher-Symm/SD-CG/HFTN-CG
REM
REM
REM
REM
REM
REM ./C.cell (b20cbc046b6831c77cfcea5457e17084)
REM
REM compiler GCC version 9.2.1 20190827 (Red Hat 9.2.1-1)
REM options -cpp -mtune=generic -march=x86-64 -g -O0 -fpre-include=/usr/include/finclude/math-vector-fortran.h
REM seed 146184433 -1914527155 754315312 -649429384 1668828616 -724357654 -995983868 675397657 1422873916 1062099967 1833980901 -1388902602 -168776652 740487177 -354565492 -2065421174 298674551 2135604538 -1784413008 1779712637 798015467 2056356091 -1237475220 1942526846 1970419799 -1212914447 -131886592 -1170468079 1037273134 1239541019 -1100981162 -1987917764 -428102927
REM
CELL 1.54180   50.00000   50.00000   50.00000   90.00000   90.00000   90.00000
LATT -1
SFAC C  
C      1  0.3925400000000  0.4585670000000  0.5289690000000 1.0
C      1  0.3940640000000  0.5429550000000  0.4752420000000 1.0
C      1  0.3959230000000  0.4583540000000  0.4784990000000 1.0
C      1  0.3857320000000  0.5392370000000  0.5204220000000 1.0
C      1  0.4308530000000  0.4844440000000  0.5764610000000 1.0
C      1  0.4240180000000  0.5032610000000  0.4160580000000 1.0
C      1  0.4311440000000  0.4802560000000  0.4279560000000 1.0
C      1  0.4275130000000  0.5092860000000  0.5873350000000 1.0
C      1  0.4718900000000  0.5092800000000  0.4012590000000 1.0
C      1  0.4795300000000  0.4851850000000  0.6017770000000 1.0
C      1  0.4747130000000  0.5188630000000  0.5981240000000 1.0
C      1  0.4820540000000  0.4768720000000  0.3985600000000 1.0
C      1  0.4917960000000  0.5595120000000  0.4801380000000 1.0
C      1  0.4902210000000  0.4468600000000  0.5179660000000 1.0
C      1  0.4893030000000  0.5539320000000  0.5141160000000 1.0
C      1  0.4914790000000  0.4474720000000  0.4828170000000 1.0
C      1  0.5253340000000  0.5159120000000  0.5512660000000 1.0
C      1  0.5165140000000  0.4842170000000  0.4490210000000 1.0
C      1  0.5228750000000  0.5174700000000  0.4457900000000 1.0
C      1  0.5235990000000  0.4818710000000  0.5502750000000 1.0
C      1  0.4924820000000  0.4541810000000  0.5908560000000 1.0
C      1  0.4963650000000  0.5611610000000  0.4017960000000 1.0
C      1  0.4953730000000  0.4469700000000  0.4101160000000 1.0
C      1  0.4959510000000  0.5450540000000  0.5938930000000 1.0
C      1  0.4868780000000  0.6111240000000  0.4733300000000 1.0
C      1  0.5044920000000  0.3816280000000  0.5188780000000 1.0
C      1  0.5011870000000  0.6192580000000  0.5233250000000 1.0
C      1  0.4825060000000  0.3933690000000  0.4814480000000 1.0
C      1  0.4276300000000  0.4354330000000  0.4383220000000 1.0
C      1  0.4254590000000  0.5667030000000  0.5633630000000 1.0
C      1  0.4262450000000  0.4406320000000  0.5653790000000 1.0
C      1  0.4297770000000  0.5658880000000  0.4403100000000 1.0
C      1  0.5742260000000  0.5167400000000  0.4067450000000 1.0
C      1  0.5752760000000  0.4849220000000  0.5855310000000 1.0
C      1  0.5732940000000  0.5100930000000  0.5906070000000 1.0
C      1  0.5653070000000  0.4896420000000  0.4121700000000 1.0
C      1  0.4573440000000  0.5291030000000  0.5512750000000 1.0
C      1  0.4837850000000  0.4843360000000  0.4375920000000 1.0
C      1  0.4906250000000  0.5175560000000  0.4350170000000 1.0
C      1  0.4746790000000  0.4740070000000  0.5542880000000 1.0
C      1  0.5461280000000  0.4740740000000  0.5745350000000 1.0
C      1  0.5429320000000  0.5220170000000  0.4189480000000 1.0
C      1  0.5344060000000  0.4799290000000  0.4212420000000 1.0
C      1  0.5441530000000  0.5211910000000  0.5788830000000 1.0
C      1  0.4330470000000  0.4501740000000  0.5346290000000 1.0
C      1  0.4369460000000  0.5521310000000  0.4693860000000 1.0
C      1  0.4333420000000  0.4488420000000  0.4690420000000 1.0
C      1  0.4309430000000  0.5547570000000  0.5356910000000 1.0
C      1  0.5366790000000  0.5466790000000  0.5422560000000 1.0
C      1  0.5391110000000  0.4447950000000  0.4600650000000 1.0
C      1  0.5276940000000  0.5451140000000  0.4649940000000 1.0
C      1  0.5346850000000  0.4535330000000  0.5350650000000 1.0
C      1  0.5153920000000  0.4136600000000  0.5541600000000 1.0
C      1  0.5227480000000  0.5887160000000  0.4388650000000 1.0
C      1  0.5189850000000  0.4077810000000  0.4467910000000 1.0
C      1  0.5161270000000  0.5846210000000  0.5655710000000 1.0
C      1  0.5273560000000  0.4286200000000  0.5142950000000 1.0
C      1  0.5300800000000  0.5746980000000  0.4755330000000 1.0
C      1  0.5325320000000  0.4199520000000  0.4823440000000 1.0
C      1  0.5218100000000  0.5735720000000  0.5276590000000 1.0
C      1  0.4480950000000  0.5950200000000  0.5439570000000 1.0
C      1  0.4467900000000  0.4151970000000  0.4523770000000 1.0
C      1  0.4451300000000  0.5893340000000  0.4576180000000 1.0
C      1  0.4571150000000  0.4043200000000  0.5541170000000 1.0
C      1  0.5149580000000  0.4716490000000  0.3984980000000 1.0
C      1  0.5063770000000  0.5124580000000  0.5902730000000 1.0
C      1  0.4997150000000  0.4830860000000  0.5744570000000 1.0
C      1  0.4970280000000  0.5297330000000  0.4039070000000 1.0
C      1  0.5114710000000  0.5509440000000  0.5646710000000 1.0
C      1  0.5190890000000  0.4457080000000  0.4344480000000 1.0
C      1  0.5230000000000  0.5559930000000  0.4353680000000 1.0
C      1  0.5232010000000  0.4439550000000  0.5625670000000 1.0
C      1  0.5004070000000  0.4145610000000  0.4194230000000 1.0
C      1  0.4889020000000  0.5772080000000  0.5840030000000 1.0
C      1  0.4986830000000  0.4216840000000  0.5828910000000 1.0
C      1  0.4941790000000  0.5800720000000  0.4225270000000 1.0
C      1  0.4612360000000  0.6049020000000  0.4817000000000 1.0
C      1  0.4650060000000  0.4071880000000  0.5228490000000 1.0
C      1  0.4595420000000  0.5951000000000  0.5119400000000 1.0
C      1  0.4593840000000  0.3990030000000  0.4943860000000 1.0
C      1  0.5642110000000  0.5530140000000  0.5613490000000 1.0
C      1  0.5698350000000  0.4430920000000  0.4453840000000 1.0
C      1  0.5741170000000  0.5632900000000  0.4403280000000 1.0
C      1  0.5682480000000  0.4432190000000  0.5581570000000 1.0
C      1  0.5537350000000  0.5850550000000  0.4534080000000 1.0
C      1  0.5486770000000  0.4179910000000  0.5463560000000 1.0
C      1  0.5440440000000  0.5905310000000  0.5470270000000 1.0
C      1  0.5506720000000  0.4030600000000  0.4590590000000 1.0
C      1  0.5471920000000  0.4421670000000  0.4211800000000 1.0
C      1  0.5405770000000  0.5603710000000  0.5795510000000 1.0
C      1  0.5461240000000  0.4354870000000  0.5821020000000 1.0
C      1  0.5488440000000  0.5614830000000  0.4214900000000 1.0
C      1  0.5619430000000  0.4861590000000  0.5165950000000 1.0
C      1  0.5601340000000  0.5168870000000  0.4703670000000 1.0
C      1  0.5655140000000  0.4868950000000  0.4690510000000 1.0
C      1  0.5603360000000  0.5192720000000  0.5241520000000 1.0
C      1  0.6113080000000  0.5138120000000  0.5381630000000 1.0
C      1  0.6071880000000  0.4894210000000  0.4537100000000 1.0
C      1  0.6145290000000  0.5150510000000  0.4563880000000 1.0
C      1  0.6058900000000  0.4863670000000  0.5385590000000 1.0
C      1  0.4415740000000  0.5136360000000  0.4774860000000 1.0
C      1  0.4311440000000  0.4870070000000  0.5205580000000 1.0
C      1  0.4478870000000  0.5140290000000  0.5109270000000 1.0
C      1  0.4326730000000  0.4846310000000  0.4889300000000 1.0
C      1  0.5721630000000  0.4565440000000  0.4829620000000 1.0
C      1  0.5710420000000  0.5467480000000  0.5138640000000 1.0
C      1  0.5614860000000  0.4519470000000  0.5149240000000 1.0
C      1  0.5770760000000  0.5416090000000  0.4822880000000 1.0
C      1  0.4618710000000  0.5469210000000  0.4858650000000 1.0
C      1  0.4572840000000  0.4552990000000  0.5175680000000 1.0
C      1  0.4553740000000  0.5528990000000  0.5161980000000 1.0
C      1  0.4583330000000  0.4532320000000  0.4836450000000 1.0
C      1  0.4586110000000  0.4702540000000  0.4205270000000 1.0
C      1  0.4509150000000  0.5282770000000  0.5824070000000 1.0
C      1  0.4577840000000  0.4716390000000  0.5814520000000 1.0
C      1  0.4475830000000  0.5239180000000  0.4164970000000 1.0
C      1  0.5233440000000  0.3711660000000  0.5022820000000 1.0
C      1  0.5375260000000  0.6040200000000  0.4910540000000 1.0
C      1  0.5353060000000  0.3861210000000  0.4844540000000 1.0
C      1  0.5256010000000  0.6049610000000  0.5151360000000 1.0
C      1  0.5008540000000  0.4164050000000  0.4726630000000 1.0
C      1  0.4907820000000  0.5869020000000  0.5222940000000 1.0
C      1  0.4982510000000  0.4145010000000  0.5247860000000 1.0
C      1  0.5018030000000  0.5886310000000  0.4656540000000 1.0
C      1  0.5971960000000  0.4580030000000  0.4504150000000 1.0
C      1  0.5942520000000  0.5372610000000  0.5562500000000 1.0
C      1  0.5984300000000  0.4589280000000  0.5572770000000 1.0
C      1  0.5969430000000  0.5396430000000  0.4466490000000 1.0
C      1  0.4641610000000  0.5764170000000  0.5628320000000 1.0
C      1  0.4754530000000  0.4256400000000  0.4372710000000 1.0
C      1  0.4687310000000  0.5725240000000  0.4394950000000 1.0
C      1  0.4697820000000  0.4259440000000  0.5698690000000 1.0
C      1  0.4919780000000  0.5491040000000  0.4477050000000 1.0
C      1  0.4909400000000  0.4456300000000  0.5519530000000 1.0
C      1  0.4822030000000  0.5519650000000  0.5473210000000 1.0
C      1  0.4901740000000  0.4529490000000  0.4492740000000 1.0
C      1  0.5627790000000  0.5718380000000  0.4844180000000 1.0
C      1  0.5594950000000  0.4175270000000  0.5140940000000 1.0
C      1  0.5541210000000  0.5757750000000  0.5172610000000 1.0
C      1  0.5661700000000  0.4249470000000  0.4815910000000 1.0
C      1  0.5620130000000  0.4740240000000  0.4401990000000 1.0
C      1  0.5655650000000  0.5212850000000  0.5531280000000 1.0
C      1  0.5648520000000  0.4755520000000  0.5481830000000 1.0
C      1  0.5642570000000  0.5311830000000  0.4425370000000 1.0
C      1  0.5328170000000  0.5205990000000  0.4841620000000 1.0
C      1  0.5313610000000  0.4823690000000  0.5018790000000 1.0
C      1  0.5328910000000  0.5133240000000  0.5123650000000 1.0
C      1  0.5369870000000  0.4727480000000  0.4733050000000 1.0
C      1  0.4394750000000  0.4107530000000  0.4791040000000 1.0
C      1  0.4264300000000  0.5900430000000  0.5180380000000 1.0
C      1  0.4323990000000  0.4105350000000  0.5326980000000 1.0
C      1  0.4283230000000  0.5989810000000  0.4857330000000 1.0
C      1  0.5248930000000  0.4956090000000  0.3810610000000 1.0
C      1  0.5329180000000  0.5075390000000  0.6056450000000 1.0
C      1  0.5410200000000  0.4807810000000  0.6056860000000 1.0
C      1  0.5238010000000  0.5190720000000  0.3955140000000 1.0
C      1  0.6072100000000  0.5333550000000  0.4816300000000 1.0
C      1  0.5929210000000  0.4503880000000  0.5277930000000 1.0
C      1  0.5993530000000  0.5493900000000  0.5264690000000 1.0
C      1  0.6013550000000  0.4721530000000  0.4805480000000 1.0
C      1  0.4487630000000  0.4428450000000  0.5816350000000 1.0
C      1  0.4484890000000  0.5548340000000  0.4186350000000 1.0
C      1  0.4522950000000  0.4409150000000  0.4224420000000 1.0
C      1  0.4449540000000  0.5586080000000  0.5833200000000 1.0
C      1  0.4140980000000  0.4314800000000  0.4887630000000 1.0
C      1  0.4061150000000  0.5627750000000  0.5181900000000 1.0
C      1  0.4118280000000  0.4322950000000  0.5189040000000 1.0
C      1  0.4145480000000  0.5678980000000  0.4862050000000 1.0
C      1  0.5066630000000  0.5267730000000  0.5249940000000 1.0
C      1  0.4979230000000  0.4803900000000  0.4772490000000 1.0
C      1  0.5034780000000  0.5128250000000  0.4734990000000 1.0
C      1  0.5065620000000  0.4773680000000  0.5211700000000 1.0
C      1  0.4050910000000  0.5202590000000  0.4628690000000 1.0
C      1  0.3942940000000  0.4884980000000  0.5354240000000 1.0
C      1  0.3983210000000  0.5160590000000  0.5311050000000 1.0
C      1  0.4046060000000  0.4906930000000  0.4716740000000 1.0
C      1  0.4768470000000  0.5163080000000  0.5275290000000 1.0
C      1  0.4667720000000  0.4855080000000  0.4902220000000 1.0
C      1  0.4741900000000  0.5174500000000  0.4812170000000 1.0
C      1  0.4744920000000  0.4840320000000  0.5234430000000 1.0
C      1  0.4221060000000  0.4723700000000  0.4523620000000 1.0
C      1  0.4279360000000  0.5238520000000  0.5349530000000 1.0
C      1  0.4210470000000  0.4770210000000  0.5498050000000 1.0
C      1  0.4331370000000  0.5266550000000  0.4471830000000 1.0
C      1  0.5939530000000  0.4774220000000  0.5091650000000 1.0
C      1  0.6170430000000  0.5307650000000  0.5097750000000 1.0
C      1  0.3737150000000  0.5383800000000  0.4946210000000 1.0
END
