TITL C-3289327-5623-533 -0.00314268426548059 125000 -784.004670800913 0 0 140 (C1) n - 1
REM
REM in /nfs/bkarasulu/CARBON/AIRSS/Generating-Clusters/AIREBO/with-SteepDescent/Higher-Symm/SD-CG/HFTN-CG
REM
REM
REM
REM
REM
REM ./C.cell (b20cbc046b6831c77cfcea5457e17084)
REM
REM compiler GCC version 9.2.1 20190827 (Red Hat 9.2.1-1)
REM options -cpp -mtune=generic -march=x86-64 -g -O0 -fpre-include=/usr/include/finclude/math-vector-fortran.h
REM seed -2012168602 -268098198 -1794137789 1809387316 1931837662 160416931 504350334 -288115650 403856037 -281282686 1337868592 1633706392 1566021845 238620480 117548542 1079610175 1841428537 -1113452663 2053787107 -1912874908 -2058287737 234783647 -314320013 -1982574410 1112252977 1707684694 -896390586 -102958185 1828513756 -1062108230 -337110493 21860662 614271165
REM
CELL 1.54180   50.00000   50.00000   50.00000   90.00000   90.00000   90.00000
LATT -1
SFAC C  
C      1  0.4770970000000  0.4931080000000  0.5189430000000 1.0
C      1  0.4848870000000  0.5165850000000  0.4951890000000 1.0
C      1  0.4827800000000  0.4860220000000  0.4802890000000 1.0
C      1  0.4594000000000  0.4792760000000  0.4987750000000 1.0
C      1  0.5226190000000  0.4879340000000  0.4816930000000 1.0
C      1  0.5234970000000  0.5207120000000  0.4886530000000 1.0
C      1  0.5233950000000  0.5085310000000  0.5158700000000 1.0
C      1  0.5222310000000  0.4792140000000  0.5116210000000 1.0
C      1  0.4654490000000  0.4106750000000  0.5257980000000 1.0
C      1  0.4644850000000  0.5300800000000  0.5861300000000 1.0
C      1  0.4686890000000  0.5929240000000  0.4745180000000 1.0
C      1  0.4639670000000  0.4716110000000  0.4133660000000 1.0
C      1  0.5306680000000  0.4103580000000  0.4717470000000 1.0
C      1  0.5300010000000  0.5306650000000  0.4144530000000 1.0
C      1  0.5294930000000  0.5861010000000  0.5320370000000 1.0
C      1  0.5285850000000  0.4703120000000  0.5881220000000 1.0
C      1  0.4116990000000  0.5528750000000  0.4795580000000 1.0
C      1  0.4132730000000  0.4789570000000  0.4524610000000 1.0
C      1  0.4110960000000  0.4474570000000  0.5219740000000 1.0
C      1  0.4124840000000  0.5202270000000  0.5475110000000 1.0
C      1  0.5924700000000  0.5457990000000  0.5118590000000 1.0
C      1  0.5912300000000  0.4875970000000  0.5481950000000 1.0
C      1  0.5908060000000  0.4546470000000  0.4921080000000 1.0
C      1  0.5877480000000  0.5221160000000  0.4460190000000 1.0
C      1  0.5683440000000  0.5660890000000  0.5048050000000 1.0
C      1  0.5650160000000  0.5022100000000  0.4384920000000 1.0
C      1  0.5658480000000  0.4354820000000  0.4989750000000 1.0
C      1  0.5667700000000  0.4967160000000  0.5658260000000 1.0
C      1  0.4332130000000  0.5638670000000  0.4991200000000 1.0
C      1  0.4330030000000  0.5012050000000  0.5607480000000 1.0
C      1  0.4314270000000  0.4360890000000  0.5012170000000 1.0
C      1  0.4342010000000  0.4985780000000  0.4411900000000 1.0
C      1  0.5820540000000  0.4853170000000  0.4853730000000 1.0
C      1  0.5807730000000  0.4821730000000  0.5193230000000 1.0
C      1  0.5825330000000  0.5153000000000  0.5118140000000 1.0
C      1  0.5836380000000  0.5184800000000  0.4779750000000 1.0
C      1  0.4133780000000  0.4791880000000  0.5179620000000 1.0
C      1  0.4103050000000  0.4868310000000  0.4849060000000 1.0
C      1  0.4126220000000  0.5206900000000  0.4825700000000 1.0
C      1  0.4116380000000  0.5127670000000  0.5152850000000 1.0
C      1  0.5028350000000  0.4568900000000  0.5703670000000 1.0
C      1  0.5041920000000  0.5643670000000  0.5387870000000 1.0
C      1  0.5053250000000  0.5397500000000  0.4360280000000 1.0
C      1  0.5090770000000  0.4300190000000  0.4555820000000 1.0
C      1  0.4911280000000  0.4599880000000  0.4302430000000 1.0
C      1  0.4914180000000  0.5723400000000  0.4598040000000 1.0
C      1  0.4910620000000  0.5395660000000  0.5671380000000 1.0
C      1  0.4885170000000  0.4299060000000  0.5417630000000 1.0
C      1  0.5273280000000  0.5978010000000  0.4812120000000 1.0
C      1  0.5232530000000  0.4843220000000  0.4035690000000 1.0
C      1  0.5229470000000  0.4028250000000  0.5188490000000 1.0
C      1  0.5239820000000  0.5178470000000  0.5956800000000 1.0
C      1  0.4747580000000  0.5973440000000  0.5193940000000 1.0
C      1  0.4719020000000  0.4822950000000  0.5954710000000 1.0
C      1  0.4736210000000  0.4060750000000  0.4783360000000 1.0
C      1  0.4722710000000  0.5199480000000  0.4089270000000 1.0
C      1  0.5172680000000  0.5017440000000  0.4389130000000 1.0
C      1  0.5169250000000  0.4365410000000  0.4984880000000 1.0
C      1  0.5161560000000  0.4977940000000  0.5620470000000 1.0
C      1  0.5169950000000  0.5648540000000  0.5010680000000 1.0
C      1  0.4835410000000  0.5004870000000  0.5618640000000 1.0
C      1  0.4844520000000  0.4388200000000  0.4984460000000 1.0
C      1  0.4849600000000  0.5005110000000  0.4429390000000 1.0
C      1  0.4840350000000  0.5647850000000  0.4983060000000 1.0
C      1  0.5449850000000  0.4986400000000  0.5920650000000 1.0
C      1  0.5461820000000  0.5921160000000  0.5031100000000 1.0
C      1  0.5453660000000  0.5016940000000  0.4104550000000 1.0
C      1  0.5451470000000  0.4082890000000  0.5007940000000 1.0
C      1  0.4506840000000  0.5019140000000  0.4115630000000 1.0
C      1  0.4505340000000  0.5932020000000  0.5032720000000 1.0
C      1  0.4503160000000  0.5000870000000  0.5902760000000 1.0
C      1  0.4515440000000  0.4090060000000  0.4963500000000 1.0
C      1  0.4405410000000  0.4409760000000  0.5586830000000 1.0
C      1  0.4422000000000  0.5552730000000  0.5534430000000 1.0
C      1  0.4420690000000  0.5626900000000  0.4449790000000 1.0
C      1  0.4414180000000  0.4431400000000  0.4414830000000 1.0
C      1  0.5530540000000  0.4372990000000  0.4318830000000 1.0
C      1  0.5563020000000  0.5570310000000  0.4370300000000 1.0
C      1  0.5526090000000  0.5617980000000  0.5572630000000 1.0
C      1  0.5495830000000  0.4348020000000  0.5673330000000 1.0
C      1  0.5209020000000  0.4305190000000  0.5651110000000 1.0
C      1  0.5244090000000  0.5612740000000  0.5639240000000 1.0
C      1  0.5269000000000  0.5660740000000  0.4356380000000 1.0
C      1  0.5240090000000  0.4372990000000  0.4288020000000 1.0
C      1  0.4692750000000  0.4348210000000  0.4350240000000 1.0
C      1  0.4701230000000  0.5666090000000  0.4353250000000 1.0
C      1  0.4698540000000  0.5633620000000  0.5602410000000 1.0
C      1  0.4689090000000  0.4358260000000  0.5681170000000 1.0
C      1  0.5118950000000  0.5492320000000  0.4741930000000 1.0
C      1  0.5132760000000  0.4725440000000  0.4528360000000 1.0
C      1  0.5107210000000  0.4516980000000  0.5279450000000 1.0
C      1  0.5094910000000  0.5244860000000  0.5424970000000 1.0
C      1  0.4901140000000  0.5402110000000  0.5193750000000 1.0
C      1  0.4900930000000  0.4736990000000  0.5436670000000 1.0
C      1  0.4906830000000  0.4543810000000  0.4706210000000 1.0
C      1  0.4891050000000  0.5266410000000  0.4629390000000 1.0
C      1  0.5627590000000  0.5130350000000  0.5377350000000 1.0
C      1  0.5635740000000  0.5410680000000  0.4853820000000 1.0
C      1  0.5648770000000  0.4803450000000  0.4589020000000 1.0
C      1  0.5639830000000  0.4567430000000  0.5214420000000 1.0
C      1  0.4342300000000  0.5216160000000  0.4598880000000 1.0
C      1  0.4335790000000  0.5386980000000  0.5171260000000 1.0
C      1  0.4323180000000  0.4769220000000  0.5434640000000 1.0
C      1  0.4359960000000  0.4646620000000  0.4874090000000 1.0
C      1  0.4792760000000  0.5445500000000  0.4198960000000 1.0
C      1  0.4806470000000  0.4166190000000  0.4537210000000 1.0
C      1  0.4772430000000  0.4557840000000  0.5884000000000 1.0
C      1  0.4801230000000  0.5845170000000  0.5432440000000 1.0
C      1  0.5171210000000  0.5427150000000  0.5855790000000 1.0
C      1  0.5146940000000  0.4113040000000  0.5437710000000 1.0
C      1  0.5158350000000  0.4585460000000  0.4104660000000 1.0
C      1  0.5201380000000  0.5860060000000  0.4565970000000 1.0
C      1  0.4606580000000  0.4423330000000  0.5158990000000 1.0
C      1  0.4599170000000  0.5172910000000  0.5558600000000 1.0
C      1  0.4593050000000  0.5616650000000  0.4811010000000 1.0
C      1  0.4615510000000  0.4827010000000  0.4445730000000 1.0
C      1  0.5408410000000  0.4415070000000  0.4797050000000 1.0
C      1  0.5399170000000  0.5213140000000  0.4444940000000 1.0
C      1  0.5404240000000  0.5567480000000  0.5195560000000 1.0
C      1  0.5399250000000  0.4792200000000  0.5580360000000 1.0
C      1  0.6157290000000  0.4473260000000  0.4947870000000 1.0
C      1  0.6157350000000  0.4849690000000  0.5564650000000 1.0
C      1  0.6176380000000  0.5527230000000  0.5115670000000 1.0
C      1  0.5829580000000  0.5471170000000  0.4345880000000 1.0
C      1  0.4147870000000  0.4381840000000  0.5477290000000 1.0
C      1  0.4151750000000  0.4537450000000  0.4416730000000 1.0
C      1  0.4155860000000  0.5633550000000  0.4543210000000 1.0
C      1  0.4159480000000  0.5462450000000  0.5548750000000 1.0
C      1  0.4591010000000  0.4610160000000  0.5390580000000 1.0
C      1  0.4607180000000  0.5362040000000  0.5324680000000 1.0
C      1  0.4594790000000  0.5386680000000  0.4615900000000 1.0
C      1  0.4577190000000  0.4595460000000  0.4640310000000 1.0
C      1  0.5442740000000  0.4587990000000  0.4556160000000 1.0
C      1  0.5439180000000  0.5445850000000  0.4642910000000 1.0
C      1  0.5419540000000  0.5343670000000  0.5402300000000 1.0
C      1  0.5419690000000  0.4544400000000  0.5411080000000 1.0
C      1  0.4986930000000  0.4992040000000  0.5921020000000 1.0
C      1  0.5007730000000  0.5947380000000  0.5007880000000 1.0
C      1  0.4983220000000  0.5029710000000  0.4107060000000 1.0
C      1  0.4989710000000  0.4076710000000  0.4978300000000 1.0
END
