TITL C-3289334-2237-104 0.000794499204296062 125000 -266.637967216887 0 0 49 (C1) n - 1
REM
REM in /nfs/bkarasulu/CARBON/AIRSS/Generating-Clusters/AIREBO/with-SteepDescent/Higher-Symm/SD-CG/HFTN-CG
REM
REM
REM
REM
REM
REM ./C.cell (b20cbc046b6831c77cfcea5457e17084)
REM
REM compiler GCC version 9.2.1 20190827 (Red Hat 9.2.1-1)
REM options -cpp -mtune=generic -march=x86-64 -g -O0 -fpre-include=/usr/include/finclude/math-vector-fortran.h
REM seed -1683007664 1274292295 240723240 -1333133660 487999091 143720119 1393212454 586888865 -1821995073 1032372833 726042289 -1557862421 1231249766 1783436540 -1497478708 868249282 189913149 -1159849591 -345580059 81321759 1134843081 1431902855 1601370531 1453370928 1908393521 -952631383 794460074 -1784791341 1679825630 1229932994 -262252702 149114296 -2075482112
REM
CELL 1.54180   50.00000   50.00000   50.00000   90.00000   90.00000   90.00000
LATT -1
SFAC C  
C      1  0.5686410000000  0.4485860000000  0.4569080000000 1.0
C      1  0.4301770000000  0.5371570000000  0.4253280000000 1.0
C      1  0.5409610000000  0.5494090000000  0.4970520000000 1.0
C      1  0.4397110000000  0.4486840000000  0.4982550000000 1.0
C      1  0.5698820000000  0.5083860000000  0.5184730000000 1.0
C      1  0.4462580000000  0.4969700000000  0.5220340000000 1.0
C      1  0.4533380000000  0.5097330000000  0.5457010000000 1.0
C      1  0.5600710000000  0.4882880000000  0.5368320000000 1.0
C      1  0.5214350000000  0.4892370000000  0.4997980000000 1.0
C      1  0.4615290000000  0.5281870000000  0.5022550000000 1.0
C      1  0.5043220000000  0.5296400000000  0.4334250000000 1.0
C      1  0.5071570000000  0.4734980000000  0.4349170000000 1.0
C      1  0.5396010000000  0.4951870000000  0.5545840000000 1.0
C      1  0.4757720000000  0.4999420000000  0.5602290000000 1.0
C      1  0.4933320000000  0.4764020000000  0.5098400000000 1.0
C      1  0.4914450000000  0.5261060000000  0.5019700000000 1.0
C      1  0.5438240000000  0.4720360000000  0.4952970000000 1.0
C      1  0.4486750000000  0.5459600000000  0.5183810000000 1.0
C      1  0.5299580000000  0.5159660000000  0.5737370000000 1.0
C      1  0.4714580000000  0.4775700000000  0.5775610000000 1.0
C      1  0.4834420000000  0.4552120000000  0.5662470000000 1.0
C      1  0.5093780000000  0.5323560000000  0.5653520000000 1.0
C      1  0.4981900000000  0.4648110000000  0.5404800000000 1.0
C      1  0.4999430000000  0.5277310000000  0.5342690000000 1.0
C      1  0.4977220000000  0.5512490000000  0.4717240000000 1.0
C      1  0.4836260000000  0.4540160000000  0.4806040000000 1.0
C      1  0.4510810000000  0.5019320000000  0.4883690000000 1.0
C      1  0.5544520000000  0.5119240000000  0.4961850000000 1.0
C      1  0.4494280000000  0.5233310000000  0.4368190000000 1.0
C      1  0.5534110000000  0.4696860000000  0.4652900000000 1.0
C      1  0.5526940000000  0.5028220000000  0.4683130000000 1.0
C      1  0.4532130000000  0.5016530000000  0.4588440000000 1.0
C      1  0.5235420000000  0.5671320000000  0.4833380000000 1.0
C      1  0.4563450000000  0.4434220000000  0.4769650000000 1.0
C      1  0.4819760000000  0.4884380000000  0.4463080000000 1.0
C      1  0.5272360000000  0.5155440000000  0.4516120000000 1.0
C      1  0.4960230000000  0.5697670000000  0.4987550000000 1.0
C      1  0.5016930000000  0.4367430000000  0.4965780000000 1.0
C      1  0.4796050000000  0.5181880000000  0.4344250000000 1.0
C      1  0.5318850000000  0.4839500000000  0.4446150000000 1.0
C      1  0.5569070000000  0.4652900000000  0.5195890000000 1.0
C      1  0.4451220000000  0.5370090000000  0.5445840000000 1.0
C      1  0.4882540000000  0.4876110000000  0.4781390000000 1.0
C      1  0.5022030000000  0.5179620000000  0.4716200000000 1.0
C      1  0.4929200000000  0.5589560000000  0.5246280000000 1.0
C      1  0.5066710000000  0.4404880000000  0.5213010000000 1.0
C      1  0.5251170000000  0.5218050000000  0.5041020000000 1.0
C      1  0.4604660000000  0.4739540000000  0.5034190000000 1.0
C      1  0.5070310000000  0.4970050000000  0.5470060000000 1.0
END
