TITL C-3289327-5623-394 -0.00096122639866918 125000 -575.447734746374 0 0 118 (C1) n - 1
REM
REM in /nfs/bkarasulu/CARBON/AIRSS/Generating-Clusters/AIREBO/with-SteepDescent/Higher-Symm/SD-CG/HFTN-CG
REM
REM
REM
REM
REM
REM ./C.cell (b20cbc046b6831c77cfcea5457e17084)
REM
REM compiler GCC version 9.2.1 20190827 (Red Hat 9.2.1-1)
REM options -cpp -mtune=generic -march=x86-64 -g -O0 -fpre-include=/usr/include/finclude/math-vector-fortran.h
REM seed 457887670 902425058 1811534651 272828564 -645351465 -1919686833 -2042683182 2086152525 1681758929 -1476517890 -176346920 -714490516 -495267734 1428632357 733034327 -1056471323 884477713 -1509364354 -258505888 1925831232 -1003521240 -610269508 721684628 -1329330226 1708503617 -1128411212 563522532 -962157396 1261176728 -1920832056 -519103568 -1932640811 662718846
REM
CELL 1.54180   50.00000   50.00000   50.00000   90.00000   90.00000   90.00000
LATT -1
SFAC C  
C      1  0.5694530000000  0.4350420000000  0.5087170000000 1.0
C      1  0.5675290000000  0.4686420000000  0.4470710000000 1.0
C      1  0.5709470000000  0.5400250000000  0.4576250000000 1.0
C      1  0.5731950000000  0.5605730000000  0.5006830000000 1.0
C      1  0.5623270000000  0.4993810000000  0.5581820000000 1.0
C      1  0.4376080000000  0.5582840000000  0.5138470000000 1.0
C      1  0.4320800000000  0.5288710000000  0.4526360000000 1.0
C      1  0.4354680000000  0.4609560000000  0.4580080000000 1.0
C      1  0.4296670000000  0.4484180000000  0.5224770000000 1.0
C      1  0.4322240000000  0.4995630000000  0.5707020000000 1.0
C      1  0.4983350000000  0.4910920000000  0.5640170000000 1.0
C      1  0.5074490000000  0.4380420000000  0.5088140000000 1.0
C      1  0.5058270000000  0.4752820000000  0.4464210000000 1.0
C      1  0.5099320000000  0.5466950000000  0.4582400000000 1.0
C      1  0.5061320000000  0.5538680000000  0.5379220000000 1.0
C      1  0.4796000000000  0.5179170000000  0.5638420000000 1.0
C      1  0.4976970000000  0.5600350000000  0.5072250000000 1.0
C      1  0.4861200000000  0.5246480000000  0.4456310000000 1.0
C      1  0.4921530000000  0.4510820000000  0.4637250000000 1.0
C      1  0.4896470000000  0.4400510000000  0.5348610000000 1.0
C      1  0.4699840000000  0.5352560000000  0.4176250000000 1.0
C      1  0.4575960000000  0.5929000000000  0.5133860000000 1.0
C      1  0.4506380000000  0.5246290000000  0.5745500000000 1.0
C      1  0.4509870000000  0.4109930000000  0.5395300000000 1.0
C      1  0.4588570000000  0.4343840000000  0.4326370000000 1.0
C      1  0.5381480000000  0.4618330000000  0.4109510000000 1.0
C      1  0.5409340000000  0.4070750000000  0.5071700000000 1.0
C      1  0.5414300000000  0.4791390000000  0.5900180000000 1.0
C      1  0.5351160000000  0.5609270000000  0.5390130000000 1.0
C      1  0.5424730000000  0.5612800000000  0.4264150000000 1.0
C      1  0.5688630000000  0.5331370000000  0.5565800000000 1.0
C      1  0.5719910000000  0.4500100000000  0.5397510000000 1.0
C      1  0.5758080000000  0.4459560000000  0.4711790000000 1.0
C      1  0.5712840000000  0.5101870000000  0.4404510000000 1.0
C      1  0.5797610000000  0.5736720000000  0.4773330000000 1.0
C      1  0.4240450000000  0.4692730000000  0.5554550000000 1.0
C      1  0.4241070000000  0.5466950000000  0.5429640000000 1.0
C      1  0.4261200000000  0.5531510000000  0.4762320000000 1.0
C      1  0.4282930000000  0.4892230000000  0.4401130000000 1.0
C      1  0.4302740000000  0.4371960000000  0.4898700000000 1.0
C      1  0.5924790000000  0.4814740000000  0.5134550000000 1.0
C      1  0.5993610000000  0.4826930000000  0.4836910000000 1.0
C      1  0.6029440000000  0.5128880000000  0.4800040000000 1.0
C      1  0.6072790000000  0.5247970000000  0.5063450000000 1.0
C      1  0.5923420000000  0.5074300000000  0.5240140000000 1.0
C      1  0.4037440000000  0.5230790000000  0.5134200000000 1.0
C      1  0.4006690000000  0.5200750000000  0.4836420000000 1.0
C      1  0.4080160000000  0.4910140000000  0.4774610000000 1.0
C      1  0.4036700000000  0.4766960000000  0.5035150000000 1.0
C      1  0.4047270000000  0.4953870000000  0.5248390000000 1.0
C      1  0.5282590000000  0.5078910000000  0.5339690000000 1.0
C      1  0.5295630000000  0.4706790000000  0.5208140000000 1.0
C      1  0.5325880000000  0.4685100000000  0.4771590000000 1.0
C      1  0.5357860000000  0.5089830000000  0.4700860000000 1.0
C      1  0.5283160000000  0.5442820000000  0.4868990000000 1.0
C      1  0.4695740000000  0.4880790000000  0.5365200000000 1.0
C      1  0.4679350000000  0.5297360000000  0.5340640000000 1.0
C      1  0.4682210000000  0.5262480000000  0.4886520000000 1.0
C      1  0.4734320000000  0.4958960000000  0.4586720000000 1.0
C      1  0.4695920000000  0.4640340000000  0.5008950000000 1.0
C      1  0.4917900000000  0.4603840000000  0.5739330000000 1.0
C      1  0.4948680000000  0.4190110000000  0.4883450000000 1.0
C      1  0.4918640000000  0.4826620000000  0.4193900000000 1.0
C      1  0.4929260000000  0.5745140000000  0.4616620000000 1.0
C      1  0.4905730000000  0.5650540000000  0.5628770000000 1.0
C      1  0.4992510000000  0.5396600000000  0.5746620000000 1.0
C      1  0.5085740000000  0.5790470000000  0.4858910000000 1.0
C      1  0.5055040000000  0.5083590000000  0.4239480000000 1.0
C      1  0.5065440000000  0.4231650000000  0.4619510000000 1.0
C      1  0.5085920000000  0.4412940000000  0.5608460000000 1.0
C      1  0.4608480000000  0.4370560000000  0.5196490000000 1.0
C      1  0.4673070000000  0.4646670000000  0.4466670000000 1.0
C      1  0.4610010000000  0.5402320000000  0.4616450000000 1.0
C      1  0.4691820000000  0.5626690000000  0.5256760000000 1.0
C      1  0.4595820000000  0.4826390000000  0.5668650000000 1.0
C      1  0.5413760000000  0.5656710000000  0.5099650000000 1.0
C      1  0.5389450000000  0.5347830000000  0.4479820000000 1.0
C      1  0.5352270000000  0.4582660000000  0.4448450000000 1.0
C      1  0.5381340000000  0.4377040000000  0.5216860000000 1.0
C      1  0.5296580000000  0.5015910000000  0.5673520000000 1.0
C      1  0.4664230000000  0.4201380000000  0.4907180000000 1.0
C      1  0.4618060000000  0.4839750000000  0.4192220000000 1.0
C      1  0.4654750000000  0.5695660000000  0.4645010000000 1.0
C      1  0.4622400000000  0.5687470000000  0.5584030000000 1.0
C      1  0.4622110000000  0.4537690000000  0.5731730000000 1.0
C      1  0.5380380000000  0.5823630000000  0.4805930000000 1.0
C      1  0.5326170000000  0.5130470000000  0.4253010000000 1.0
C      1  0.5341520000000  0.4273970000000  0.4567220000000 1.0
C      1  0.5360100000000  0.4412520000000  0.5540320000000 1.0
C      1  0.5260450000000  0.5325320000000  0.5757920000000 1.0
C      1  0.5545980000000  0.4233350000000  0.4804490000000 1.0
C      1  0.5522740000000  0.4889710000000  0.4257860000000 1.0
C      1  0.5555460000000  0.5702880000000  0.4558460000000 1.0
C      1  0.5458120000000  0.5487010000000  0.5619640000000 1.0
C      1  0.5573950000000  0.4659970000000  0.5630240000000 1.0
C      1  0.4447310000000  0.5770530000000  0.4864040000000 1.0
C      1  0.4500160000000  0.5126740000000  0.4301940000000 1.0
C      1  0.4501430000000  0.4311770000000  0.4653470000000 1.0
C      1  0.4403050000000  0.4400230000000  0.5536690000000 1.0
C      1  0.4414610000000  0.5497600000000  0.5652450000000 1.0
C      1  0.5624520000000  0.4680910000000  0.5125740000000 1.0
C      1  0.5654490000000  0.4771500000000  0.4799330000000 1.0
C      1  0.5694830000000  0.5104850000000  0.4744140000000 1.0
C      1  0.5577600000000  0.5314790000000  0.4984590000000 1.0
C      1  0.5608490000000  0.5158470000000  0.5284180000000 1.0
C      1  0.4370050000000  0.5248910000000  0.5202680000000 1.0
C      1  0.4345770000000  0.5216190000000  0.4857750000000 1.0
C      1  0.4416180000000  0.4916480000000  0.4713140000000 1.0
C      1  0.4363340000000  0.4699010000000  0.4969460000000 1.0
C      1  0.4362040000000  0.4952680000000  0.5372010000000 1.0
C      1  0.4982250000000  0.5311130000000  0.4923850000000 1.0
C      1  0.5006280000000  0.5211820000000  0.5303010000000 1.0
C      1  0.4992690000000  0.4714290000000  0.5362630000000 1.0
C      1  0.5021110000000  0.4667170000000  0.4922350000000 1.0
C      1  0.5054630000000  0.4992650000000  0.4695730000000 1.0
C      1  0.5357750000000  0.4986460000000  0.5024850000000 1.0
C      1  0.4678250000000  0.4977190000000  0.5044690000000 1.0
C      1  0.5017920000000  0.4990680000000  0.5035630000000 1.0
END
