TITL C-3289328-6581-712 6.60433071190084e-05 125000 -167.881953071711 0 0 31 (C1) n - 1
REM
REM in /nfs/bkarasulu/CARBON/AIRSS/Generating-Clusters/AIREBO/with-SteepDescent/Higher-Symm/SD-CG/HFTN-CG
REM
REM
REM
REM
REM
REM ./C.cell (b20cbc046b6831c77cfcea5457e17084)
REM
REM compiler GCC version 9.2.1 20190827 (Red Hat 9.2.1-1)
REM options -cpp -mtune=generic -march=x86-64 -g -O0 -fpre-include=/usr/include/finclude/math-vector-fortran.h
REM seed 1516581687 -1901562654 607844371 623470021 -544566157 -2072370821 908977672 1675838726 420811517 2122953922 668968778 553421636 415149436 653239039 1861944263 -1812740414 -1375384469 -501523139 -728908896 1745125441 996086862 1079938424 -785815996 1530394005 -1546441336 -1266773317 36390351 575741967 1780240266 609899241 1457756077 -2037407381 1507659074
REM
CELL 1.54180   50.00000   50.00000   50.00000   90.00000   90.00000   90.00000
LATT -1
SFAC C  
C      1  0.5026720000000  0.4872320000000  0.4702040000000 1.0
C      1  0.4812790000000  0.5031930000000  0.4578240000000 1.0
C      1  0.4525890000000  0.5041400000000  0.4739430000000 1.0
C      1  0.4456590000000  0.5033930000000  0.5060210000000 1.0
C      1  0.4699340000000  0.5011170000000  0.5327710000000 1.0
C      1  0.4955980000000  0.4902970000000  0.5242430000000 1.0
C      1  0.5203450000000  0.4914500000000  0.5402850000000 1.0
C      1  0.5473130000000  0.5012170000000  0.5238780000000 1.0
C      1  0.5524690000000  0.4964220000000  0.4919740000000 1.0
C      1  0.5348070000000  0.4913690000000  0.4650040000000 1.0
C      1  0.5731690000000  0.4832980000000  0.5136030000000 1.0
C      1  0.5571660000000  0.5154410000000  0.4654940000000 1.0
C      1  0.5196090000000  0.4660110000000  0.4510290000000 1.0
C      1  0.4893760000000  0.5278790000000  0.4424160000000 1.0
C      1  0.4543850000000  0.4865380000000  0.4466210000000 1.0
C      1  0.4366770000000  0.5291050000000  0.4883490000000 1.0
C      1  0.4432930000000  0.4823670000000  0.5300130000000 1.0
C      1  0.4693070000000  0.5238670000000  0.5519360000000 1.0
C      1  0.5234010000000  0.4719400000000  0.5630950000000 1.0
C      1  0.5335340000000  0.5219350000000  0.5447840000000 1.0
C      1  0.4967000000000  0.5498170000000  0.4316240000000 1.0
C      1  0.4436440000000  0.4713830000000  0.4294550000000 1.0
C      1  0.4275130000000  0.5526600000000  0.4869710000000 1.0
C      1  0.4298840000000  0.4632540000000  0.5401980000000 1.0
C      1  0.4691910000000  0.5416950000000  0.5702040000000 1.0
C      1  0.5263930000000  0.4536570000000  0.5806480000000 1.0
C      1  0.5326820000000  0.5446660000000  0.5558530000000 1.0
C      1  0.5933000000000  0.4688540000000  0.5186860000000 1.0
C      1  0.5679640000000  0.5357090000000  0.4548880000000 1.0
C      1  0.5203000000000  0.4441630000000  0.4382890000000 1.0
C      1  0.4974250000000  0.4805050000000  0.4991370000000 1.0
END
