TITL C-3289330-4660-82 -0.00064034744909941 125000 -639.85001154586 0 0 117 (C1) n - 1
REM
REM in /nfs/bkarasulu/CARBON/AIRSS/Generating-Clusters/AIREBO/with-SteepDescent/Higher-Symm/SD-CG/HFTN-CG
REM
REM
REM
REM
REM
REM ./C.cell (b20cbc046b6831c77cfcea5457e17084)
REM
REM compiler GCC version 9.2.1 20190827 (Red Hat 9.2.1-1)
REM options -cpp -mtune=generic -march=x86-64 -g -O0 -fpre-include=/usr/include/finclude/math-vector-fortran.h
REM seed -792089067 1597760035 488510377 -248877369 1624926034 958994799 -2141247000 2138117761 -606173645 -1209985681 1871835770 -1649701856 217114710 1165170082 -973264345 969612208 810358915 1261623365 1539285144 -2142082753 -24849165 -800201260 521144335 148113306 455816745 1827414271 9598778 804628419 447768578 -2081727592 -629204657 -301606010 488725362
REM
CELL 1.54180   50.00000   50.00000   50.00000   90.00000   90.00000   90.00000
LATT -1
SFAC C  
C      1  0.4865880000000  0.5625930000000  0.5595990000000 1.0
C      1  0.5740960000000  0.5580730000000  0.4847390000000 1.0
C      1  0.4502920000000  0.5594630000000  0.4489580000000 1.0
C      1  0.5198250000000  0.5300420000000  0.4860230000000 1.0
C      1  0.4741710000000  0.5244250000000  0.4788720000000 1.0
C      1  0.5017680000000  0.5281320000000  0.5216070000000 1.0
C      1  0.4983910000000  0.5454710000000  0.4688050000000 1.0
C      1  0.4747410000000  0.5411030000000  0.5084960000000 1.0
C      1  0.5234630000000  0.5507790000000  0.5097100000000 1.0
C      1  0.4945450000000  0.4192700000000  0.4789280000000 1.0
C      1  0.4888740000000  0.4146880000000  0.5121460000000 1.0
C      1  0.5204990000000  0.4205790000000  0.5001150000000 1.0
C      1  0.4652450000000  0.4461960000000  0.5862500000000 1.0
C      1  0.5900640000000  0.4420290000000  0.4786190000000 1.0
C      1  0.4361490000000  0.4412100000000  0.4475770000000 1.0
C      1  0.4845560000000  0.5861460000000  0.5360870000000 1.0
C      1  0.5550780000000  0.5836430000000  0.4881560000000 1.0
C      1  0.4637730000000  0.5837770000000  0.4676690000000 1.0
C      1  0.4869680000000  0.4796560000000  0.4576780000000 1.0
C      1  0.4703990000000  0.4709620000000  0.5441570000000 1.0
C      1  0.5514010000000  0.4810380000000  0.5063770000000 1.0
C      1  0.5577650000000  0.4341170000000  0.4857090000000 1.0
C      1  0.4615430000000  0.4320320000000  0.4553840000000 1.0
C      1  0.4783560000000  0.4282700000000  0.5603200000000 1.0
C      1  0.4824420000000  0.4053980000000  0.5376080000000 1.0
C      1  0.5336080000000  0.4175940000000  0.4705090000000 1.0
C      1  0.4623140000000  0.4178270000000  0.4824760000000 1.0
C      1  0.5228100000000  0.4709240000000  0.5470560000000 1.0
C      1  0.5404880000000  0.4754390000000  0.4554440000000 1.0
C      1  0.4438400000000  0.4745430000000  0.4939190000000 1.0
C      1  0.5187850000000  0.4336150000000  0.4464530000000 1.0
C      1  0.4480320000000  0.4285360000000  0.5047190000000 1.0
C      1  0.5484060000000  0.4342140000000  0.5385300000000 1.0
C      1  0.4465440000000  0.4994630000000  0.5149230000000 1.0
C      1  0.5312310000000  0.4979650000000  0.5288480000000 1.0
C      1  0.5156650000000  0.4943860000000  0.4475060000000 1.0
C      1  0.5688440000000  0.5056300000000  0.4934350000000 1.0
C      1  0.4746140000000  0.5088960000000  0.4486280000000 1.0
C      1  0.4685230000000  0.4998540000000  0.5619880000000 1.0
C      1  0.5476010000000  0.4486320000000  0.5096360000000 1.0
C      1  0.4873390000000  0.4467260000000  0.4491940000000 1.0
C      1  0.4639880000000  0.4402770000000  0.5319400000000 1.0
C      1  0.4176590000000  0.4681430000000  0.4523080000000 1.0
C      1  0.4918490000000  0.4586950000000  0.5824060000000 1.0
C      1  0.5875220000000  0.4709130000000  0.4618510000000 1.0
C      1  0.4349270000000  0.5072670000000  0.5821840000000 1.0
C      1  0.5999460000000  0.4969670000000  0.5169490000000 1.0
C      1  0.4774190000000  0.5030770000000  0.4091910000000 1.0
C      1  0.3946880000000  0.5001290000000  0.5185800000000 1.0
C      1  0.5525900000000  0.4979880000000  0.5777620000000 1.0
C      1  0.5460540000000  0.4917580000000  0.4117030000000 1.0
C      1  0.4215340000000  0.4891180000000  0.4754440000000 1.0
C      1  0.4998710000000  0.4871660000000  0.5656390000000 1.0
C      1  0.5664330000000  0.4958640000000  0.4609330000000 1.0
C      1  0.5428870000000  0.4501950000000  0.4360280000000 1.0
C      1  0.4294870000000  0.4474690000000  0.4962610000000 1.0
C      1  0.5300590000000  0.4443050000000  0.5558460000000 1.0
C      1  0.5143100000000  0.4500640000000  0.5144370000000 1.0
C      1  0.5094470000000  0.4495680000000  0.4748710000000 1.0
C      1  0.4830680000000  0.4473560000000  0.5047010000000 1.0
C      1  0.5046890000000  0.5791320000000  0.5095880000000 1.0
C      1  0.5104130000000  0.5752960000000  0.4762920000000 1.0
C      1  0.4733680000000  0.5731320000000  0.4984280000000 1.0
C      1  0.5540750000000  0.5525330000000  0.5569860000000 1.0
C      1  0.5276660000000  0.5579320000000  0.4264980000000 1.0
C      1  0.4197330000000  0.5508430000000  0.5200880000000 1.0
C      1  0.5270380000000  0.5605730000000  0.5595570000000 1.0
C      1  0.5454890000000  0.5612760000000  0.4478460000000 1.0
C      1  0.4253520000000  0.5599040000000  0.4937010000000 1.0
C      1  0.5646960000000  0.5040940000000  0.4279820000000 1.0
C      1  0.3959160000000  0.4935750000000  0.4924000000000 1.0
C      1  0.5265680000000  0.4951770000000  0.5851170000000 1.0
C      1  0.5016280000000  0.5505870000000  0.4285590000000 1.0
C      1  0.4387690000000  0.5449150000000  0.5390330000000 1.0
C      1  0.5647490000000  0.5446200000000  0.5332780000000 1.0
C      1  0.4214020000000  0.5098840000000  0.4217700000000 1.0
C      1  0.4796210000000  0.5166470000000  0.6174280000000 1.0
C      1  0.6061090000000  0.5536530000000  0.4804740000000 1.0
C      1  0.4201940000000  0.4983530000000  0.5337050000000 1.0
C      1  0.5590040000000  0.4983480000000  0.5484720000000 1.0
C      1  0.5168060000000  0.5001940000000  0.4153510000000 1.0
C      1  0.5621970000000  0.5360860000000  0.4619130000000 1.0
C      1  0.4343490000000  0.5410110000000  0.4714260000000 1.0
C      1  0.5045790000000  0.5398090000000  0.5701010000000 1.0
C      1  0.4516110000000  0.5039040000000  0.4163480000000 1.0
C      1  0.4552630000000  0.5116730000000  0.5985400000000 1.0
C      1  0.6084420000000  0.5011250000000  0.4916770000000 1.0
C      1  0.4738500000000  0.4703530000000  0.4873520000000 1.0
C      1  0.4973720000000  0.4767350000000  0.5272050000000 1.0
C      1  0.5283010000000  0.4716220000000  0.4832750000000 1.0
C      1  0.5092960000000  0.4360040000000  0.5721140000000 1.0
C      1  0.5664730000000  0.4450410000000  0.4546120000000 1.0
C      1  0.4153620000000  0.4424700000000  0.4719700000000 1.0
C      1  0.4952140000000  0.5222920000000  0.4275520000000 1.0
C      1  0.4416880000000  0.5172380000000  0.5503860000000 1.0
C      1  0.5738260000000  0.5171750000000  0.5251610000000 1.0
C      1  0.5372400000000  0.5140910000000  0.4649060000000 1.0
C      1  0.4425110000000  0.5129520000000  0.4836110000000 1.0
C      1  0.5107680000000  0.5153770000000  0.5500860000000 1.0
C      1  0.4174770000000  0.4898080000000  0.5657590000000 1.0
C      1  0.5870460000000  0.4825590000000  0.5393550000000 1.0
C      1  0.4955730000000  0.4876520000000  0.3922020000000 1.0
C      1  0.5910670000000  0.5236470000000  0.4750410000000 1.0
C      1  0.4434020000000  0.5221870000000  0.4445890000000 1.0
C      1  0.4854910000000  0.5195090000000  0.5840590000000 1.0
C      1  0.3718500000000  0.5077700000000  0.5316260000000 1.0
C      1  0.5731860000000  0.5001550000000  0.5957450000000 1.0
C      1  0.5486490000000  0.4644200000000  0.4092590000000 1.0
C      1  0.4648710000000  0.5584260000000  0.5344810000000 1.0
C      1  0.5532270000000  0.5585710000000  0.5103880000000 1.0
C      1  0.4833000000000  0.5655290000000  0.4485850000000 1.0
C      1  0.4776690000000  0.5041880000000  0.5234030000000 1.0
C      1  0.5178150000000  0.5004110000000  0.4976910000000 1.0
C      1  0.4878420000000  0.4978020000000  0.4938830000000 1.0
C      1  0.5362510000000  0.5802390000000  0.4672600000000 1.0
C      1  0.4424800000000  0.5825670000000  0.4930200000000 1.0
C      1  0.5178000000000  0.5792820000000  0.5409720000000 1.0
END
