TITL C-3289326-3776-556 0.000906595010731983 125000 -714.772180044097 0 0 126 (C1) n - 1
REM
REM in /nfs/bkarasulu/CARBON/AIRSS/Generating-Clusters/AIREBO/with-SteepDescent/Higher-Symm/SD-CG/HFTN-CG
REM
REM
REM
REM
REM
REM ./C.cell (b20cbc046b6831c77cfcea5457e17084)
REM
REM compiler GCC version 9.2.1 20190827 (Red Hat 9.2.1-1)
REM options -cpp -mtune=generic -march=x86-64 -g -O0 -fpre-include=/usr/include/finclude/math-vector-fortran.h
REM seed -1820849233 -1238275979 -443708302 -712289980 1894069135 1607392837 1532966013 -544899931 -1734348710 1382112803 666109863 1040813825 -1566152426 1543877639 -2029755539 4844460 742248306 1684483450 -567680591 -221624749 -25582787 -1051519992 -1921931087 628557441 -1903727583 1157994725 222610366 1388163104 -1200504833 219945184 -1003332113 -1486815940 1520984016
REM
CELL 1.54180   50.00000   50.00000   50.00000   90.00000   90.00000   90.00000
LATT -1
SFAC C  
C      1  0.4675420000000  0.4972110000000  0.4972740000000 1.0
C      1  0.5119570000000  0.4704860000000  0.4927520000000 1.0
C      1  0.5125520000000  0.5320590000000  0.4953390000000 1.0
C      1  0.5294250000000  0.4960100000000  0.4991130000000 1.0
C      1  0.4821800000000  0.4720480000000  0.5053040000000 1.0
C      1  0.4839810000000  0.5330540000000  0.5037420000000 1.0
C      1  0.4440480000000  0.4430170000000  0.5620460000000 1.0
C      1  0.5697160000000  0.4776690000000  0.5599390000000 1.0
C      1  0.4771210000000  0.5720410000000  0.5539100000000 1.0
C      1  0.5620900000000  0.4428960000000  0.4431360000000 1.0
C      1  0.4203520000000  0.4838210000000  0.4462060000000 1.0
C      1  0.5215030000000  0.5755240000000  0.4422720000000 1.0
C      1  0.4391000000000  0.5714740000000  0.5206920000000 1.0
C      1  0.4602630000000  0.4129580000000  0.5176740000000 1.0
C      1  0.5825880000000  0.5096520000000  0.5237680000000 1.0
C      1  0.5628500000000  0.5746080000000  0.4739070000000 1.0
C      1  0.5379990000000  0.4153850000000  0.4808880000000 1.0
C      1  0.4035500000000  0.5074060000000  0.4828510000000 1.0
C      1  0.4638310000000  0.5788430000000  0.5306690000000 1.0
C      1  0.4399410000000  0.4311880000000  0.5351410000000 1.0
C      1  0.5856200000000  0.4794390000000  0.5352080000000 1.0
C      1  0.5377080000000  0.5782760000000  0.4644020000000 1.0
C      1  0.5651710000000  0.4298200000000  0.4680920000000 1.0
C      1  0.4066560000000  0.4835450000000  0.4703420000000 1.0
C      1  0.5758110000000  0.5509280000000  0.4661930000000 1.0
C      1  0.4182430000000  0.5283550000000  0.4715550000000 1.0
C      1  0.5108030000000  0.4132270000000  0.4685670000000 1.0
C      1  0.4254280000000  0.5492540000000  0.5334100000000 1.0
C      1  0.5866720000000  0.5412950000000  0.5327820000000 1.0
C      1  0.4885580000000  0.4119730000000  0.5299630000000 1.0
C      1  0.4744930000000  0.5264370000000  0.4094080000000 1.0
C      1  0.4994890000000  0.4748820000000  0.4085090000000 1.0
C      1  0.5317610000000  0.5125000000000  0.4114750000000 1.0
C      1  0.5281120000000  0.5218800000000  0.5894890000000 1.0
C      1  0.5074800000000  0.4736050000000  0.5948550000000 1.0
C      1  0.4790510000000  0.5151340000000  0.5920070000000 1.0
C      1  0.5395390000000  0.4639220000000  0.5207060000000 1.0
C      1  0.5105860000000  0.5650830000000  0.5170220000000 1.0
C      1  0.4373050000000  0.4763790000000  0.5167370000000 1.0
C      1  0.4513330000000  0.4656770000000  0.4800650000000 1.0
C      1  0.4914580000000  0.5648650000000  0.4819250000000 1.0
C      1  0.5616560000000  0.4828900000000  0.4776690000000 1.0
C      1  0.4414800000000  0.5289440000000  0.5433490000000 1.0
C      1  0.4819760000000  0.4431470000000  0.5324060000000 1.0
C      1  0.5578840000000  0.5266450000000  0.5404310000000 1.0
C      1  0.5600550000000  0.5308810000000  0.4545250000000 1.0
C      1  0.4982950000000  0.4363270000000  0.4584100000000 1.0
C      1  0.4463640000000  0.5205980000000  0.4583380000000 1.0
C      1  0.5278600000000  0.4919880000000  0.5872640000000 1.0
C      1  0.5022270000000  0.5299930000000  0.5998150000000 1.0
C      1  0.4809080000000  0.4872760000000  0.5935970000000 1.0
C      1  0.4809400000000  0.4950350000000  0.4116300000000 1.0
C      1  0.5067950000000  0.5252500000000  0.4157820000000 1.0
C      1  0.5274470000000  0.4845400000000  0.4107150000000 1.0
C      1  0.5374220000000  0.5973080000000  0.5172700000000 1.0
C      1  0.4043540000000  0.4731030000000  0.5244660000000 1.0
C      1  0.5630900000000  0.4233550000000  0.5273520000000 1.0
C      1  0.4728110000000  0.5979720000000  0.4700390000000 1.0
C      1  0.5949810000000  0.4773480000000  0.4815750000000 1.0
C      1  0.4324830000000  0.4160340000000  0.4748220000000 1.0
C      1  0.4531020000000  0.4875070000000  0.4540200000000 1.0
C      1  0.5517490000000  0.4714450000000  0.4472230000000 1.0
C      1  0.4950610000000  0.5595550000000  0.4496530000000 1.0
C      1  0.5397100000000  0.4736950000000  0.5523210000000 1.0
C      1  0.4584540000000  0.4660520000000  0.5415880000000 1.0
C      1  0.5032170000000  0.5537050000000  0.5488120000000 1.0
C      1  0.4954680000000  0.5225260000000  0.5549970000000 1.0
C      1  0.4840180000000  0.4740110000000  0.5625520000000 1.0
C      1  0.5210520000000  0.5001740000000  0.5567360000000 1.0
C      1  0.5010830000000  0.5299970000000  0.4465550000000 1.0
C      1  0.5209070000000  0.4741640000000  0.4422070000000 1.0
C      1  0.4803740000000  0.5033780000000  0.4413050000000 1.0
C      1  0.5107960000000  0.4473770000000  0.5176790000000 1.0
C      1  0.5317550000000  0.5390310000000  0.5225270000000 1.0
C      1  0.4475710000000  0.5066590000000  0.5209680000000 1.0
C      1  0.4801350000000  0.4497580000000  0.4801930000000 1.0
C      1  0.4697200000000  0.5400360000000  0.4736570000000 1.0
C      1  0.5486390000000  0.5113520000000  0.4755870000000 1.0
C      1  0.4133170000000  0.5499100000000  0.4891000000000 1.0
C      1  0.4940850000000  0.3989580000000  0.4860110000000 1.0
C      1  0.5925690000000  0.5417280000000  0.4867980000000 1.0
C      1  0.5885010000000  0.5575780000000  0.5099450000000 1.0
C      1  0.5058170000000  0.3992500000000  0.5121670000000 1.0
C      1  0.4054230000000  0.5387000000000  0.5151170000000 1.0
C      1  0.5706530000000  0.4957180000000  0.4391150000000 1.0
C      1  0.4653100000000  0.5627630000000  0.4411280000000 1.0
C      1  0.4663090000000  0.4579390000000  0.4435850000000 1.0
C      1  0.4448530000000  0.4924140000000  0.5582180000000 1.0
C      1  0.5327570000000  0.5586660000000  0.5572070000000 1.0
C      1  0.5269710000000  0.4464290000000  0.5593830000000 1.0
C      1  0.5654940000000  0.4771430000000  0.5084020000000 1.0
C      1  0.4844540000000  0.5823180000000  0.5102830000000 1.0
C      1  0.4478830000000  0.4411230000000  0.5033680000000 1.0
C      1  0.4208610000000  0.4661000000000  0.4887240000000 1.0
C      1  0.5190700000000  0.5792400000000  0.4869140000000 1.0
C      1  0.5494380000000  0.4432340000000  0.4955750000000 1.0
C      1  0.5476630000000  0.5679050000000  0.5309440000000 1.0
C      1  0.4179120000000  0.4960700000000  0.5455580000000 1.0
C      1  0.5316130000000  0.4280170000000  0.5359470000000 1.0
C      1  0.4534910000000  0.5698840000000  0.4716000000000 1.0
C      1  0.5912790000000  0.5006170000000  0.4578370000000 1.0
C      1  0.4587550000000  0.4316330000000  0.4609300000000 1.0
C      1  0.5048000000000  0.4507020000000  0.5752910000000 1.0
C      1  0.5440700000000  0.5347250000000  0.5701380000000 1.0
C      1  0.4632130000000  0.5200530000000  0.5657000000000 1.0
C      1  0.4965250000000  0.4533250000000  0.4314140000000 1.0
C      1  0.4570580000000  0.5370660000000  0.4305500000000 1.0
C      1  0.5554120000000  0.5192890000000  0.4267670000000 1.0
C      1  0.4055630000000  0.5060180000000  0.5154770000000 1.0
C      1  0.5382000000000  0.4056770000000  0.5122430000000 1.0
C      1  0.5647420000000  0.5798580000000  0.5053080000000 1.0
C      1  0.5913130000000  0.5098470000000  0.4908990000000 1.0
C      1  0.4639660000000  0.4090890000000  0.4857180000000 1.0
C      1  0.4324050000000  0.5706050000000  0.4924630000000 1.0
C      1  0.4153330000000  0.4421130000000  0.5193360000000 1.0
C      1  0.5794450000000  0.4488280000000  0.5210700000000 1.0
C      1  0.5084450000000  0.6063180000000  0.5132480000000 1.0
C      1  0.5838520000000  0.4479660000000  0.4886280000000 1.0
C      1  0.4123340000000  0.4334890000000  0.4874160000000 1.0
C      1  0.4977590000000  0.6050670000000  0.4809700000000 1.0
C      1  0.4772410000000  0.5196960000000  0.5284730000000 1.0
C      1  0.4908200000000  0.4891650000000  0.5332800000000 1.0
C      1  0.5187740000000  0.5077930000000  0.5260570000000 1.0
C      1  0.5189290000000  0.5200970000000  0.4691370000000 1.0
C      1  0.5084060000000  0.4889740000000  0.4658790000000 1.0
C      1  0.4812090000000  0.5080230000000  0.4733120000000 1.0
END
