TITL C-3289327-5623-551 -0.000623313380668238 125000 -740.106327618375 0 0 129 (C1) n - 1
REM
REM in /nfs/bkarasulu/CARBON/AIRSS/Generating-Clusters/AIREBO/with-SteepDescent/Higher-Symm/SD-CG/HFTN-CG
REM
REM
REM
REM
REM
REM ./C.cell (b20cbc046b6831c77cfcea5457e17084)
REM
REM compiler GCC version 9.2.1 20190827 (Red Hat 9.2.1-1)
REM options -cpp -mtune=generic -march=x86-64 -g -O0 -fpre-include=/usr/include/finclude/math-vector-fortran.h
REM seed -1728599250 907199353 -1264193166 -1033993176 530743869 408432379 -363176292 -1641085075 1049056979 -721601656 1514568465 1041104201 -2089129087 -1638641251 1869201294 645392524 1721319291 -1259494685 1084608935 1133020075 68672688 1978204269 -1971823328 -1414836850 -1551563697 -1105292193 106079975 -313797894 1198750588 2092302064 -1829231781 242826803 -124557058
REM
CELL 1.54180   50.00000   50.00000   50.00000   90.00000   90.00000   90.00000
LATT -1
SFAC C  
C      1  0.5138240000000  0.4107280000000  0.4931380000000 1.0
C      1  0.5128940000000  0.4659950000000  0.5815730000000 1.0
C      1  0.5136310000000  0.5675100000000  0.5574400000000 1.0
C      1  0.5134170000000  0.5745720000000  0.4526090000000 1.0
C      1  0.5130530000000  0.4769970000000  0.4143180000000 1.0
C      1  0.4859200000000  0.4104580000000  0.4931440000000 1.0
C      1  0.4850130000000  0.4660280000000  0.5812440000000 1.0
C      1  0.4857990000000  0.5677080000000  0.5574050000000 1.0
C      1  0.4852110000000  0.5746840000000  0.4527250000000 1.0
C      1  0.4850640000000  0.4770120000000  0.4145570000000 1.0
C      1  0.5259550000000  0.4079890000000  0.5190090000000 1.0
C      1  0.5246710000000  0.4893760000000  0.5932840000000 1.0
C      1  0.5252140000000  0.5858670000000  0.5385840000000 1.0
C      1  0.5261430000000  0.5603470000000  0.4311820000000 1.0
C      1  0.5239090000000  0.4505880000000  0.4174570000000 1.0
C      1  0.4738610000000  0.4073290000000  0.5189750000000 1.0
C      1  0.4729560000000  0.4895430000000  0.5924350000000 1.0
C      1  0.4746020000000  0.5864490000000  0.5387090000000 1.0
C      1  0.4721620000000  0.5603490000000  0.4315530000000 1.0
C      1  0.4742170000000  0.4506090000000  0.4179520000000 1.0
C      1  0.5658420000000  0.4671160000000  0.5276150000000 1.0
C      1  0.5661780000000  0.5181620000000  0.5438900000000 1.0
C      1  0.5656980000000  0.5514320000000  0.4983800000000 1.0
C      1  0.5634710000000  0.4992220000000  0.4748010000000 1.0
C      1  0.5622820000000  0.4661990000000  0.4749570000000 1.0
C      1  0.4325570000000  0.4653970000000  0.5278130000000 1.0
C      1  0.4327720000000  0.5184900000000  0.5418570000000 1.0
C      1  0.4331340000000  0.5516890000000  0.4986960000000 1.0
C      1  0.4356570000000  0.4993350000000  0.4755320000000 1.0
C      1  0.4375600000000  0.4663180000000  0.4761630000000 1.0
C      1  0.5616760000000  0.4450140000000  0.5085820000000 1.0
C      1  0.5617700000000  0.4926380000000  0.5576780000000 1.0
C      1  0.5617190000000  0.5537200000000  0.5272250000000 1.0
C      1  0.5597650000000  0.5301300000000  0.4654620000000 1.0
C      1  0.5633420000000  0.4629770000000  0.4431550000000 1.0
C      1  0.4377430000000  0.4435630000000  0.5087650000000 1.0
C      1  0.4359900000000  0.4930750000000  0.5558940000000 1.0
C      1  0.4379440000000  0.5549470000000  0.5273890000000 1.0
C      1  0.4392920000000  0.5301290000000  0.4660270000000 1.0
C      1  0.4349440000000  0.4631600000000  0.4440990000000 1.0
C      1  0.4058410000000  0.4839740000000  0.5189870000000 1.0
C      1  0.4073610000000  0.5236170000000  0.5214570000000 1.0
C      1  0.4016890000000  0.5402210000000  0.4923340000000 1.0
C      1  0.4066380000000  0.5078790000000  0.4600110000000 1.0
C      1  0.3890800000000  0.4751190000000  0.4837990000000 1.0
C      1  0.5911930000000  0.4872460000000  0.5189390000000 1.0
C      1  0.5934730000000  0.5200390000000  0.5241900000000 1.0
C      1  0.5964250000000  0.5404200000000  0.4899090000000 1.0
C      1  0.5922720000000  0.5077760000000  0.4588830000000 1.0
C      1  0.6100330000000  0.4758580000000  0.4855670000000 1.0
C      1  0.5481670000000  0.4425590000000  0.4058390000000 1.0
C      1  0.5530370000000  0.4006570000000  0.5200140000000 1.0
C      1  0.5511220000000  0.4876370000000  0.6024830000000 1.0
C      1  0.5511570000000  0.5949910000000  0.5442000000000 1.0
C      1  0.5541290000000  0.5611770000000  0.4285550000000 1.0
C      1  0.4497630000000  0.4426220000000  0.4066890000000 1.0
C      1  0.4469710000000  0.3993400000000  0.5198900000000 1.0
C      1  0.4462480000000  0.4881160000000  0.6009580000000 1.0
C      1  0.4488590000000  0.5960580000000  0.5443710000000 1.0
C      1  0.4441090000000  0.5611880000000  0.4293210000000 1.0
C      1  0.5894300000000  0.5704630000000  0.4830820000000 1.0
C      1  0.5711960000000  0.5054040000000  0.4362650000000 1.0
C      1  0.5925790000000  0.4579110000000  0.4813020000000 1.0
C      1  0.5955430000000  0.4679230000000  0.5442370000000 1.0
C      1  0.5947120000000  0.5346710000000  0.5525640000000 1.0
C      1  0.4090100000000  0.5700220000000  0.4832680000000 1.0
C      1  0.4272040000000  0.5054200000000  0.4370990000000 1.0
C      1  0.4066490000000  0.4573930000000  0.4791420000000 1.0
C      1  0.4027680000000  0.4652260000000  0.5443080000000 1.0
C      1  0.4063340000000  0.5385550000000  0.5495480000000 1.0
C      1  0.4297680000000  0.5767180000000  0.5409270000000 1.0
C      1  0.4293840000000  0.5444130000000  0.4452930000000 1.0
C      1  0.4284760000000  0.4501690000000  0.4221310000000 1.0
C      1  0.4290220000000  0.4183170000000  0.5115590000000 1.0
C      1  0.4276000000000  0.4876360000000  0.5808650000000 1.0
C      1  0.5700280000000  0.5753970000000  0.5408810000000 1.0
C      1  0.5689730000000  0.5444100000000  0.4443600000000 1.0
C      1  0.5695970000000  0.4499590000000  0.4211380000000 1.0
C      1  0.5707040000000  0.4199120000000  0.5116940000000 1.0
C      1  0.5699760000000  0.4868550000000  0.5826080000000 1.0
C      1  0.5165770000000  0.5231640000000  0.4755440000000 1.0
C      1  0.5169080000000  0.4836270000000  0.4696890000000 1.0
C      1  0.5166020000000  0.4659920000000  0.5054310000000 1.0
C      1  0.5166970000000  0.4945150000000  0.5332880000000 1.0
C      1  0.5171450000000  0.5298010000000  0.5148690000000 1.0
C      1  0.4822220000000  0.5231100000000  0.4755510000000 1.0
C      1  0.4819180000000  0.4835500000000  0.4697100000000 1.0
C      1  0.4825540000000  0.4659600000000  0.5054700000000 1.0
C      1  0.4819600000000  0.4944600000000  0.5333240000000 1.0
C      1  0.4819600000000  0.5297490000000  0.5148400000000 1.0
C      1  0.4850100000000  0.5371600000000  0.4210980000000 1.0
C      1  0.4853420000000  0.4352380000000  0.4394750000000 1.0
C      1  0.4855980000000  0.4219670000000  0.5405500000000 1.0
C      1  0.4849560000000  0.5146060000000  0.5857300000000 1.0
C      1  0.4857490000000  0.5862030000000  0.5123340000000 1.0
C      1  0.5132070000000  0.5371630000000  0.4208920000000 1.0
C      1  0.5132390000000  0.4352720000000  0.4392340000000 1.0
C      1  0.5137730000000  0.4221990000000  0.5406490000000 1.0
C      1  0.5131160000000  0.5144990000000  0.5860750000000 1.0
C      1  0.5138800000000  0.5858780000000  0.5122590000000 1.0
C      1  0.4750290000000  0.5054120000000  0.4263540000000 1.0
C      1  0.4758140000000  0.4306200000000  0.4706260000000 1.0
C      1  0.4748690000000  0.4503270000000  0.5551380000000 1.0
C      1  0.4760560000000  0.5379360000000  0.5638500000000 1.0
C      1  0.4767430000000  0.5728940000000  0.4832720000000 1.0
C      1  0.5233790000000  0.5052740000000  0.4261410000000 1.0
C      1  0.5234760000000  0.4308370000000  0.4703370000000 1.0
C      1  0.5237390000000  0.4505730000000  0.5554950000000 1.0
C      1  0.5228940000000  0.5377210000000  0.5641880000000 1.0
C      1  0.5222010000000  0.5725510000000  0.4830650000000 1.0
C      1  0.5388240000000  0.4759380000000  0.5430310000000 1.0
C      1  0.5387260000000  0.5335310000000  0.5367810000000 1.0
C      1  0.5378970000000  0.5452250000000  0.4828050000000 1.0
C      1  0.5432550000000  0.4899480000000  0.4490790000000 1.0
C      1  0.5376530000000  0.4519440000000  0.4892500000000 1.0
C      1  0.4594540000000  0.4756980000000  0.5426730000000 1.0
C      1  0.4606060000000  0.5339020000000  0.5364420000000 1.0
C      1  0.4610720000000  0.5454670000000  0.4830980000000 1.0
C      1  0.4553590000000  0.4900250000000  0.4494270000000 1.0
C      1  0.4617260000000  0.4514380000000  0.4897540000000 1.0
C      1  0.4993770000000  0.5517840000000  0.4973560000000 1.0
C      1  0.4994230000000  0.4585940000000  0.5331140000000 1.0
C      1  0.4994980000000  0.5184230000000  0.5488030000000 1.0
C      1  0.4993290000000  0.5126740000000  0.4490140000000 1.0
C      1  0.4995400000000  0.4549830000000  0.4710850000000 1.0
C      1  0.4795860000000  0.4993550000000  0.4997450000000 1.0
C      1  0.5193160000000  0.4994120000000  0.4997290000000 1.0
C      1  0.4004480000000  0.5057010000000  0.4933850000000 1.0
C      1  0.5984830000000  0.5071220000000  0.4923170000000 1.0
END
