TITL C-3289330-4660-159 -0.00327826254742088 125000 -811.269973889798 0 0 151 (C1) n - 1
REM
REM in /nfs/bkarasulu/CARBON/AIRSS/Generating-Clusters/AIREBO/with-SteepDescent/Higher-Symm/SD-CG/HFTN-CG
REM
REM
REM
REM
REM
REM ./C.cell (b20cbc046b6831c77cfcea5457e17084)
REM
REM compiler GCC version 9.2.1 20190827 (Red Hat 9.2.1-1)
REM options -cpp -mtune=generic -march=x86-64 -g -O0 -fpre-include=/usr/include/finclude/math-vector-fortran.h
REM seed -616289900 516565885 2053368186 -1987357499 -505899013 -349918812 -1140789432 1533066522 1874023934 1547376788 725168098 602348679 -1510176201 544097408 1681107028 -1596218940 1539129736 -129049206 -1232185870 1976628137 1707256184 -1322700768 -1378871691 200335039 493100300 -2086578768 -1775492483 -1555687776 -741646838 -1409126835 -1420569113 2085528305 778486651
REM
CELL 1.54180   50.00000   50.00000   50.00000   90.00000   90.00000   90.00000
LATT -1
SFAC C  
C      1  0.6108120000000  0.4592330000000  0.5746260000000 1.0
C      1  0.3978410000000  0.5616720000000  0.5667610000000 1.0
C      1  0.4734650000000  0.4727680000000  0.4716340000000 1.0
C      1  0.5366230000000  0.5188420000000  0.4605330000000 1.0
C      1  0.5447850000000  0.4721350000000  0.5077430000000 1.0
C      1  0.4699250000000  0.5377840000000  0.5173950000000 1.0
C      1  0.5712760000000  0.5583310000000  0.4650510000000 1.0
C      1  0.4262350000000  0.4306000000000  0.4690540000000 1.0
C      1  0.4061520000000  0.4950450000000  0.5401780000000 1.0
C      1  0.5996980000000  0.5246310000000  0.5446890000000 1.0
C      1  0.4986990000000  0.5923320000000  0.5209000000000 1.0
C      1  0.4638370000000  0.4154780000000  0.5224520000000 1.0
C      1  0.5059310000000  0.5706890000000  0.4605800000000 1.0
C      1  0.4898870000000  0.4216510000000  0.4654380000000 1.0
C      1  0.4843750000000  0.4863170000000  0.5075270000000 1.0
C      1  0.5169120000000  0.5106120000000  0.5139950000000 1.0
C      1  0.4787540000000  0.4502720000000  0.4917310000000 1.0
C      1  0.5244260000000  0.5420300000000  0.4813390000000 1.0
C      1  0.6007270000000  0.5315160000000  0.4935740000000 1.0
C      1  0.3956990000000  0.4757300000000  0.4857720000000 1.0
C      1  0.4161100000000  0.5271860000000  0.4185600000000 1.0
C      1  0.5524640000000  0.4716620000000  0.4248290000000 1.0
C      1  0.4961400000000  0.5887160000000  0.4121660000000 1.0
C      1  0.5138380000000  0.4302550000000  0.4146030000000 1.0
C      1  0.4110270000000  0.4661090000000  0.5328950000000 1.0
C      1  0.5860330000000  0.5501500000000  0.5365850000000 1.0
C      1  0.4085270000000  0.5411870000000  0.5541540000000 1.0
C      1  0.5963370000000  0.4754740000000  0.5591000000000 1.0
C      1  0.4951590000000  0.4564340000000  0.5196650000000 1.0
C      1  0.5021670000000  0.5392350000000  0.5138960000000 1.0
C      1  0.5555450000000  0.5439550000000  0.5238240000000 1.0
C      1  0.4427440000000  0.4616670000000  0.5214160000000 1.0
C      1  0.5411490000000  0.5384440000000  0.4331200000000 1.0
C      1  0.4627430000000  0.4588960000000  0.4447280000000 1.0
C      1  0.4697760000000  0.5538110000000  0.5474120000000 1.0
C      1  0.5399920000000  0.4448650000000  0.5359360000000 1.0
C      1  0.5639090000000  0.5590040000000  0.5804250000000 1.0
C      1  0.4308080000000  0.4456600000000  0.5710950000000 1.0
C      1  0.4589320000000  0.5587570000000  0.4929950000000 1.0
C      1  0.5563890000000  0.4410540000000  0.5070150000000 1.0
C      1  0.5263680000000  0.4468420000000  0.5652620000000 1.0
C      1  0.4953610000000  0.5428700000000  0.5656640000000 1.0
C      1  0.5632550000000  0.5551050000000  0.6068630000000 1.0
C      1  0.4370380000000  0.4312070000000  0.5932590000000 1.0
C      1  0.5695980000000  0.5336220000000  0.4243210000000 1.0
C      1  0.4385040000000  0.4623380000000  0.4335640000000 1.0
C      1  0.5627860000000  0.5060970000000  0.4417070000000 1.0
C      1  0.4344410000000  0.4881220000000  0.4252810000000 1.0
C      1  0.5309310000000  0.3819800000000  0.4607540000000 1.0
C      1  0.4652500000000  0.5852850000000  0.4835630000000 1.0
C      1  0.5900910000000  0.4999290000000  0.4951320000000 1.0
C      1  0.3947790000000  0.5037220000000  0.4901720000000 1.0
C      1  0.5564380000000  0.5070860000000  0.5937470000000 1.0
C      1  0.4632760000000  0.5042170000000  0.5972590000000 1.0
C      1  0.4925090000000  0.5399290000000  0.4821870000000 1.0
C      1  0.5125330000000  0.4541660000000  0.4924180000000 1.0
C      1  0.5321470000000  0.4575540000000  0.4569630000000 1.0
C      1  0.4720470000000  0.5202140000000  0.4441890000000 1.0
C      1  0.4154920000000  0.4785510000000  0.4618470000000 1.0
C      1  0.5910100000000  0.5240670000000  0.4635390000000 1.0
C      1  0.5219240000000  0.4171150000000  0.5388780000000 1.0
C      1  0.4601320000000  0.5797510000000  0.5519600000000 1.0
C      1  0.4212120000000  0.5125080000000  0.5601390000000 1.0
C      1  0.5836910000000  0.5034740000000  0.5574730000000 1.0
C      1  0.4865510000000  0.5164590000000  0.3953690000000 1.0
C      1  0.5096900000000  0.4951360000000  0.3911590000000 1.0
C      1  0.4023760000000  0.4564700000000  0.5046110000000 1.0
C      1  0.5905330000000  0.5540460000000  0.5067010000000 1.0
C      1  0.5363090000000  0.4365320000000  0.4835730000000 1.0
C      1  0.4720930000000  0.5501570000000  0.4604460000000 1.0
C      1  0.5548830000000  0.4785920000000  0.4580360000000 1.0
C      1  0.4452910000000  0.5215100000000  0.4652350000000 1.0
C      1  0.5532920000000  0.4789220000000  0.6022200000000 1.0
C      1  0.4686970000000  0.5289430000000  0.5809280000000 1.0
C      1  0.3933920000000  0.5118730000000  0.5165900000000 1.0
C      1  0.6048010000000  0.5040510000000  0.5236180000000 1.0
C      1  0.5292790000000  0.4771900000000  0.5375220000000 1.0
C      1  0.4693330000000  0.5094400000000  0.5361720000000 1.0
C      1  0.5349610000000  0.5831960000000  0.5671680000000 1.0
C      1  0.4809100000000  0.4161110000000  0.5677540000000 1.0
C      1  0.5504290000000  0.5139540000000  0.5086590000000 1.0
C      1  0.4513320000000  0.4888660000000  0.5065720000000 1.0
C      1  0.5717120000000  0.5684180000000  0.4921970000000 1.0
C      1  0.4164770000000  0.4340480000000  0.4962050000000 1.0
C      1  0.5251870000000  0.4984650000000  0.5818730000000 1.0
C      1  0.4742710000000  0.4778270000000  0.5838270000000 1.0
C      1  0.5876370000000  0.5490400000000  0.4412110000000 1.0
C      1  0.4175540000000  0.4490320000000  0.4497680000000 1.0
C      1  0.5095820000000  0.5435870000000  0.4445370000000 1.0
C      1  0.4942690000000  0.4496540000000  0.4468460000000 1.0
C      1  0.4501490000000  0.4355240000000  0.5007250000000 1.0
C      1  0.5398360000000  0.5643540000000  0.5016040000000 1.0
C      1  0.4426830000000  0.4823170000000  0.5815810000000 1.0
C      1  0.5461260000000  0.5156740000000  0.5625050000000 1.0
C      1  0.4380380000000  0.5148600000000  0.5240070000000 1.0
C      1  0.5573950000000  0.4963300000000  0.5369130000000 1.0
C      1  0.5912790000000  0.4936670000000  0.4556540000000 1.0
C      1  0.4100110000000  0.5033270000000  0.4391200000000 1.0
C      1  0.5183010000000  0.5596700000000  0.5529830000000 1.0
C      1  0.4976740000000  0.4428940000000  0.5588710000000 1.0
C      1  0.5286140000000  0.3908450000000  0.4913660000000 1.0
C      1  0.4745560000000  0.6025250000000  0.5028940000000 1.0
C      1  0.5840310000000  0.4774060000000  0.5274620000000 1.0
C      1  0.4151500000000  0.5309610000000  0.5254080000000 1.0
C      1  0.4778800000000  0.5833170000000  0.4556430000000 1.0
C      1  0.5204800000000  0.4140650000000  0.4650270000000 1.0
C      1  0.4722770000000  0.4724540000000  0.4084000000000 1.0
C      1  0.5082680000000  0.5385790000000  0.4052670000000 1.0
C      1  0.5035770000000  0.5119110000000  0.5649200000000 1.0
C      1  0.4838830000000  0.4691460000000  0.5558180000000 1.0
C      1  0.4443850000000  0.5866830000000  0.5726690000000 1.0
C      1  0.5240520000000  0.4048400000000  0.5667870000000 1.0
C      1  0.5163530000000  0.5665970000000  0.4204320000000 1.0
C      1  0.4833440000000  0.4414340000000  0.4157130000000 1.0
C      1  0.4500730000000  0.5161970000000  0.5616990000000 1.0
C      1  0.5326080000000  0.4653050000000  0.5847800000000 1.0
C      1  0.5399180000000  0.5784330000000  0.4419690000000 1.0
C      1  0.4694940000000  0.4200010000000  0.4383360000000 1.0
C      1  0.5599920000000  0.4898940000000  0.4865940000000 1.0
C      1  0.4603560000000  0.5180110000000  0.4914330000000 1.0
C      1  0.5832330000000  0.5703920000000  0.5577080000000 1.0
C      1  0.4072930000000  0.4472390000000  0.5569620000000 1.0
C      1  0.4891940000000  0.5078070000000  0.4827820000000 1.0
C      1  0.5206160000000  0.4856650000000  0.4909630000000 1.0
C      1  0.5467520000000  0.5452930000000  0.5566790000000 1.0
C      1  0.4513230000000  0.4637400000000  0.5543320000000 1.0
C      1  0.4116160000000  0.5174660000000  0.4700030000000 1.0
C      1  0.5943740000000  0.4717320000000  0.4776410000000 1.0
C      1  0.4371580000000  0.5221540000000  0.4017770000000 1.0
C      1  0.5329520000000  0.4829180000000  0.4101650000000 1.0
C      1  0.4777920000000  0.5958770000000  0.4281100000000 1.0
C      1  0.5283590000000  0.4307800000000  0.4379140000000 1.0
C      1  0.5055300000000  0.4782540000000  0.4613980000000 1.0
C      1  0.5038000000000  0.5109660000000  0.4522280000000 1.0
C      1  0.5296770000000  0.3965310000000  0.5168180000000 1.0
C      1  0.4705990000000  0.5988000000000  0.5345510000000 1.0
C      1  0.4561630000000  0.4221380000000  0.4698430000000 1.0
C      1  0.5323470000000  0.5802880000000  0.4725000000000 1.0
C      1  0.5620440000000  0.5292810000000  0.4805810000000 1.0
C      1  0.4426780000000  0.4827510000000  0.4746750000000 1.0
C      1  0.5615040000000  0.5916060000000  0.5621930000000 1.0
C      1  0.4649400000000  0.4037300000000  0.5487550000000 1.0
C      1  0.5823860000000  0.4595800000000  0.5035710000000 1.0
C      1  0.4231800000000  0.5465890000000  0.4593380000000 1.0
C      1  0.5725760000000  0.4564600000000  0.4136370000000 1.0
C      1  0.4155440000000  0.5513990000000  0.4335030000000 1.0
C      1  0.4924240000000  0.4267050000000  0.5310010000000 1.0
C      1  0.5138290000000  0.5671920000000  0.5233240000000 1.0
C      1  0.4626810000000  0.5043240000000  0.4154510000000 1.0
C      1  0.5160730000000  0.5097480000000  0.4209870000000 1.0
C      1  0.4992460000000  0.4932310000000  0.5373180000000 1.0
END
