TITL C-3289333-7213-451 0.000753406988530931 125000 -1029.66129301701 0 0 180 (C1) n - 1
REM
REM in /nfs/bkarasulu/CARBON/AIRSS/Generating-Clusters/AIREBO/with-SteepDescent/Higher-Symm/SD-CG/HFTN-CG
REM
REM
REM
REM
REM
REM ./C.cell (b20cbc046b6831c77cfcea5457e17084)
REM
REM compiler GCC version 9.2.1 20190827 (Red Hat 9.2.1-1)
REM options -cpp -mtune=generic -march=x86-64 -g -O0 -fpre-include=/usr/include/finclude/math-vector-fortran.h
REM seed 397480588 495197838 1610806055 27289843 -179285317 -1224853719 -1393520238 1952593639 -808110062 -1470532374 1390660841 551943500 -252368658 -82557179 -2075320996 952500878 -1632365960 -1086054628 1616081916 890316504 975901757 -1338721495 -1908834795 650744998 -64339686 1438838665 -1361318291 -82579589 -1849567128 -1488774089 -687253227 -655450486 -1167195943
REM
CELL 1.54180   50.00000   50.00000   50.00000   90.00000   90.00000   90.00000
LATT -1
SFAC C  
C      1  0.4746350000000  0.5738380000000  0.4056670000000 1.0
C      1  0.4759350000000  0.6159710000000  0.4662210000000 1.0
C      1  0.4830520000000  0.6114340000000  0.5562920000000 1.0
C      1  0.4837130000000  0.5511420000000  0.6095500000000 1.0
C      1  0.4784220000000  0.4759600000000  0.6144730000000 1.0
C      1  0.4761940000000  0.4084080000000  0.5689870000000 1.0
C      1  0.4765160000000  0.3754730000000  0.4978270000000 1.0
C      1  0.4799590000000  0.4106900000000  0.4162490000000 1.0
C      1  0.4789320000000  0.4914360000000  0.3786870000000 1.0
C      1  0.4224950000000  0.5066200000000  0.4429290000000 1.0
C      1  0.4163130000000  0.5378050000000  0.4535020000000 1.0
C      1  0.4181060000000  0.5444440000000  0.5209020000000 1.0
C      1  0.4116010000000  0.5291310000000  0.5431520000000 1.0
C      1  0.4200330000000  0.4970090000000  0.5450850000000 1.0
C      1  0.4089030000000  0.4700670000000  0.5310980000000 1.0
C      1  0.4258640000000  0.4637070000000  0.5046830000000 1.0
C      1  0.4173210000000  0.4563740000000  0.4775490000000 1.0
C      1  0.4157980000000  0.4745320000000  0.4519600000000 1.0
C      1  0.4335180000000  0.5542400000000  0.5794490000000 1.0
C      1  0.4311910000000  0.4990700000000  0.5833670000000 1.0
C      1  0.4329720000000  0.4462350000000  0.5581180000000 1.0
C      1  0.4288190000000  0.4163950000000  0.5014080000000 1.0
C      1  0.4320730000000  0.4270620000000  0.4403350000000 1.0
C      1  0.4379140000000  0.4757820000000  0.4068640000000 1.0
C      1  0.4418530000000  0.5234240000000  0.3977330000000 1.0
C      1  0.4250200000000  0.5808700000000  0.4769020000000 1.0
C      1  0.4317240000000  0.5848490000000  0.5360880000000 1.0
C      1  0.5226710000000  0.5661310000000  0.5439810000000 1.0
C      1  0.5240100000000  0.5214220000000  0.5738850000000 1.0
C      1  0.5227880000000  0.4702950000000  0.5733780000000 1.0
C      1  0.5220640000000  0.4271200000000  0.5315230000000 1.0
C      1  0.5232400000000  0.4212670000000  0.4820980000000 1.0
C      1  0.5247860000000  0.4526210000000  0.4397700000000 1.0
C      1  0.5260150000000  0.5003360000000  0.4261450000000 1.0
C      1  0.5211320000000  0.5527470000000  0.4410770000000 1.0
C      1  0.5200090000000  0.5769310000000  0.4916120000000 1.0
C      1  0.4670200000000  0.5898520000000  0.5083310000000 1.0
C      1  0.4847710000000  0.5624870000000  0.5690320000000 1.0
C      1  0.4783550000000  0.5054350000000  0.5874990000000 1.0
C      1  0.4846050000000  0.4470350000000  0.5745960000000 1.0
C      1  0.4742220000000  0.4086550000000  0.5196280000000 1.0
C      1  0.4691500000000  0.4074930000000  0.4625500000000 1.0
C      1  0.4821300000000  0.4604610000000  0.4148050000000 1.0
C      1  0.4851980000000  0.5227260000000  0.4027650000000 1.0
C      1  0.4748040000000  0.5692760000000  0.4565910000000 1.0
C      1  0.4599230000000  0.4603510000000  0.4847740000000 1.0
C      1  0.4478010000000  0.4748860000000  0.4594730000000 1.0
C      1  0.4557600000000  0.5037540000000  0.4499450000000 1.0
C      1  0.4426310000000  0.5289390000000  0.4690810000000 1.0
C      1  0.4415150000000  0.5404840000000  0.4965600000000 1.0
C      1  0.4574640000000  0.5409630000000  0.5264690000000 1.0
C      1  0.4479540000000  0.5136820000000  0.5387210000000 1.0
C      1  0.4658280000000  0.4862900000000  0.5361950000000 1.0
C      1  0.4573750000000  0.4675920000000  0.5146910000000 1.0
C      1  0.5551770000000  0.4443560000000  0.4344180000000 1.0
C      1  0.5573410000000  0.4951130000000  0.4180010000000 1.0
C      1  0.5531070000000  0.5590250000000  0.4402090000000 1.0
C      1  0.5532620000000  0.5810270000000  0.4884600000000 1.0
C      1  0.5540560000000  0.5638570000000  0.5423360000000 1.0
C      1  0.5551010000000  0.5249240000000  0.5787490000000 1.0
C      1  0.5532700000000  0.4696030000000  0.5828050000000 1.0
C      1  0.5566040000000  0.4242340000000  0.5301350000000 1.0
C      1  0.5550130000000  0.4171690000000  0.4826440000000 1.0
C      1  0.5286220000000  0.4154030000000  0.5741900000000 1.0
C      1  0.5296640000000  0.3815180000000  0.4898690000000 1.0
C      1  0.5341690000000  0.4133480000000  0.4182910000000 1.0
C      1  0.5328790000000  0.4894320000000  0.3883210000000 1.0
C      1  0.5294080000000  0.5745080000000  0.4070100000000 1.0
C      1  0.5287350000000  0.6122580000000  0.4751160000000 1.0
C      1  0.5362620000000  0.6031160000000  0.5500350000000 1.0
C      1  0.5361090000000  0.5490650000000  0.6062020000000 1.0
C      1  0.5295500000000  0.4774690000000  0.6170010000000 1.0
C      1  0.5978820000000  0.5288230000000  0.5379830000000 1.0
C      1  0.5885810000000  0.4966070000000  0.5444320000000 1.0
C      1  0.5966230000000  0.4638840000000  0.5392640000000 1.0
C      1  0.5956640000000  0.4562690000000  0.5060400000000 1.0
C      1  0.5987410000000  0.4547280000000  0.4733300000000 1.0
C      1  0.5885890000000  0.4842510000000  0.4612050000000 1.0
C      1  0.5882480000000  0.5173040000000  0.4563880000000 1.0
C      1  0.5968240000000  0.5365970000000  0.4808530000000 1.0
C      1  0.5874650000000  0.5460190000000  0.5108240000000 1.0
C      1  0.4775900000000  0.4315330000000  0.4810410000000 1.0
C      1  0.4696190000000  0.4604520000000  0.4431990000000 1.0
C      1  0.4804660000000  0.5020350000000  0.4269530000000 1.0
C      1  0.4679000000000  0.5409900000000  0.4563860000000 1.0
C      1  0.4675830000000  0.5605200000000  0.5004470000000 1.0
C      1  0.4771300000000  0.5659230000000  0.5386550000000 1.0
C      1  0.4743880000000  0.5126370000000  0.5568230000000 1.0
C      1  0.4848560000000  0.4747890000000  0.5616350000000 1.0
C      1  0.4686110000000  0.4388990000000  0.5248780000000 1.0
C      1  0.4898220000000  0.5244930000000  0.4480540000000 1.0
C      1  0.4924420000000  0.5490420000000  0.4867680000000 1.0
C      1  0.4962530000000  0.5378470000000  0.5179260000000 1.0
C      1  0.4977400000000  0.5241630000000  0.5441360000000 1.0
C      1  0.5180310000000  0.5035800000000  0.5370180000000 1.0
C      1  0.5072300000000  0.4771820000000  0.5376550000000 1.0
C      1  0.4956550000000  0.4564690000000  0.5170460000000 1.0
C      1  0.4927580000000  0.4539800000000  0.4635250000000 1.0
C      1  0.4919320000000  0.4881420000000  0.4642010000000 1.0
C      1  0.5414010000000  0.3843990000000  0.4646010000000 1.0
C      1  0.5421350000000  0.4319430000000  0.3990300000000 1.0
C      1  0.5452990000000  0.5196740000000  0.3977960000000 1.0
C      1  0.5409390000000  0.5938030000000  0.4248710000000 1.0
C      1  0.5375570000000  0.6152560000000  0.5009900000000 1.0
C      1  0.5477850000000  0.5903850000000  0.5715050000000 1.0
C      1  0.5471220000000  0.5267310000000  0.6176660000000 1.0
C      1  0.5378030000000  0.4504450000000  0.6141670000000 1.0
C      1  0.5387110000000  0.4012250000000  0.5449630000000 1.0
C      1  0.5432100000000  0.4008510000000  0.5100980000000 1.0
C      1  0.5486660000000  0.4140030000000  0.4492670000000 1.0
C      1  0.5460940000000  0.4643920000000  0.4084040000000 1.0
C      1  0.5437340000000  0.5464390000000  0.4100090000000 1.0
C      1  0.5418390000000  0.5867060000000  0.4569060000000 1.0
C      1  0.5447360000000  0.5883870000000  0.5206350000000 1.0
C      1  0.5461040000000  0.5575900000000  0.5748670000000 1.0
C      1  0.5474280000000  0.4989270000000  0.5993420000000 1.0
C      1  0.5414310000000  0.4378900000000  0.5865630000000 1.0
C      1  0.5789980000000  0.5655530000000  0.4848580000000 1.0
C      1  0.5836390000000  0.5598920000000  0.5398980000000 1.0
C      1  0.5815500000000  0.5209610000000  0.5663780000000 1.0
C      1  0.5785850000000  0.4728850000000  0.5666470000000 1.0
C      1  0.5819590000000  0.4358700000000  0.5283050000000 1.0
C      1  0.5808240000000  0.4307370000000  0.4887200000000 1.0
C      1  0.5803660000000  0.4554900000000  0.4453500000000 1.0
C      1  0.5827550000000  0.4980580000000  0.4310050000000 1.0
C      1  0.5773850000000  0.5495450000000  0.4551550000000 1.0
C      1  0.4741480000000  0.5925920000000  0.5778850000000 1.0
C      1  0.4799390000000  0.5245130000000  0.6117000000000 1.0
C      1  0.4817380000000  0.4490130000000  0.6048760000000 1.0
C      1  0.4753360000000  0.3922710000000  0.5454510000000 1.0
C      1  0.4691240000000  0.3806530000000  0.4696810000000 1.0
C      1  0.4800460000000  0.4336420000000  0.3999350000000 1.0
C      1  0.4658390000000  0.5187910000000  0.3751080000000 1.0
C      1  0.4643070000000  0.5830420000000  0.4294040000000 1.0
C      1  0.4645450000000  0.6110720000000  0.4926210000000 1.0
C      1  0.4511560000000  0.3980360000000  0.5005170000000 1.0
C      1  0.4584690000000  0.4122070000000  0.4367320000000 1.0
C      1  0.4645550000000  0.4754980000000  0.3963980000000 1.0
C      1  0.4648910000000  0.5482540000000  0.3979580000000 1.0
C      1  0.4514300000000  0.5933630000000  0.4593330000000 1.0
C      1  0.4617820000000  0.5939360000000  0.5386480000000 1.0
C      1  0.4607850000000  0.5642080000000  0.5911280000000 1.0
C      1  0.4544060000000  0.4885820000000  0.5983810000000 1.0
C      1  0.4583320000000  0.4337110000000  0.5631590000000 1.0
C      1  0.5066820000000  0.4973240000000  0.5747470000000 1.0
C      1  0.5114060000000  0.4468700000000  0.5524950000000 1.0
C      1  0.5004550000000  0.4248870000000  0.5053320000000 1.0
C      1  0.5137730000000  0.4313100000000  0.4578890000000 1.0
C      1  0.5038670000000  0.4783510000000  0.4338910000000 1.0
C      1  0.5110750000000  0.5272860000000  0.4226750000000 1.0
C      1  0.5052060000000  0.5679590000000  0.4623330000000 1.0
C      1  0.5043000000000  0.5699440000000  0.5185530000000 1.0
C      1  0.5090460000000  0.5464930000000  0.5620820000000 1.0
C      1  0.5176990000000  0.5182820000000  0.4608420000000 1.0
C      1  0.5231680000000  0.5369120000000  0.4791680000000 1.0
C      1  0.5251230000000  0.5340670000000  0.5066090000000 1.0
C      1  0.5372240000000  0.5142720000000  0.5204940000000 1.0
C      1  0.5571010000000  0.4966740000000  0.5147700000000 1.0
C      1  0.5473950000000  0.4715410000000  0.5134480000000 1.0
C      1  0.5233960000000  0.4629860000000  0.5039540000000 1.0
C      1  0.5212860000000  0.4652010000000  0.4775760000000 1.0
C      1  0.5257980000000  0.4911190000000  0.4647880000000 1.0
C      1  0.5031780000000  0.4843240000000  0.6267300000000 1.0
C      1  0.5017590000000  0.4071550000000  0.5824540000000 1.0
C      1  0.5047770000000  0.3703180000000  0.4991350000000 1.0
C      1  0.5075190000000  0.4006050000000  0.4170710000000 1.0
C      1  0.5071790000000  0.4881150000000  0.3757100000000 1.0
C      1  0.5020180000000  0.5790360000000  0.3987180000000 1.0
C      1  0.5033680000000  0.6222190000000  0.4654630000000 1.0
C      1  0.5107240000000  0.6164950000000  0.5527540000000 1.0
C      1  0.5104710000000  0.5593810000000  0.6145340000000 1.0
C      1  0.4213620000000  0.4279900000000  0.4720870000000 1.0
C      1  0.4298540000000  0.4559640000000  0.4283650000000 1.0
C      1  0.4296830000000  0.5030990000000  0.4120910000000 1.0
C      1  0.4090190000000  0.5628500000000  0.4606370000000 1.0
C      1  0.4237540000000  0.5746470000000  0.5071750000000 1.0
C      1  0.4225720000000  0.5739880000000  0.5610380000000 1.0
C      1  0.4251790000000  0.5268580000000  0.5722730000000 1.0
C      1  0.4237930000000  0.4718860000000  0.5676880000000 1.0
C      1  0.4218540000000  0.4383900000000  0.5268100000000 1.0
END
