TITL C-3289326-3776-142 0.00147010528571659 125000 -834.342913593384 0 0 157 (C1) n - 1
REM
REM in /nfs/bkarasulu/CARBON/AIRSS/Generating-Clusters/AIREBO/with-SteepDescent/Higher-Symm/SD-CG/HFTN-CG
REM
REM
REM
REM
REM
REM ./C.cell (b20cbc046b6831c77cfcea5457e17084)
REM
REM compiler GCC version 9.2.1 20190827 (Red Hat 9.2.1-1)
REM options -cpp -mtune=generic -march=x86-64 -g -O0 -fpre-include=/usr/include/finclude/math-vector-fortran.h
REM seed 1868238607 -231204798 1048255612 644633379 -460931598 -1821885056 94582667 -60009273 1959684947 -1636232681 1291462946 716272259 -1887675329 -1563099677 -1765617137 -2047669701 328762312 2024329429 1909680871 2074492617 -2027429947 -1472045072 1143626076 735049620 1317358330 803766913 -703229061 1208632972 404269952 1874644529 -1072721986 -613435869 -713329296
REM
CELL 1.54180   50.00000   50.00000   50.00000   90.00000   90.00000   90.00000
LATT -1
SFAC C  
C      1  0.6064520000000  0.5143470000000  0.5267150000000 1.0
C      1  0.4902120000000  0.4261760000000  0.4276040000000 1.0
C      1  0.4322390000000  0.5101430000000  0.4465400000000 1.0
C      1  0.4767680000000  0.4573210000000  0.4301350000000 1.0
C      1  0.4367170000000  0.4294960000000  0.4666390000000 1.0
C      1  0.4738710000000  0.4074340000000  0.4465550000000 1.0
C      1  0.4700610000000  0.5340870000000  0.4052290000000 1.0
C      1  0.5554750000000  0.5153610000000  0.4142570000000 1.0
C      1  0.4781900000000  0.5260180000000  0.5945210000000 1.0
C      1  0.5698360000000  0.5390220000000  0.5140190000000 1.0
C      1  0.5743280000000  0.4625320000000  0.4524460000000 1.0
C      1  0.5831460000000  0.5081580000000  0.4226410000000 1.0
C      1  0.5447630000000  0.6003170000000  0.4971560000000 1.0
C      1  0.5260800000000  0.4146320000000  0.5385580000000 1.0
C      1  0.3964870000000  0.4706210000000  0.4560490000000 1.0
C      1  0.4371710000000  0.5041560000000  0.5143840000000 1.0
C      1  0.5305560000000  0.4495310000000  0.4239550000000 1.0
C      1  0.4976870000000  0.5418130000000  0.5385340000000 1.0
C      1  0.4481080000000  0.5678370000000  0.5231680000000 1.0
C      1  0.5056740000000  0.4588240000000  0.4122570000000 1.0
C      1  0.3973330000000  0.4679420000000  0.4862290000000 1.0
C      1  0.4386120000000  0.4444270000000  0.5413920000000 1.0
C      1  0.5962830000000  0.5536730000000  0.5401880000000 1.0
C      1  0.4268760000000  0.4893810000000  0.5597740000000 1.0
C      1  0.5386320000000  0.4871980000000  0.4137140000000 1.0
C      1  0.5843070000000  0.5698330000000  0.5138500000000 1.0
C      1  0.5285880000000  0.5141320000000  0.3934820000000 1.0
C      1  0.4628090000000  0.4622680000000  0.4888590000000 1.0
C      1  0.5884230000000  0.4705490000000  0.5460350000000 1.0
C      1  0.5518280000000  0.4010150000000  0.5378550000000 1.0
C      1  0.4865650000000  0.5297850000000  0.4413630000000 1.0
C      1  0.5720450000000  0.4646120000000  0.5100440000000 1.0
C      1  0.4606270000000  0.4674310000000  0.5282390000000 1.0
C      1  0.5706400000000  0.5467240000000  0.5717470000000 1.0
C      1  0.5563800000000  0.5885860000000  0.5210670000000 1.0
C      1  0.5973880000000  0.4854400000000  0.5189920000000 1.0
C      1  0.5674850000000  0.4926110000000  0.4448000000000 1.0
C      1  0.5026190000000  0.5713740000000  0.5002720000000 1.0
C      1  0.4388040000000  0.5446370000000  0.4275360000000 1.0
C      1  0.4306070000000  0.4673560000000  0.4792020000000 1.0
C      1  0.4088660000000  0.4985600000000  0.5323760000000 1.0
C      1  0.5099840000000  0.4222770000000  0.4551320000000 1.0
C      1  0.4318870000000  0.4281500000000  0.5165060000000 1.0
C      1  0.5535080000000  0.4778550000000  0.5634260000000 1.0
C      1  0.5184940000000  0.4367660000000  0.5534700000000 1.0
C      1  0.4877830000000  0.4447010000000  0.5140150000000 1.0
C      1  0.4039920000000  0.5264480000000  0.5135340000000 1.0
C      1  0.4304110000000  0.4710750000000  0.5130190000000 1.0
C      1  0.5150030000000  0.6011290000000  0.4976180000000 1.0
C      1  0.4016990000000  0.4967190000000  0.4984280000000 1.0
C      1  0.4500110000000  0.4281190000000  0.5643050000000 1.0
C      1  0.4788310000000  0.4086970000000  0.4972420000000 1.0
C      1  0.4550470000000  0.5505100000000  0.5585250000000 1.0
C      1  0.4768140000000  0.4266870000000  0.5639250000000 1.0
C      1  0.4588880000000  0.5391070000000  0.4535300000000 1.0
C      1  0.5224310000000  0.5748010000000  0.4442310000000 1.0
C      1  0.4439450000000  0.4770750000000  0.5867850000000 1.0
C      1  0.5202770000000  0.5169170000000  0.5068920000000 1.0
C      1  0.5594980000000  0.4288190000000  0.5217710000000 1.0
C      1  0.4596170000000  0.4816580000000  0.4136620000000 1.0
C      1  0.4390180000000  0.4984250000000  0.4841370000000 1.0
C      1  0.5247900000000  0.5073400000000  0.6025020000000 1.0
C      1  0.5803950000000  0.4995250000000  0.4930960000000 1.0
C      1  0.4961670000000  0.5499390000000  0.5876380000000 1.0
C      1  0.4794900000000  0.4859970000000  0.5064380000000 1.0
C      1  0.5770440000000  0.4348370000000  0.4941070000000 1.0
C      1  0.5060190000000  0.4904250000000  0.4046510000000 1.0
C      1  0.4672080000000  0.4386390000000  0.4572060000000 1.0
C      1  0.4340220000000  0.5463430000000  0.4743130000000 1.0
C      1  0.4898870000000  0.4460120000000  0.4801050000000 1.0
C      1  0.4943170000000  0.5479790000000  0.4172880000000 1.0
C      1  0.4496360000000  0.5139790000000  0.4175740000000 1.0
C      1  0.5212920000000  0.4779150000000  0.5234310000000 1.0
C      1  0.5270140000000  0.5559850000000  0.5043540000000 1.0
C      1  0.5203260000000  0.4825010000000  0.5852510000000 1.0
C      1  0.5388550000000  0.4741580000000  0.4447570000000 1.0
C      1  0.5181240000000  0.4543610000000  0.4630670000000 1.0
C      1  0.4777770000000  0.4741500000000  0.5890820000000 1.0
C      1  0.4839620000000  0.5376490000000  0.4900210000000 1.0
C      1  0.5539550000000  0.5127490000000  0.5069020000000 1.0
C      1  0.5086140000000  0.4110480000000  0.5127320000000 1.0
C      1  0.4034930000000  0.4546850000000  0.5253860000000 1.0
C      1  0.4580180000000  0.5821610000000  0.5523720000000 1.0
C      1  0.6075660000000  0.4854980000000  0.4804450000000 1.0
C      1  0.5523350000000  0.4775870000000  0.5304080000000 1.0
C      1  0.4158390000000  0.4389930000000  0.4907770000000 1.0
C      1  0.4801170000000  0.5767540000000  0.5747020000000 1.0
C      1  0.5822930000000  0.4943610000000  0.5699760000000 1.0
C      1  0.5014490000000  0.5899670000000  0.4654870000000 1.0
C      1  0.4777630000000  0.3890890000000  0.5248760000000 1.0
C      1  0.4890290000000  0.5740590000000  0.4379030000000 1.0
C      1  0.5365530000000  0.5276070000000  0.5637670000000 1.0
C      1  0.4351180000000  0.5364730000000  0.5233980000000 1.0
C      1  0.4786400000000  0.4775430000000  0.5552510000000 1.0
C      1  0.5347350000000  0.4615690000000  0.5946000000000 1.0
C      1  0.5339300000000  0.5675580000000  0.4181400000000 1.0
C      1  0.4910790000000  0.5026650000000  0.6026700000000 1.0
C      1  0.5550860000000  0.5902770000000  0.4740120000000 1.0
C      1  0.4571680000000  0.5261320000000  0.5769210000000 1.0
C      1  0.5041180000000  0.5998820000000  0.5279040000000 1.0
C      1  0.5220300000000  0.4349840000000  0.5846000000000 1.0
C      1  0.5869770000000  0.4625250000000  0.4795660000000 1.0
C      1  0.4864430000000  0.4197020000000  0.5369670000000 1.0
C      1  0.5721040000000  0.4468730000000  0.5464650000000 1.0
C      1  0.4068070000000  0.5515090000000  0.4940310000000 1.0
C      1  0.4783170000000  0.5560810000000  0.5165680000000 1.0
C      1  0.4572380000000  0.5703050000000  0.4409150000000 1.0
C      1  0.4792260000000  0.5678180000000  0.4775930000000 1.0
C      1  0.4332960000000  0.4327550000000  0.4369180000000 1.0
C      1  0.5055860000000  0.5259800000000  0.5654070000000 1.0
C      1  0.6025030000000  0.5347430000000  0.5056200000000 1.0
C      1  0.4229450000000  0.4778700000000  0.4451530000000 1.0
C      1  0.5287300000000  0.5848370000000  0.5459230000000 1.0
C      1  0.5695060000000  0.5434480000000  0.4674820000000 1.0
C      1  0.5527490000000  0.4451650000000  0.5723240000000 1.0
C      1  0.5222220000000  0.4640080000000  0.4948680000000 1.0
C      1  0.5607820000000  0.4296530000000  0.4655610000000 1.0
C      1  0.5631120000000  0.5129230000000  0.4682890000000 1.0
C      1  0.5029130000000  0.4888350000000  0.4819220000000 1.0
C      1  0.4564910000000  0.4293350000000  0.4945350000000 1.0
C      1  0.4758120000000  0.5961690000000  0.5279770000000 1.0
C      1  0.4867510000000  0.4805860000000  0.4528470000000 1.0
C      1  0.5035800000000  0.4955740000000  0.5654380000000 1.0
C      1  0.5244070000000  0.5405600000000  0.4120590000000 1.0
C      1  0.4402930000000  0.4593270000000  0.4277530000000 1.0
C      1  0.5520050000000  0.5063430000000  0.5819390000000 1.0
C      1  0.4617070000000  0.5247580000000  0.5374490000000 1.0
C      1  0.4488760000000  0.5756210000000  0.4731010000000 1.0
C      1  0.4580170000000  0.5920250000000  0.5011750000000 1.0
C      1  0.5901580000000  0.5548130000000  0.4839050000000 1.0
C      1  0.5456150000000  0.5571980000000  0.5564880000000 1.0
C      1  0.5307640000000  0.5182930000000  0.4374330000000 1.0
C      1  0.4149000000000  0.4616810000000  0.5523280000000 1.0
C      1  0.5331540000000  0.5357830000000  0.4816990000000 1.0
C      1  0.4168840000000  0.5756550000000  0.5122020000000 1.0
C      1  0.4901460000000  0.3996190000000  0.4706130000000 1.0
C      1  0.4908970000000  0.4436080000000  0.5815760000000 1.0
C      1  0.5311920000000  0.4322330000000  0.5030110000000 1.0
C      1  0.4606880000000  0.5002550000000  0.4623310000000 1.0
C      1  0.4871970000000  0.5165830000000  0.4701260000000 1.0
C      1  0.5355280000000  0.4204290000000  0.4746630000000 1.0
C      1  0.4878030000000  0.5172940000000  0.5169710000000 1.0
C      1  0.5577740000000  0.4400870000000  0.4361840000000 1.0
C      1  0.5015760000000  0.5025030000000  0.4355660000000 1.0
C      1  0.3964610000000  0.5494530000000  0.4616710000000 1.0
C      1  0.5298280000000  0.5057370000000  0.4690790000000 1.0
C      1  0.5026550000000  0.4592620000000  0.5395830000000 1.0
C      1  0.4773010000000  0.4913250000000  0.3912200000000 1.0
C      1  0.4158730000000  0.5175910000000  0.4755620000000 1.0
C      1  0.5482180000000  0.5580970000000  0.5253310000000 1.0
C      1  0.5874240000000  0.5235800000000  0.5533370000000 1.0
C      1  0.4552310000000  0.5013520000000  0.5574910000000 1.0
C      1  0.5436820000000  0.5623210000000  0.4632970000000 1.0
C      1  0.4110360000000  0.5364460000000  0.4408490000000 1.0
C      1  0.5616940000000  0.5090860000000  0.5390330000000 1.0
C      1  0.5067530000000  0.5653150000000  0.5589960000000 1.0
C      1  0.5282360000000  0.5083960000000  0.5369740000000 1.0
END
