TITL C-3289331-6719-528 177.787937654243 125000 -693.079090131274 0 0 129 (C1) n - 1
REM
REM in /nfs/bkarasulu/CARBON/AIRSS/Generating-Clusters/AIREBO/with-SteepDescent/Higher-Symm/SD-CG/HFTN-CG
REM
REM
REM
REM
REM
REM ./C.cell (b20cbc046b6831c77cfcea5457e17084)
REM
REM compiler GCC version 9.2.1 20190827 (Red Hat 9.2.1-1)
REM options -cpp -mtune=generic -march=x86-64 -g -O0 -fpre-include=/usr/include/finclude/math-vector-fortran.h
REM seed 1666817958 -1229789864 -1504658662 871307302 1951881393 -1155080047 -732990733 -790788694 -576392758 923698863 1153271891 125478725 -2037375178 1730707841 1163625600 1467923439 -61182256 1620650403 -474392697 -2064456180 -1149542483 -1475730251 -426267626 -2046089739 510485450 -1652400305 -609508056 -1971251324 -506534723 -830795424 -2122653666 -553351897 -1341222901
REM
CELL 1.54180   50.00000   50.00000   50.00000   90.00000   90.00000   90.00000
LATT -1
SFAC C  
C      1  0.4659900000000  0.4720010000000  0.5242230000000 1.0
C      1  0.4954830000000  0.4669970000000  0.4587870000000 1.0
C      1  0.5348830000000  0.4808490000000  0.5184760000000 1.0
C      1  0.5185570000000  0.5356960000000  0.5323080000000 1.0
C      1  0.5158420000000  0.5257840000000  0.4707970000000 1.0
C      1  0.4596470000000  0.5320450000000  0.5013200000000 1.0
C      1  0.5393000000000  0.5138300000000  0.4492720000000 1.0
C      1  0.5178850000000  0.5194480000000  0.5621680000000 1.0
C      1  0.4374390000000  0.5094960000000  0.4917740000000 1.0
C      1  0.4547450000000  0.4742610000000  0.4554920000000 1.0
C      1  0.4805240000000  0.4800680000000  0.5676290000000 1.0
C      1  0.5636200000000  0.4781920000000  0.4782070000000 1.0
C      1  0.4821060000000  0.5108450000000  0.4870920000000 1.0
C      1  0.5234620000000  0.5129650000000  0.4977990000000 1.0
C      1  0.4965720000000  0.5136530000000  0.5186060000000 1.0
C      1  0.5350960000000  0.4858350000000  0.4866080000000 1.0
C      1  0.4770510000000  0.4820850000000  0.4770580000000 1.0
C      1  0.4879070000000  0.4869330000000  0.5377870000000 1.0
C      1  0.5753020000000  0.5128960000000  0.5246590000000 1.0
C      1  0.4418170000000  0.5091710000000  0.5476080000000 1.0
C      1  0.4894350000000  0.5205410000000  0.4285050000000 1.0
C      1  0.4348040000000  0.4843080000000  0.5317020000000 1.0
C      1  0.5586090000000  0.4907840000000  0.5395980000000 1.0
C      1  0.5093800000000  0.4985430000000  0.4275880000000 1.0
C      1  0.5698410000000  0.5333690000000  0.5585660000000 1.0
C      1  0.4077950000000  0.5413890000000  0.5245700000000 1.0
C      1  0.5308450000000  0.5500210000000  0.4095000000000 1.0
C      1  0.4296520000000  0.4520380000000  0.5727340000000 1.0
C      1  0.5901810000000  0.4536060000000  0.5182600000000 1.0
C      1  0.4822030000000  0.4610720000000  0.4103590000000 1.0
C      1  0.5612660000000  0.4767060000000  0.4383930000000 1.0
C      1  0.5242570000000  0.4809930000000  0.5810670000000 1.0
C      1  0.4158520000000  0.4716290000000  0.4841740000000 1.0
C      1  0.4365800000000  0.5171330000000  0.4412320000000 1.0
C      1  0.4698170000000  0.5221290000000  0.5873620000000 1.0
C      1  0.5871100000000  0.5235910000000  0.4784800000000 1.0
C      1  0.4480170000000  0.4428960000000  0.4563330000000 1.0
C      1  0.5675550000000  0.4456820000000  0.4786730000000 1.0
C      1  0.4809120000000  0.4476130000000  0.5733690000000 1.0
C      1  0.5489060000000  0.5457160000000  0.4561740000000 1.0
C      1  0.4250700000000  0.5555410000000  0.4719350000000 1.0
C      1  0.5037570000000  0.5500670000000  0.5665640000000 1.0
C      1  0.5059230000000  0.5565500000000  0.4787030000000 1.0
C      1  0.5207120000000  0.5631040000000  0.5150750000000 1.0
C      1  0.4802870000000  0.5577590000000  0.4959080000000 1.0
C      1  0.5061940000000  0.4381240000000  0.4669380000000 1.0
C      1  0.4749570000000  0.4433350000000  0.5160660000000 1.0
C      1  0.5243130000000  0.4543220000000  0.5086070000000 1.0
C      1  0.5515410000000  0.4955820000000  0.5689360000000 1.0
C      1  0.4108220000000  0.4883940000000  0.5126960000000 1.0
C      1  0.5401260000000  0.4863330000000  0.4175700000000 1.0
C      1  0.4446440000000  0.5046700000000  0.5774530000000 1.0
C      1  0.5969730000000  0.5051230000000  0.5039890000000 1.0
C      1  0.4618300000000  0.5107250000000  0.4192280000000 1.0
C      1  0.4189650000000  0.4498260000000  0.4623400000000 1.0
C      1  0.5778920000000  0.4529040000000  0.4507490000000 1.0
C      1  0.5042930000000  0.4561130000000  0.5890820000000 1.0
C      1  0.5782500000000  0.5439590000000  0.4564630000000 1.0
C      1  0.4181030000000  0.5425270000000  0.4489030000000 1.0
C      1  0.4877710000000  0.5492070000000  0.5894270000000 1.0
C      1  0.5051440000000  0.4360690000000  0.5208810000000 1.0
C      1  0.4611710000000  0.4428610000000  0.4860810000000 1.0
C      1  0.5337210000000  0.4461750000000  0.4820220000000 1.0
C      1  0.5047760000000  0.5712460000000  0.5440460000000 1.0
C      1  0.5374240000000  0.5551860000000  0.4865070000000 1.0
C      1  0.4563460000000  0.5634510000000  0.4740070000000 1.0
C      1  0.5246780000000  0.4098470000000  0.5305430000000 1.0
C      1  0.4556590000000  0.4154060000000  0.5141460000000 1.0
C      1  0.5101650000000  0.4053190000000  0.4589300000000 1.0
C      1  0.4804350000000  0.5729930000000  0.5248080000000 1.0
C      1  0.5416790000000  0.5877410000000  0.5091700000000 1.0
C      1  0.4905140000000  0.5819200000000  0.4647400000000 1.0
C      1  0.4324680000000  0.5523300000000  0.5038850000000 1.0
C      1  0.5299370000000  0.5640370000000  0.4394850000000 1.0
C      1  0.5456100000000  0.5528870000000  0.5445170000000 1.0
C      1  0.5627450000000  0.4354070000000  0.5097710000000 1.0
C      1  0.4777310000000  0.4454880000000  0.4399890000000 1.0
C      1  0.4558970000000  0.4359290000000  0.5594870000000 1.0
C      1  0.5436440000000  0.4125570000000  0.5067130000000 1.0
C      1  0.4654670000000  0.4126260000000  0.5432040000000 1.0
C      1  0.4792610000000  0.4182490000000  0.4603110000000 1.0
C      1  0.4504220000000  0.5801490000000  0.5098330000000 1.0
C      1  0.5426820000000  0.5839310000000  0.5408810000000 1.0
C      1  0.5222460000000  0.5868070000000  0.4583180000000 1.0
C      1  0.5624420000000  0.4577960000000  0.5358150000000 1.0
C      1  0.4342740000000  0.4533290000000  0.5395550000000 1.0
C      1  0.5108310000000  0.4721360000000  0.4077420000000 1.0
C      1  0.4326040000000  0.5411020000000  0.5423470000000 1.0
C      1  0.5746020000000  0.5465830000000  0.5290130000000 1.0
C      1  0.5019610000000  0.5505240000000  0.4263220000000 1.0
C      1  0.6138710000000  0.4783140000000  0.5168660000000 1.0
C      1  0.4207070000000  0.4819850000000  0.5866490000000 1.0
C      1  0.4626880000000  0.4855190000000  0.3958940000000 1.0
C      1  0.3898840000000  0.5122640000000  0.5256100000000 1.0
C      1  0.5749760000000  0.5138110000000  0.5859610000000 1.0
C      1  0.5318470000000  0.5287330000000  0.3855940000000 1.0
C      1  0.4609000000000  0.5412910000000  0.5612060000000 1.0
C      1  0.4580720000000  0.5412460000000  0.4493930000000 1.0
C      1  0.5693070000000  0.5472400000000  0.4952640000000 1.0
C      1  0.5341620000000  0.4628460000000  0.5540340000000 1.0
C      1  0.5381840000000  0.4542440000000  0.4492890000000 1.0
C      1  0.4356310000000  0.4540650000000  0.5055590000000 1.0
C      1  0.4090690000000  0.5195230000000  0.4991330000000 1.0
C      1  0.5413870000000  0.5189540000000  0.4155920000000 1.0
C      1  0.5443240000000  0.5269230000000  0.5792770000000 1.0
C      1  0.5903510000000  0.4750660000000  0.4931160000000 1.0
C      1  0.4606140000000  0.4796610000000  0.4282930000000 1.0
C      1  0.4531010000000  0.4735270000000  0.5847520000000 1.0
C      1  0.5388760000000  0.4217450000000  0.4510570000000 1.0
C      1  0.5268030000000  0.4340510000000  0.5543370000000 1.0
C      1  0.4281530000000  0.4224410000000  0.4955180000000 1.0
C      1  0.4787360000000  0.5651840000000  0.4406400000000 1.0
C      1  0.4520510000000  0.5674150000000  0.5412320000000 1.0
C      1  0.5687880000000  0.5809180000000  0.4906120000000 1.0
C      1  0.5210500000000  0.5975220000000  0.5556530000000 1.0
C      1  0.4667750000000  0.5941270000000  0.4834990000000 1.0
C      1  0.5418410000000  0.5945590000000  0.4767260000000 1.0
C      1  0.4940930000000  0.4139120000000  0.5429430000000 1.0
C      1  0.5365600000000  0.4063350000000  0.4805330000000 1.0
C      1  0.4563650000000  0.4093990000000  0.4806840000000 1.0
C      1  0.5233990000000  0.4843130000000  0.4551080000000 1.0
C      1  0.5187900000000  0.4912390000000  0.5431710000000 1.0
C      1  0.4525030000000  0.4820840000000  0.4962070000000 1.0
C      1  0.4858720000000  0.5274120000000  0.4600870000000 1.0
C      1  0.4674930000000  0.5250940000000  0.5320110000000 1.0
C      1  0.5485860000000  0.5240090000000  0.5089410000000 1.0
C      1  0.4323260000000  0.4938910000000  0.4637620000000 1.0
C      1  0.5697040000000  0.5022990000000  0.4592030000000 1.0
C      1  0.4969540000000  0.5020930000000  0.5825880000000 1.0
END
