TITL C-3289321-8710-27 -0.000343915422293912 125000 -446.701314193259 0 0 82 (C1) n - 1
REM
REM in /nfs/bkarasulu/CARBON/AIRSS/Generating-Clusters/AIREBO/with-SteepDescent/Higher-Symm/SD-CG/HFTN-CG
REM
REM
REM
REM
REM
REM ./C.cell (b20cbc046b6831c77cfcea5457e17084)
REM
REM compiler GCC version 9.2.1 20190827 (Red Hat 9.2.1-1)
REM options -cpp -mtune=generic -march=x86-64 -g -O0 -fpre-include=/usr/include/finclude/math-vector-fortran.h
REM seed 2074112978 -864030344 1386070589 -536972289 -1072590925 -944990886 -1953529388 -1143180969 472282729 -892658908 1795334962 510143601 -1767026008 19168342 1025714249 -62076582 618120632 946695571 -1059660979 -1469113131 674058978 -22300620 283046002 -1944010932 1132269550 -1606107907 -1602625286 1993462206 -879641067 -1644994427 -456953295 -1535923323 1570880424
REM
CELL 1.54180   50.00000   50.00000   50.00000   90.00000   90.00000   90.00000
LATT -1
SFAC C  
C      1  0.4319690000000  0.4502610000000  0.5202280000000 1.0
C      1  0.5498530000000  0.4557010000000  0.5407020000000 1.0
C      1  0.5236820000000  0.4513990000000  0.4251850000000 1.0
C      1  0.4701920000000  0.4300620000000  0.4446530000000 1.0
C      1  0.4731640000000  0.4275880000000  0.5618700000000 1.0
C      1  0.5581790000000  0.4301390000000  0.4854840000000 1.0
C      1  0.4741300000000  0.5128000000000  0.4204350000000 1.0
C      1  0.4427350000000  0.5053200000000  0.5657260000000 1.0
C      1  0.5831740000000  0.5110610000000  0.5230030000000 1.0
C      1  0.4905530000000  0.4532720000000  0.4327140000000 1.0
C      1  0.4462630000000  0.4419600000000  0.5488580000000 1.0
C      1  0.5619310000000  0.4514290000000  0.5100370000000 1.0
C      1  0.4380770000000  0.4750210000000  0.5509850000000 1.0
C      1  0.5793760000000  0.4768550000000  0.5246960000000 1.0
C      1  0.4863740000000  0.4819980000000  0.4144470000000 1.0
C      1  0.4596510000000  0.5437390000000  0.5425780000000 1.0
C      1  0.5663600000000  0.5565580000000  0.5186190000000 1.0
C      1  0.4910430000000  0.5463600000000  0.4487340000000 1.0
C      1  0.5332130000000  0.4407300000000  0.5554870000000 1.0
C      1  0.5416680000000  0.4331260000000  0.4364180000000 1.0
C      1  0.4326230000000  0.4368100000000  0.4968320000000 1.0
C      1  0.4829830000000  0.5646250000000  0.5292150000000 1.0
C      1  0.5402110000000  0.5589690000000  0.4981510000000 1.0
C      1  0.4799820000000  0.5624370000000  0.4765810000000 1.0
C      1  0.5069130000000  0.4877450000000  0.5264100000000 1.0
C      1  0.5022910000000  0.4921200000000  0.4943070000000 1.0
C      1  0.4753910000000  0.4935840000000  0.5150850000000 1.0
C      1  0.5528410000000  0.4858960000000  0.5439360000000 1.0
C      1  0.5171130000000  0.4805160000000  0.4211220000000 1.0
C      1  0.4283440000000  0.4799080000000  0.5206430000000 1.0
C      1  0.5019340000000  0.5475800000000  0.5505320000000 1.0
C      1  0.5408340000000  0.5357110000000  0.4752950000000 1.0
C      1  0.4576100000000  0.5413540000000  0.4833030000000 1.0
C      1  0.4202360000000  0.5070300000000  0.4610510000000 1.0
C      1  0.5145250000000  0.5216700000000  0.5957850000000 1.0
C      1  0.5641160000000  0.5003110000000  0.4508830000000 1.0
C      1  0.4652890000000  0.4649830000000  0.4630070000000 1.0
C      1  0.4884720000000  0.4672860000000  0.5419180000000 1.0
C      1  0.5167990000000  0.4687430000000  0.4816920000000 1.0
C      1  0.4472240000000  0.4958730000000  0.5043990000000 1.0
C      1  0.5273650000000  0.5012590000000  0.5434100000000 1.0
C      1  0.5256090000000  0.4981740000000  0.4408280000000 1.0
C      1  0.5138000000000  0.5659740000000  0.5178470000000 1.0
C      1  0.5134850000000  0.5647150000000  0.4779250000000 1.0
C      1  0.4668110000000  0.5740020000000  0.5043710000000 1.0
C      1  0.5634660000000  0.5255380000000  0.4552040000000 1.0
C      1  0.4411380000000  0.5281550000000  0.4626840000000 1.0
C      1  0.4939230000000  0.5354450000000  0.5762900000000 1.0
C      1  0.5156880000000  0.5028330000000  0.5725510000000 1.0
C      1  0.5384650000000  0.4831600000000  0.4651820000000 1.0
C      1  0.4468690000000  0.4907350000000  0.4748600000000 1.0
C      1  0.5398520000000  0.4262650000000  0.4641920000000 1.0
C      1  0.4565890000000  0.4359370000000  0.4745170000000 1.0
C      1  0.5012090000000  0.4387600000000  0.5515360000000 1.0
C      1  0.4952240000000  0.5162470000000  0.4746540000000 1.0
C      1  0.4874210000000  0.5233100000000  0.5224240000000 1.0
C      1  0.5338440000000  0.5201650000000  0.5047160000000 1.0
C      1  0.4716160000000  0.4307000000000  0.5028530000000 1.0
C      1  0.5136860000000  0.4369310000000  0.5208470000000 1.0
C      1  0.5122520000000  0.4252150000000  0.4719090000000 1.0
C      1  0.5764520000000  0.4949870000000  0.4977520000000 1.0
C      1  0.4651840000000  0.4862430000000  0.4396980000000 1.0
C      1  0.4687780000000  0.4855140000000  0.5572440000000 1.0
C      1  0.4882870000000  0.5104230000000  0.5538960000000 1.0
C      1  0.5510940000000  0.4995650000000  0.4885700000000 1.0
C      1  0.4697670000000  0.5111880000000  0.4602280000000 1.0
C      1  0.5253470000000  0.5738930000000  0.4503630000000 1.0
C      1  0.4395340000000  0.5743570000000  0.5074180000000 1.0
C      1  0.5407110000000  0.5623550000000  0.5378260000000 1.0
C      1  0.5270220000000  0.5325770000000  0.5353510000000 1.0
C      1  0.5186030000000  0.5267650000000  0.4523170000000 1.0
C      1  0.4550290000000  0.5278730000000  0.5128560000000 1.0
C      1  0.5448840000000  0.5807970000000  0.5610140000000 1.0
C      1  0.5287220000000  0.5537430000000  0.4342670000000 1.0
C      1  0.4286950000000  0.5493310000000  0.5144470000000 1.0
C      1  0.4961210000000  0.4518980000000  0.4657650000000 1.0
C      1  0.4711470000000  0.4447150000000  0.5259450000000 1.0
C      1  0.5294890000000  0.4512190000000  0.5036190000000 1.0
C      1  0.4438030000000  0.5318590000000  0.5613590000000 1.0
C      1  0.5857080000000  0.5384550000000  0.5240410000000 1.0
C      1  0.4780730000000  0.5385680000000  0.4257550000000 1.0
C      1  0.5059170000000  0.5384110000000  0.4981280000000 1.0
END
