TITL C-3289334-2237-304 0.10489424757891 125000 -240.383837026514 0 0 44 (C1) n - 1
REM
REM in /nfs/bkarasulu/CARBON/AIRSS/Generating-Clusters/AIREBO/with-SteepDescent/Higher-Symm/SD-CG/HFTN-CG
REM
REM
REM
REM
REM
REM ./C.cell (b20cbc046b6831c77cfcea5457e17084)
REM
REM compiler GCC version 9.2.1 20190827 (Red Hat 9.2.1-1)
REM options -cpp -mtune=generic -march=x86-64 -g -O0 -fpre-include=/usr/include/finclude/math-vector-fortran.h
REM seed 1617936154 -585832677 162545577 1888154017 -1778371988 -839228660 -822757232 -938832977 461671370 908343595 -1131958506 -2091309340 1021442168 1609738401 1353896896 -453354614 -1877157302 -1787544928 1762067229 -1660546714 533753438 1701242496 -58619058 -204054042 -1022694905 1125308705 841254729 -1813910595 17858830 -45934134 160376105 217804063 1502537614
REM
CELL 1.54180   50.00000   50.00000   50.00000   90.00000   90.00000   90.00000
LATT -1
SFAC C  
C      1  0.5130540000000  0.5313090000000  0.4551180000000 1.0
C      1  0.4923690000000  0.5192700000000  0.5296080000000 1.0
C      1  0.5465760000000  0.5077050000000  0.5753280000000 1.0
C      1  0.4456500000000  0.4974860000000  0.4913700000000 1.0
C      1  0.5551800000000  0.5212240000000  0.4739130000000 1.0
C      1  0.5269700000000  0.4970700000000  0.5603200000000 1.0
C      1  0.5776720000000  0.4902420000000  0.5041300000000 1.0
C      1  0.4800160000000  0.5271730000000  0.4706320000000 1.0
C      1  0.4730280000000  0.4995140000000  0.4846150000000 1.0
C      1  0.5487020000000  0.4628450000000  0.4295010000000 1.0
C      1  0.5512390000000  0.4764440000000  0.4525590000000 1.0
C      1  0.4823130000000  0.4681070000000  0.5267990000000 1.0
C      1  0.4924600000000  0.4921550000000  0.5090730000000 1.0
C      1  0.5200880000000  0.5064760000000  0.5347260000000 1.0
C      1  0.5356480000000  0.5409950000000  0.4673590000000 1.0
C      1  0.4853490000000  0.4363260000000  0.4912150000000 1.0
C      1  0.5573190000000  0.5101440000000  0.5003260000000 1.0
C      1  0.4973350000000  0.5476850000000  0.5185150000000 1.0
C      1  0.5327370000000  0.5009940000000  0.5110870000000 1.0
C      1  0.5200930000000  0.4267430000000  0.4350790000000 1.0
C      1  0.5394010000000  0.5669250000000  0.4736110000000 1.0
C      1  0.5022800000000  0.5717800000000  0.5116670000000 1.0
C      1  0.5196940000000  0.4780340000000  0.4934430000000 1.0
C      1  0.4720590000000  0.4460720000000  0.5132720000000 1.0
C      1  0.5617210000000  0.5027760000000  0.4533480000000 1.0
C      1  0.3787360000000  0.5313300000000  0.4880810000000 1.0
C      1  0.4796370000000  0.5702160000000  0.5781980000000 1.0
C      1  0.5004840000000  0.4596780000000  0.4745390000000 1.0
C      1  0.4820280000000  0.4794930000000  0.4618160000000 1.0
C      1  0.4429170000000  0.5262870000000  0.5340960000000 1.0
C      1  0.3994840000000  0.5305590000000  0.5040810000000 1.0
C      1  0.4667260000000  0.5009380000000  0.5684810000000 1.0
C      1  0.5069000000000  0.4313290000000  0.4583290000000 1.0
C      1  0.4687970000000  0.5501070000000  0.4805120000000 1.0
C      1  0.4885760000000  0.5197880000000  0.4405240000000 1.0
C      1  0.4895690000000  0.4677410000000  0.5535890000000 1.0
C      1  0.4837470000000  0.4919890000000  0.4375760000000 1.0
C      1  0.4208480000000  0.5272860000000  0.5196500000000 1.0
C      1  0.4692200000000  0.5223100000000  0.5498910000000 1.0
C      1  0.5458030000000  0.4662960000000  0.4786870000000 1.0
C      1  0.4921000000000  0.4107380000000  0.4762720000000 1.0
C      1  0.4749240000000  0.5486610000000  0.5653790000000 1.0
C      1  0.5116430000000  0.4747400000000  0.5681350000000 1.0
C      1  0.5689060000000  0.4650190000000  0.4955500000000 1.0
END
