TITL C-3289331-6719-247 0.000246295793696211 125000 -179.891212921432 0 0 35 (C1) n - 1
REM
REM in /nfs/bkarasulu/CARBON/AIRSS/Generating-Clusters/AIREBO/with-SteepDescent/Higher-Symm/SD-CG/HFTN-CG
REM
REM
REM
REM
REM
REM ./C.cell (b20cbc046b6831c77cfcea5457e17084)
REM
REM compiler GCC version 9.2.1 20190827 (Red Hat 9.2.1-1)
REM options -cpp -mtune=generic -march=x86-64 -g -O0 -fpre-include=/usr/include/finclude/math-vector-fortran.h
REM seed 1438657873 -1447405888 -44615653 -358397930 791961349 784394563 2013124934 -1010457709 1517326041 -68478768 -1842099448 1679805790 1526013166 -1197421819 -2062418828 1852044520 -458218432 -524265203 1335072686 585921835 947570878 -1426999512 10866173 -163625118 -419502264 -1787532303 787951719 1584813308 -1474583522 -196578385 798622984 -537167097 -115513733
REM
CELL 1.54180   50.00000   50.00000   50.00000   90.00000   90.00000   90.00000
LATT -1
SFAC C  
C      1  0.5040750000000  0.4479920000000  0.4633350000000 1.0
C      1  0.5072350000000  0.5565630000000  0.4714320000000 1.0
C      1  0.5079060000000  0.4966090000000  0.5647800000000 1.0
C      1  0.5115110000000  0.5467920000000  0.5636950000000 1.0
C      1  0.5141590000000  0.4188250000000  0.5036680000000 1.0
C      1  0.5162420000000  0.5324370000000  0.4284690000000 1.0
C      1  0.5307880000000  0.4769330000000  0.5193280000000 1.0
C      1  0.5319200000000  0.4938300000000  0.4727950000000 1.0
C      1  0.5313400000000  0.5263650000000  0.5098030000000 1.0
C      1  0.4668620000000  0.4838340000000  0.4783960000000 1.0
C      1  0.4695990000000  0.5336310000000  0.4997580000000 1.0
C      1  0.4697220000000  0.4815890000000  0.5319200000000 1.0
C      1  0.4937030000000  0.5190560000000  0.4810220000000 1.0
C      1  0.4927570000000  0.5066730000000  0.5265730000000 1.0
C      1  0.4934530000000  0.4722780000000  0.4938430000000 1.0
C      1  0.4903410000000  0.4734200000000  0.5533870000000 1.0
C      1  0.4862060000000  0.4722050000000  0.4545350000000 1.0
C      1  0.4895020000000  0.5568180000000  0.4971770000000 1.0
C      1  0.4690130000000  0.4419390000000  0.5028880000000 1.0
C      1  0.4708710000000  0.5233490000000  0.4484920000000 1.0
C      1  0.4669090000000  0.5271740000000  0.5491330000000 1.0
C      1  0.5205930000000  0.5496380000000  0.4998180000000 1.0
C      1  0.5209690000000  0.4748210000000  0.5448710000000 1.0
C      1  0.5184510000000  0.4758350000000  0.4565040000000 1.0
C      1  0.5009230000000  0.5339760000000  0.4513210000000 1.0
C      1  0.4985750000000  0.5242160000000  0.5546850000000 1.0
C      1  0.4991150000000  0.4388570000000  0.4924280000000 1.0
C      1  0.5551850000000  0.5229750000000  0.5227340000000 1.0
C      1  0.5536540000000  0.4659140000000  0.5091380000000 1.0
C      1  0.5569400000000  0.5043950000000  0.4704060000000 1.0
C      1  0.4593610000000  0.5017890000000  0.4533770000000 1.0
C      1  0.4547470000000  0.5308800000000  0.5275950000000 1.0
C      1  0.4571570000000  0.4560820000000  0.5195900000000 1.0
C      1  0.5132400000000  0.4991340000000  0.5004760000000 1.0
C      1  0.4674260000000  0.5006320000000  0.5047110000000 1.0
END
