TITL C-3289324-3781-333 0.0023611929004788 125000 -868.061130015521 0 0 156 (C1) n - 1
REM
REM in /nfs/bkarasulu/CARBON/AIRSS/Generating-Clusters/AIREBO/with-SteepDescent/Higher-Symm/SD-CG/HFTN-CG
REM
REM
REM
REM
REM
REM ./C.cell (b20cbc046b6831c77cfcea5457e17084)
REM
REM compiler GCC version 9.2.1 20190827 (Red Hat 9.2.1-1)
REM options -cpp -mtune=generic -march=x86-64 -g -O0 -fpre-include=/usr/include/finclude/math-vector-fortran.h
REM seed 304406725 -1996042938 1837520300 1260158707 -764608458 -1473842257 -1041726772 111063361 -1572853232 122966638 914042287 -727928067 -202556310 -233830679 -1125106120 1064138395 1892801337 -2117522780 1830709560 1288678336 -730580203 -1719345031 -2051148342 -1935062406 835055641 -219937882 1155535094 -1026250178 -1846609202 1627794126 -1914842206 -436683135 -527363196
REM
CELL 1.54180   50.00000   50.00000   50.00000   90.00000   90.00000   90.00000
LATT -1
SFAC C  
C      1  0.4190620000000  0.4725960000000  0.5454510000000 1.0
C      1  0.5810510000000  0.5457060000000  0.5240090000000 1.0
C      1  0.4185040000000  0.5320060000000  0.4493900000000 1.0
C      1  0.5902070000000  0.4515980000000  0.4745400000000 1.0
C      1  0.4460040000000  0.4985710000000  0.5871200000000 1.0
C      1  0.5551530000000  0.5922340000000  0.4939400000000 1.0
C      1  0.4480130000000  0.5003950000000  0.4145970000000 1.0
C      1  0.5529980000000  0.4140040000000  0.5029050000000 1.0
C      1  0.5590240000000  0.4484720000000  0.4295810000000 1.0
C      1  0.4455930000000  0.4258240000000  0.5511710000000 1.0
C      1  0.5564750000000  0.5546340000000  0.5667550000000 1.0
C      1  0.4467030000000  0.5756930000000  0.4493800000000 1.0
C      1  0.4838630000000  0.4612490000000  0.4509600000000 1.0
C      1  0.5132030000000  0.4664320000000  0.5345720000000 1.0
C      1  0.4884570000000  0.5278570000000  0.5370200000000 1.0
C      1  0.5014990000000  0.5441890000000  0.4722460000000 1.0
C      1  0.4506560000000  0.4822800000000  0.5510030000000 1.0
C      1  0.5590940000000  0.5599600000000  0.5169160000000 1.0
C      1  0.4508070000000  0.5221450000000  0.4541120000000 1.0
C      1  0.5587780000000  0.4548000000000  0.4742530000000 1.0
C      1  0.4954960000000  0.5179030000000  0.5687760000000 1.0
C      1  0.5159680000000  0.5848950000000  0.4938780000000 1.0
C      1  0.4767170000000  0.4879570000000  0.4393690000000 1.0
C      1  0.5096560000000  0.4193060000000  0.5073340000000 1.0
C      1  0.5275250000000  0.5171010000000  0.5431230000000 1.0
C      1  0.4618340000000  0.5474260000000  0.4740080000000 1.0
C      1  0.5337660000000  0.4709610000000  0.4618800000000 1.0
C      1  0.4790860000000  0.4513930000000  0.5204610000000 1.0
C      1  0.5194120000000  0.4704020000000  0.5047340000000 1.0
C      1  0.4738160000000  0.5029600000000  0.5187060000000 1.0
C      1  0.5127010000000  0.5343410000000  0.5028100000000 1.0
C      1  0.4688120000000  0.5105460000000  0.4877640000000 1.0
C      1  0.4771360000000  0.6013310000000  0.5111500000000 1.0
C      1  0.5249780000000  0.4974930000000  0.4194540000000 1.0
C      1  0.4776180000000  0.4077140000000  0.4861980000000 1.0
C      1  0.5228690000000  0.4946320000000  0.5996410000000 1.0
C      1  0.4810190000000  0.5112590000000  0.4579670000000 1.0
C      1  0.5069930000000  0.4450300000000  0.4922650000000 1.0
C      1  0.4807510000000  0.4903640000000  0.5591910000000 1.0
C      1  0.5260790000000  0.5623070000000  0.5119050000000 1.0
C      1  0.4603090000000  0.4525910000000  0.4305950000000 1.0
C      1  0.5369700000000  0.4468610000000  0.5434420000000 1.0
C      1  0.4653780000000  0.5415800000000  0.5578920000000 1.0
C      1  0.5322650000000  0.5531090000000  0.4608470000000 1.0
C      1  0.5229530000000  0.3900590000000  0.4615290000000 1.0
C      1  0.4687460000000  0.4773590000000  0.6030500000000 1.0
C      1  0.5223760000000  0.6144530000000  0.5353800000000 1.0
C      1  0.4694270000000  0.5205930000000  0.3970290000000 1.0
C      1  0.4403570000000  0.5314710000000  0.4233480000000 1.0
C      1  0.5482440000000  0.4255790000000  0.4777910000000 1.0
C      1  0.4389350000000  0.4674890000000  0.5792920000000 1.0
C      1  0.5519840000000  0.5893710000000  0.5258340000000 1.0
C      1  0.4800790000000  0.4548340000000  0.5887090000000 1.0
C      1  0.5168060000000  0.5926770000000  0.5508710000000 1.0
C      1  0.4801500000000  0.5440110000000  0.4088370000000 1.0
C      1  0.5161980000000  0.4114120000000  0.4460790000000 1.0
C      1  0.4913830000000  0.4210190000000  0.4388090000000 1.0
C      1  0.5054000000000  0.4456900000000  0.5810280000000 1.0
C      1  0.4922500000000  0.5815310000000  0.5574520000000 1.0
C      1  0.5056030000000  0.5498550000000  0.4191210000000 1.0
C      1  0.4383390000000  0.5729870000000  0.4937090000000 1.0
C      1  0.5678960000000  0.4906800000000  0.4372830000000 1.0
C      1  0.4399670000000  0.4278210000000  0.5056580000000 1.0
C      1  0.5636130000000  0.5168230000000  0.5768760000000 1.0
C      1  0.5114750000000  0.5164480000000  0.4579290000000 1.0
C      1  0.4771560000000  0.4517550000000  0.4805240000000 1.0
C      1  0.5128660000000  0.4818010000000  0.5633570000000 1.0
C      1  0.4865240000000  0.5529950000000  0.5141920000000 1.0
C      1  0.5709950000000  0.5164680000000  0.4449290000000 1.0
C      1  0.4360200000000  0.4346650000000  0.4785750000000 1.0
C      1  0.5682660000000  0.4869240000000  0.5681460000000 1.0
C      1  0.4311500000000  0.5618650000000  0.5185180000000 1.0
C      1  0.6080510000000  0.4964230000000  0.5290960000000 1.0
C      1  0.3875520000000  0.5282750000000  0.4980410000000 1.0
C      1  0.6261530000000  0.4947820000000  0.4511120000000 1.0
C      1  0.3995250000000  0.4689650000000  0.4950460000000 1.0
C      1  0.4891670000000  0.4402860000000  0.4174650000000 1.0
C      1  0.5112600000000  0.4319920000000  0.5560930000000 1.0
C      1  0.4891260000000  0.5572170000000  0.5724730000000 1.0
C      1  0.5104240000000  0.5701600000000  0.4434200000000 1.0
C      1  0.5507750000000  0.4732230000000  0.4979890000000 1.0
C      1  0.4425870000000  0.5026880000000  0.5289730000000 1.0
C      1  0.5372750000000  0.5157360000000  0.4938000000000 1.0
C      1  0.4534050000000  0.4868180000000  0.4734500000000 1.0
C      1  0.5987090000000  0.4380970000000  0.4968990000000 1.0
C      1  0.4040920000000  0.4949870000000  0.5565480000000 1.0
C      1  0.5971260000000  0.5318910000000  0.5072490000000 1.0
C      1  0.4164670000000  0.4995350000000  0.4548410000000 1.0
C      1  0.4243760000000  0.5155470000000  0.5749670000000 1.0
C      1  0.5715560000000  0.5758870000000  0.4785130000000 1.0
C      1  0.4284690000000  0.4821770000000  0.4272420000000 1.0
C      1  0.5751980000000  0.4279490000000  0.5175370000000 1.0
C      1  0.5691620000000  0.4407090000000  0.5485450000000 1.0
C      1  0.4321990000000  0.5462560000000  0.5626360000000 1.0
C      1  0.5634250000000  0.5608810000000  0.4498100000000 1.0
C      1  0.4271230000000  0.4481770000000  0.4265550000000 1.0
C      1  0.4832550000000  0.4594570000000  0.5491760000000 1.0
C      1  0.5169250000000  0.5461630000000  0.5403950000000 1.0
C      1  0.4783540000000  0.5503360000000  0.4480870000000 1.0
C      1  0.5110850000000  0.4488860000000  0.4599820000000 1.0
C      1  0.5415730000000  0.4837640000000  0.4365700000000 1.0
C      1  0.4700880000000  0.4227700000000  0.5111300000000 1.0
C      1  0.5335380000000  0.5060450000000  0.5711130000000 1.0
C      1  0.4723190000000  0.5735460000000  0.4925340000000 1.0
C      1  0.5032900000000  0.5156110000000  0.6077380000000 1.0
C      1  0.4970940000000  0.6184490000000  0.5046700000000 1.0
C      1  0.5075330000000  0.4821670000000  0.4051940000000 1.0
C      1  0.4951100000000  0.3867070000000  0.4897030000000 1.0
C      1  0.4795340000000  0.4910070000000  0.4081410000000 1.0
C      1  0.5278540000000  0.3950110000000  0.4935840000000 1.0
C      1  0.4760830000000  0.5077820000000  0.5948140000000 1.0
C      1  0.5298390000000  0.6131320000000  0.5028400000000 1.0
C      1  0.4947620000000  0.5833840000000  0.4689460000000 1.0
C      1  0.5112720000000  0.4539590000000  0.4059230000000 1.0
C      1  0.4935860000000  0.4172050000000  0.5350860000000 1.0
C      1  0.5116750000000  0.5405060000000  0.5891440000000 1.0
C      1  0.5776110000000  0.4894290000000  0.5042410000000 1.0
C      1  0.4154070000000  0.5144500000000  0.5122700000000 1.0
C      1  0.5896250000000  0.5113630000000  0.4812040000000 1.0
C      1  0.4229350000000  0.4924290000000  0.4874650000000 1.0
C      1  0.4185300000000  0.5386910000000  0.4886240000000 1.0
C      1  0.6012280000000  0.4912340000000  0.4591470000000 1.0
C      1  0.4311690000000  0.4666220000000  0.5080400000000 1.0
C      1  0.5781460000000  0.5071260000000  0.5332180000000 1.0
C      1  0.4445950000000  0.4614490000000  0.4594300000000 1.0
C      1  0.5538230000000  0.4762310000000  0.5393290000000 1.0
C      1  0.4500730000000  0.5355490000000  0.5288320000000 1.0
C      1  0.5516510000000  0.5286670000000  0.4701240000000 1.0
C      1  0.4267490000000  0.4425410000000  0.5315210000000 1.0
C      1  0.5775720000000  0.5349110000000  0.5527960000000 1.0
C      1  0.4227740000000  0.5615240000000  0.4657360000000 1.0
C      1  0.5841360000000  0.4652900000000  0.4452470000000 1.0
C      1  0.5378520000000  0.4338610000000  0.4475680000000 1.0
C      1  0.4594520000000  0.4465410000000  0.5666000000000 1.0
C      1  0.5379750000000  0.5699700000000  0.5492870000000 1.0
C      1  0.4569200000000  0.5594290000000  0.4243400000000 1.0
C      1  0.5390670000000  0.4436940000000  0.4069340000000 1.0
C      1  0.4639130000000  0.4052120000000  0.5462440000000 1.0
C      1  0.5423330000000  0.5406180000000  0.5887990000000 1.0
C      1  0.4650770000000  0.5939820000000  0.4589970000000 1.0
C      1  0.5790080000000  0.4612460000000  0.5232830000000 1.0
C      1  0.4124130000000  0.5255820000000  0.5442710000000 1.0
C      1  0.5816440000000  0.5433150000000  0.4725360000000 1.0
C      1  0.4117180000000  0.4659860000000  0.4520100000000 1.0
C      1  0.4480650000000  0.5321580000000  0.4978190000000 1.0
C      1  0.5216410000000  0.4932090000000  0.4795780000000 1.0
C      1  0.4643140000000  0.4738830000000  0.5029410000000 1.0
C      1  0.5458820000000  0.5047300000000  0.5227060000000 1.0
C      1  0.5238880000000  0.5268320000000  0.4290140000000 1.0
C      1  0.4703330000000  0.4249100000000  0.4607190000000 1.0
C      1  0.5295910000000  0.4644320000000  0.5873820000000 1.0
C      1  0.4735000000000  0.5779580000000  0.5336510000000 1.0
C      1  0.5528360000000  0.5368630000000  0.4309960000000 1.0
C      1  0.4388670000000  0.4240780000000  0.4478240000000 1.0
C      1  0.5580290000000  0.4586990000000  0.5751630000000 1.0
C      1  0.4442260000000  0.5720190000000  0.5438810000000 1.0
END
