TITL C-3289330-4660-292 0.0010263423468002 125000 -601.194740501052 0 0 115 (C1) n - 1
REM
REM in /nfs/bkarasulu/CARBON/AIRSS/Generating-Clusters/AIREBO/with-SteepDescent/Higher-Symm/SD-CG/HFTN-CG
REM
REM
REM
REM
REM
REM ./C.cell (b20cbc046b6831c77cfcea5457e17084)
REM
REM compiler GCC version 9.2.1 20190827 (Red Hat 9.2.1-1)
REM options -cpp -mtune=generic -march=x86-64 -g -O0 -fpre-include=/usr/include/finclude/math-vector-fortran.h
REM seed 1587007207 595051645 -864381181 -1277102427 -1165933431 854273446 401053981 272373427 -101061062 -1824196797 1900909269 -1228208284 897421248 -727805855 1952354850 474325565 -799438414 -1633447972 354357459 1961289688 1916079301 938145248 988080100 25913970 1641259856 648705276 -1738075409 1350645345 375046810 -919121018 -466105637 531061299 294234342
REM
CELL 1.54180   50.00000   50.00000   50.00000   90.00000   90.00000   90.00000
LATT -1
SFAC C  
C      1  0.4538370000000  0.4726370000000  0.5661320000000 1.0
C      1  0.4441420000000  0.4565960000000  0.4672440000000 1.0
C      1  0.5599040000000  0.4543630000000  0.4365060000000 1.0
C      1  0.5623020000000  0.4725220000000  0.5417150000000 1.0
C      1  0.5402140000000  0.5388300000000  0.5621150000000 1.0
C      1  0.5551160000000  0.5305910000000  0.4592900000000 1.0
C      1  0.4646530000000  0.5454400000000  0.4423760000000 1.0
C      1  0.4428120000000  0.5262410000000  0.5515180000000 1.0
C      1  0.4185200000000  0.4859850000000  0.4572480000000 1.0
C      1  0.5401800000000  0.4938170000000  0.4149760000000 1.0
C      1  0.5973660000000  0.4910010000000  0.5367630000000 1.0
C      1  0.4823560000000  0.4896470000000  0.6029370000000 1.0
C      1  0.5990880000000  0.5036780000000  0.4619140000000 1.0
C      1  0.4528930000000  0.5100830000000  0.4116110000000 1.0
C      1  0.3951070000000  0.5245430000000  0.5304560000000 1.0
C      1  0.5420870000000  0.5161110000000  0.5949030000000 1.0
C      1  0.4353690000000  0.5459560000000  0.4596440000000 1.0
C      1  0.5398550000000  0.5394800000000  0.4346440000000 1.0
C      1  0.5650610000000  0.5304280000000  0.5419300000000 1.0
C      1  0.4680380000000  0.5238810000000  0.5676220000000 1.0
C      1  0.5743890000000  0.4454750000000  0.4604770000000 1.0
C      1  0.4596630000000  0.4467020000000  0.4388160000000 1.0
C      1  0.4306870000000  0.4571920000000  0.5464780000000 1.0
C      1  0.5443080000000  0.4613600000000  0.5663820000000 1.0
C      1  0.4754750000000  0.4938350000000  0.5726320000000 1.0
C      1  0.4197340000000  0.5160530000000  0.4549050000000 1.0
C      1  0.5297740000000  0.5190860000000  0.4193090000000 1.0
C      1  0.5599760000000  0.5028910000000  0.5265740000000 1.0
C      1  0.5443460000000  0.4941270000000  0.5699600000000 1.0
C      1  0.5785510000000  0.4766150000000  0.4636210000000 1.0
C      1  0.4592570000000  0.4845110000000  0.4227210000000 1.0
C      1  0.4401650000000  0.5055680000000  0.5258850000000 1.0
C      1  0.5372130000000  0.4042000000000  0.5053420000000 1.0
C      1  0.4888110000000  0.4024080000000  0.5443660000000 1.0
C      1  0.4537030000000  0.4156660000000  0.4923330000000 1.0
C      1  0.5051640000000  0.4141370000000  0.4572850000000 1.0
C      1  0.4569490000000  0.5896550000000  0.4982470000000 1.0
C      1  0.4916530000000  0.5918940000000  0.5372340000000 1.0
C      1  0.5370590000000  0.5933610000000  0.4757760000000 1.0
C      1  0.4726780000000  0.5861400000000  0.4787200000000 1.0
C      1  0.5711760000000  0.5533400000000  0.5254180000000 1.0
C      1  0.4777980000000  0.5550700000000  0.5687290000000 1.0
C      1  0.4320000000000  0.5625920000000  0.4827670000000 1.0
C      1  0.5300840000000  0.5647320000000  0.4348900000000 1.0
C      1  0.4300040000000  0.4465700000000  0.5216960000000 1.0
C      1  0.5201230000000  0.4373900000000  0.5669450000000 1.0
C      1  0.5676960000000  0.4295600000000  0.4807980000000 1.0
C      1  0.4842620000000  0.4441900000000  0.4286750000000 1.0
C      1  0.5015120000000  0.4732170000000  0.6061070000000 1.0
C      1  0.4136520000000  0.4774530000000  0.4825220000000 1.0
C      1  0.5190310000000  0.4768320000000  0.4089510000000 1.0
C      1  0.5926160000000  0.4839590000000  0.5134290000000 1.0
C      1  0.5171280000000  0.5267260000000  0.5977770000000 1.0
C      1  0.6027120000000  0.5174560000000  0.4852160000000 1.0
C      1  0.4762030000000  0.5207830000000  0.4007640000000 1.0
C      1  0.4023640000000  0.5300200000000  0.5045150000000 1.0
C      1  0.5003130000000  0.5158870000000  0.4213430000000 1.0
C      1  0.5759700000000  0.5182210000000  0.5012890000000 1.0
C      1  0.5012050000000  0.5242020000000  0.5752320000000 1.0
C      1  0.4206560000000  0.5210160000000  0.4868390000000 1.0
C      1  0.4911840000000  0.4835020000000  0.4261270000000 1.0
C      1  0.4290360000000  0.4833880000000  0.5033090000000 1.0
C      1  0.5147240000000  0.4666480000000  0.5799630000000 1.0
C      1  0.5686840000000  0.4866890000000  0.4913120000000 1.0
C      1  0.4999600000000  0.4755810000000  0.4547170000000 1.0
C      1  0.5388520000000  0.4841190000000  0.5076670000000 1.0
C      1  0.5023070000000  0.4845880000000  0.5538800000000 1.0
C      1  0.4602840000000  0.4788080000000  0.5040430000000 1.0
C      1  0.4927890000000  0.5272480000000  0.4482340000000 1.0
C      1  0.4501030000000  0.5166250000000  0.4965970000000 1.0
C      1  0.5221990000000  0.5120600000000  0.5513940000000 1.0
C      1  0.5440050000000  0.5216650000000  0.4901990000000 1.0
C      1  0.4285670000000  0.4889590000000  0.5515870000000 1.0
C      1  0.4349820000000  0.4688150000000  0.4368630000000 1.0
C      1  0.5626700000000  0.4857390000000  0.4332130000000 1.0
C      1  0.5775910000000  0.4955630000000  0.5615120000000 1.0
C      1  0.5684040000000  0.5252420000000  0.5754130000000 1.0
C      1  0.5750410000000  0.5117850000000  0.4461020000000 1.0
C      1  0.4386680000000  0.5288620000000  0.4303960000000 1.0
C      1  0.4105710000000  0.5157810000000  0.5507000000000 1.0
C      1  0.5104150000000  0.4434920000000  0.4497690000000 1.0
C      1  0.5423820000000  0.4346820000000  0.5028550000000 1.0
C      1  0.4934910000000  0.4308120000000  0.5468540000000 1.0
C      1  0.4539820000000  0.4459330000000  0.4980070000000 1.0
C      1  0.5060140000000  0.5715560000000  0.4539210000000 1.0
C      1  0.4476170000000  0.5628710000000  0.5130940000000 1.0
C      1  0.4966990000000  0.5631090000000  0.5424910000000 1.0
C      1  0.5474740000000  0.5620650000000  0.5062820000000 1.0
C      1  0.5179520000000  0.4833330000000  0.4825090000000 1.0
C      1  0.5234540000000  0.4707540000000  0.5311270000000 1.0
C      1  0.4807050000000  0.4822750000000  0.5287650000000 1.0
C      1  0.4787160000000  0.4888290000000  0.4777490000000 1.0
C      1  0.4750510000000  0.5226860000000  0.4751870000000 1.0
C      1  0.4792880000000  0.5127070000000  0.5135970000000 1.0
C      1  0.5260960000000  0.5226760000000  0.5192360000000 1.0
C      1  0.5164400000000  0.5308840000000  0.4725370000000 1.0
C      1  0.4773670000000  0.5714290000000  0.4394110000000 1.0
C      1  0.5625460000000  0.5553510000000  0.4780470000000 1.0
C      1  0.5235550000000  0.5613720000000  0.5632750000000 1.0
C      1  0.4366860000000  0.5556660000000  0.5416250000000 1.0
C      1  0.5361150000000  0.4433030000000  0.4309550000000 1.0
C      1  0.4218370000000  0.4350230000000  0.4769230000000 1.0
C      1  0.4701270000000  0.4445780000000  0.5670600000000 1.0
C      1  0.5641230000000  0.4488550000000  0.5248300000000 1.0
C      1  0.4807630000000  0.4494070000000  0.5213870000000 1.0
C      1  0.4827250000000  0.4553380000000  0.4821510000000 1.0
C      1  0.5230860000000  0.4512760000000  0.4798750000000 1.0
C      1  0.5193930000000  0.4408980000000  0.5271320000000 1.0
C      1  0.5211000000000  0.5536130000000  0.5207900000000 1.0
C      1  0.5235240000000  0.5627890000000  0.4819640000000 1.0
C      1  0.4849750000000  0.5552620000000  0.4750910000000 1.0
C      1  0.4760010000000  0.5458440000000  0.5209330000000 1.0
C      1  0.4966490000000  0.5649530000000  0.5026850000000 1.0
C      1  0.5026230000000  0.4357050000000  0.4992410000000 1.0
C      1  0.5068550000000  0.5094710000000  0.4971700000000 1.0
END
