TITL C-3289327-5623-230 0.00050204112384683 125000 -1015.46758403542 0 0 188 (C1) n - 1
REM
REM in /nfs/bkarasulu/CARBON/AIRSS/Generating-Clusters/AIREBO/with-SteepDescent/Higher-Symm/SD-CG/HFTN-CG
REM
REM
REM
REM
REM
REM ./C.cell (b20cbc046b6831c77cfcea5457e17084)
REM
REM compiler GCC version 9.2.1 20190827 (Red Hat 9.2.1-1)
REM options -cpp -mtune=generic -march=x86-64 -g -O0 -fpre-include=/usr/include/finclude/math-vector-fortran.h
REM seed 2067694277 -950852682 2028137174 1324999012 -33716464 -735533130 246125646 752116150 -1486670293 816795728 387887474 -356060810 -1075612190 -1279988155 1311617946 -1683669618 1156803900 320058642 -629315203 -1558563497 -1608664599 1698923811 635646425 389969153 -106904365 -1546839081 920984430 -1109877569 -1270515578 -1625940013 201446083 -123287747 539734853
REM
CELL 1.54180   50.00000   50.00000   50.00000   90.00000   90.00000   90.00000
LATT -1
SFAC C  
C      1  0.5981390000000  0.5095240000000  0.4183180000000 1.0
C      1  0.5016380000000  0.5986070000000  0.4457160000000 1.0
C      1  0.4113760000000  0.5270690000000  0.4452930000000 1.0
C      1  0.4275930000000  0.4179540000000  0.4490390000000 1.0
C      1  0.5558070000000  0.4192300000000  0.4452360000000 1.0
C      1  0.5996130000000  0.5284200000000  0.5593420000000 1.0
C      1  0.5024370000000  0.5996230000000  0.5581770000000 1.0
C      1  0.3965560000000  0.5418730000000  0.5577830000000 1.0
C      1  0.4263210000000  0.4399440000000  0.5734790000000 1.0
C      1  0.5610200000000  0.4189510000000  0.5529990000000 1.0
C      1  0.4637310000000  0.5328250000000  0.3927860000000 1.0
C      1  0.4557920000000  0.4781000000000  0.4000700000000 1.0
C      1  0.5064580000000  0.4515210000000  0.3957450000000 1.0
C      1  0.5478160000000  0.4879750000000  0.3857790000000 1.0
C      1  0.5263960000000  0.5390740000000  0.3994710000000 1.0
C      1  0.4591300000000  0.5285130000000  0.6055580000000 1.0
C      1  0.4573310000000  0.4714930000000  0.6020620000000 1.0
C      1  0.5117530000000  0.4512560000000  0.6025650000000 1.0
C      1  0.5468980000000  0.4946170000000  0.6027800000000 1.0
C      1  0.5139920000000  0.5413130000000  0.6052840000000 1.0
C      1  0.5078050000000  0.5670240000000  0.5622600000000 1.0
C      1  0.4252990000000  0.5338550000000  0.5709700000000 1.0
C      1  0.4475210000000  0.4456230000000  0.5475100000000 1.0
C      1  0.5401250000000  0.4432480000000  0.5598930000000 1.0
C      1  0.5718810000000  0.5109550000000  0.5620560000000 1.0
C      1  0.5040470000000  0.5661910000000  0.4380890000000 1.0
C      1  0.4445470000000  0.5219210000000  0.4398240000000 1.0
C      1  0.4405370000000  0.4394450000000  0.4287970000000 1.0
C      1  0.5375410000000  0.4439480000000  0.4350920000000 1.0
C      1  0.5776780000000  0.5141560000000  0.4594630000000 1.0
C      1  0.4955400000000  0.5600370000000  0.5893080000000 1.0
C      1  0.4339620000000  0.5161990000000  0.5937800000000 1.0
C      1  0.4632600000000  0.4488650000000  0.5774980000000 1.0
C      1  0.5396320000000  0.4459690000000  0.5909410000000 1.0
C      1  0.5589100000000  0.5198540000000  0.5895590000000 1.0
C      1  0.5043650000000  0.5606920000000  0.4065640000000 1.0
C      1  0.4417740000000  0.5152190000000  0.4085960000000 1.0
C      1  0.4619340000000  0.4484820000000  0.4094410000000 1.0
C      1  0.5354780000000  0.4446500000000  0.4037600000000 1.0
C      1  0.5679290000000  0.5151990000000  0.4278830000000 1.0
C      1  0.6033360000000  0.4851700000000  0.4734250000000 1.0
C      1  0.5354480000000  0.5825110000000  0.4765000000000 1.0
C      1  0.4321220000000  0.5587060000000  0.4756480000000 1.0
C      1  0.4159040000000  0.4564580000000  0.4777240000000 1.0
C      1  0.5260810000000  0.4042330000000  0.4775090000000 1.0
C      1  0.5936750000000  0.4899410000000  0.5259300000000 1.0
C      1  0.5354210000000  0.5798110000000  0.5267560000000 1.0
C      1  0.4308270000000  0.5606900000000  0.5265770000000 1.0
C      1  0.4093150000000  0.4539850000000  0.5287830000000 1.0
C      1  0.5266400000000  0.4113890000000  0.5127620000000 1.0
C      1  0.5518910000000  0.5595050000000  0.4447570000000 1.0
C      1  0.4597960000000  0.5700990000000  0.4416250000000 1.0
C      1  0.4163960000000  0.4828330000000  0.4477180000000 1.0
C      1  0.4928120000000  0.4255760000000  0.4456020000000 1.0
C      1  0.5768150000000  0.4637930000000  0.4359330000000 1.0
C      1  0.5488430000000  0.5585330000000  0.5578390000000 1.0
C      1  0.4546400000000  0.5698960000000  0.5583890000000 1.0
C      1  0.4149370000000  0.4851180000000  0.5619080000000 1.0
C      1  0.4997580000000  0.4235230000000  0.5544410000000 1.0
C      1  0.5775360000000  0.4702050000000  0.5586540000000 1.0
C      1  0.4134570000000  0.4489350000000  0.4470360000000 1.0
C      1  0.5221260000000  0.4199510000000  0.4512910000000 1.0
C      1  0.5945770000000  0.4896670000000  0.4430030000000 1.0
C      1  0.5315640000000  0.5823490000000  0.4456620000000 1.0
C      1  0.4333760000000  0.5536400000000  0.4449010000000 1.0
C      1  0.4092960000000  0.4580230000000  0.5584240000000 1.0
C      1  0.5280180000000  0.4149080000000  0.5462800000000 1.0
C      1  0.5995040000000  0.4942950000000  0.5574650000000 1.0
C      1  0.5341470000000  0.5872600000000  0.5578710000000 1.0
C      1  0.4230060000000  0.5634730000000  0.5571490000000 1.0
C      1  0.5154050000000  0.4825900000000  0.3881700000000 1.0
C      1  0.5259020000000  0.5128730000000  0.3778080000000 1.0
C      1  0.4969540000000  0.5255150000000  0.3890610000000 1.0
C      1  0.4770410000000  0.5017010000000  0.3959710000000 1.0
C      1  0.4837450000000  0.4721340000000  0.3810750000000 1.0
C      1  0.5221070000000  0.4784250000000  0.6202910000000 1.0
C      1  0.5175070000000  0.5074170000000  0.6057000000000 1.0
C      1  0.4897380000000  0.5199960000000  0.6115030000000 1.0
C      1  0.4670670000000  0.4985200000000  0.6205020000000 1.0
C      1  0.4898950000000  0.4757620000000  0.6097390000000 1.0
C      1  0.3899990000000  0.4705490000000  0.4875910000000 1.0
C      1  0.4993840000000  0.3903290000000  0.4863980000000 1.0
C      1  0.6140030000000  0.4605720000000  0.4897940000000 1.0
C      1  0.5646840000000  0.5839400000000  0.4873590000000 1.0
C      1  0.4384540000000  0.5875700000000  0.4862790000000 1.0
C      1  0.3874860000000  0.4705230000000  0.5153140000000 1.0
C      1  0.4981680000000  0.3929700000000  0.5154800000000 1.0
C      1  0.6099960000000  0.4641160000000  0.5170230000000 1.0
C      1  0.5641740000000  0.5829110000000  0.5153780000000 1.0
C      1  0.4384260000000  0.5878790000000  0.5143090000000 1.0
C      1  0.4808440000000  0.4805570000000  0.4628290000000 1.0
C      1  0.5291130000000  0.4728660000000  0.4508650000000 1.0
C      1  0.5171590000000  0.5199200000000  0.4591670000000 1.0
C      1  0.4958050000000  0.5399560000000  0.4565050000000 1.0
C      1  0.4554000000000  0.4961850000000  0.4555680000000 1.0
C      1  0.4870300000000  0.4725350000000  0.5393010000000 1.0
C      1  0.5262970000000  0.4713360000000  0.5466100000000 1.0
C      1  0.5249640000000  0.5113000000000  0.5460610000000 1.0
C      1  0.4867360000000  0.5282620000000  0.5482850000000 1.0
C      1  0.4650240000000  0.5045320000000  0.5480050000000 1.0
C      1  0.4240040000000  0.4286470000000  0.5168930000000 1.0
C      1  0.5601340000000  0.4057000000000  0.5113690000000 1.0
C      1  0.6040440000000  0.5154830000000  0.5134560000000 1.0
C      1  0.5163750000000  0.6013500000000  0.5155010000000 1.0
C      1  0.4052930000000  0.5490200000000  0.5137920000000 1.0
C      1  0.4262690000000  0.4290420000000  0.4898230000000 1.0
C      1  0.5572880000000  0.4069260000000  0.4827380000000 1.0
C      1  0.6070060000000  0.5140040000000  0.4864970000000 1.0
C      1  0.5165670000000  0.6032550000000  0.4883570000000 1.0
C      1  0.4057320000000  0.5486670000000  0.4866800000000 1.0
C      1  0.5792970000000  0.4255660000000  0.5271310000000 1.0
C      1  0.5939040000000  0.5424080000000  0.5305530000000 1.0
C      1  0.4870300000000  0.6025400000000  0.5292930000000 1.0
C      1  0.3903150000000  0.5241540000000  0.5314950000000 1.0
C      1  0.4516050000000  0.4158690000000  0.5315600000000 1.0
C      1  0.5786120000000  0.4269980000000  0.4661050000000 1.0
C      1  0.5930900000000  0.5416110000000  0.4723270000000 1.0
C      1  0.4866900000000  0.6047110000000  0.4745260000000 1.0
C      1  0.3931980000000  0.5214130000000  0.4729090000000 1.0
C      1  0.4473920000000  0.4116080000000  0.4720950000000 1.0
C      1  0.5795100000000  0.4608100000000  0.4697040000000 1.0
C      1  0.5596470000000  0.5477090000000  0.4713260000000 1.0
C      1  0.4727410000000  0.5740660000000  0.4697970000000 1.0
C      1  0.4169990000000  0.4972260000000  0.4750410000000 1.0
C      1  0.4751920000000  0.4305460000000  0.4699740000000 1.0
C      1  0.5705900000000  0.4580140000000  0.5323880000000 1.0
C      1  0.5601820000000  0.5464950000000  0.5322200000000 1.0
C      1  0.4717140000000  0.5724200000000  0.5330850000000 1.0
C      1  0.4154090000000  0.5015810000000  0.5356140000000 1.0
C      1  0.4825290000000  0.4306640000000  0.5317720000000 1.0
C      1  0.4895010000000  0.4461870000000  0.4213950000000 1.0
C      1  0.5579300000000  0.4670600000000  0.4075850000000 1.0
C      1  0.5495510000000  0.5395680000000  0.4215480000000 1.0
C      1  0.4739210000000  0.5557200000000  0.4141360000000 1.0
C      1  0.4266590000000  0.4873000000000  0.4150540000000 1.0
C      1  0.4912060000000  0.4350910000000  0.5824950000000 1.0
C      1  0.5574570000000  0.4707280000000  0.5844290000000 1.0
C      1  0.5396040000000  0.5418960000000  0.5833710000000 1.0
C      1  0.4664690000000  0.5549640000000  0.5866200000000 1.0
C      1  0.4375230000000  0.4892210000000  0.5817200000000 1.0
C      1  0.5218640000000  0.4440480000000  0.5081400000000 1.0
C      1  0.5618150000000  0.4965800000000  0.5154950000000 1.0
C      1  0.5190120000000  0.5506440000000  0.5205620000000 1.0
C      1  0.4521600000000  0.5359880000000  0.5192230000000 1.0
C      1  0.4394690000000  0.4689090000000  0.5238640000000 1.0
C      1  0.5259900000000  0.4577500000000  0.4811710000000 1.0
C      1  0.5599090000000  0.5047940000000  0.4828630000000 1.0
C      1  0.5184990000000  0.5573620000000  0.4883390000000 1.0
C      1  0.4531850000000  0.5364750000000  0.4858600000000 1.0
C      1  0.4443000000000  0.4690030000000  0.4916030000000 1.0
C      1  0.3767350000000  0.4932680000000  0.5271570000000 1.0
C      1  0.4751690000000  0.3914000000000  0.5298620000000 1.0
C      1  0.6090110000000  0.4409020000000  0.5318870000000 1.0
C      1  0.5872590000000  0.5756990000000  0.5285410000000 1.0
C      1  0.4534680000000  0.6074370000000  0.5267940000000 1.0
C      1  0.3774940000000  0.4912620000000  0.4739180000000 1.0
C      1  0.4743260000000  0.3909700000000  0.4745130000000 1.0
C      1  0.6094130000000  0.4357290000000  0.4775910000000 1.0
C      1  0.5882640000000  0.5752080000000  0.4745760000000 1.0
C      1  0.4528730000000  0.6083480000000  0.4745290000000 1.0
C      1  0.5000240000000  0.4617360000000  0.5659440000000 1.0
C      1  0.5454080000000  0.4935030000000  0.5628560000000 1.0
C      1  0.5130280000000  0.5334980000000  0.5650430000000 1.0
C      1  0.4580840000000  0.5310500000000  0.5656590000000 1.0
C      1  0.4636720000000  0.4784120000000  0.5633510000000 1.0
C      1  0.4978920000000  0.4691520000000  0.4399090000000 1.0
C      1  0.5535900000000  0.4876780000000  0.4324860000000 1.0
C      1  0.5285030000000  0.5182020000000  0.4334260000000 1.0
C      1  0.4740480000000  0.5334350000000  0.4369210000000 1.0
C      1  0.4454800000000  0.4707120000000  0.4380020000000 1.0
C      1  0.4853630000000  0.5474440000000  0.4866380000000 1.0
C      1  0.4479220000000  0.5026360000000  0.4881020000000 1.0
C      1  0.4743490000000  0.4595850000000  0.4847240000000 1.0
C      1  0.5529500000000  0.4765310000000  0.4762430000000 1.0
C      1  0.5365930000000  0.5287940000000  0.4847690000000 1.0
C      1  0.4856330000000  0.5440790000000  0.5204730000000 1.0
C      1  0.4458720000000  0.5026730000000  0.5220450000000 1.0
C      1  0.4910730000000  0.4550910000000  0.5117170000000 1.0
C      1  0.5439110000000  0.4678070000000  0.5184410000000 1.0
C      1  0.5400750000000  0.5236410000000  0.5182080000000 1.0
C      1  0.4790300000000  0.5845670000000  0.5015390000000 1.0
C      1  0.4043790000000  0.5102990000000  0.5038010000000 1.0
C      1  0.4663730000000  0.4251380000000  0.5023640000000 1.0
C      1  0.5761220000000  0.5446430000000  0.5016480000000 1.0
C      1  0.5763560000000  0.4471320000000  0.5006860000000 1.0
C      1  0.5078670000000  0.4925090000000  0.5266700000000 1.0
C      1  0.5092300000000  0.4930100000000  0.4699420000000 1.0
C      1  0.5096210000000  0.4920210000000  0.4986800000000 1.0
END
