TITL C-3289321-8710-541 -0.000288929995487493 125000 -1072.5423136049 0 0 189 (C1) n - 1
REM
REM in /nfs/bkarasulu/CARBON/AIRSS/Generating-Clusters/AIREBO/with-SteepDescent/Higher-Symm/SD-CG/HFTN-CG
REM
REM
REM
REM
REM
REM ./C.cell (b20cbc046b6831c77cfcea5457e17084)
REM
REM compiler GCC version 9.2.1 20190827 (Red Hat 9.2.1-1)
REM options -cpp -mtune=generic -march=x86-64 -g -O0 -fpre-include=/usr/include/finclude/math-vector-fortran.h
REM seed 1186592338 1269266202 -1121169134 -219333140 497930284 240229889 1676944840 504177649 1789957864 -566295175 1574367764 921744771 770393321 102972149 -987317441 -1328713741 -485603005 1745293630 -1430309288 99648443 1220108377 2056349508 -972588021 979457875 -580539878 1517477582 -1999198426 1534809902 592674910 248502362 1304324576 -212950328 126772949
REM
CELL 1.54180   50.00000   50.00000   50.00000   90.00000   90.00000   90.00000
LATT -1
SFAC C  
C      1  0.4836180000000  0.3810630000000  0.4905280000000 1.0
C      1  0.4830390000000  0.4716950000000  0.3939950000000 1.0
C      1  0.4806870000000  0.6031490000000  0.4435560000000 1.0
C      1  0.4858030000000  0.5889370000000  0.5759190000000 1.0
C      1  0.4853850000000  0.4609530000000  0.6036630000000 1.0
C      1  0.5121320000000  0.3924090000000  0.4913450000000 1.0
C      1  0.5116520000000  0.4761360000000  0.3902170000000 1.0
C      1  0.5105610000000  0.6067020000000  0.4464030000000 1.0
C      1  0.5156650000000  0.5914850000000  0.5790130000000 1.0
C      1  0.5134080000000  0.4555320000000  0.6129320000000 1.0
C      1  0.4582880000000  0.4821780000000  0.4234550000000 1.0
C      1  0.4601320000000  0.5743940000000  0.4709330000000 1.0
C      1  0.4669930000000  0.5500050000000  0.5503190000000 1.0
C      1  0.4601930000000  0.4696560000000  0.5656630000000 1.0
C      1  0.4728170000000  0.4232520000000  0.4810090000000 1.0
C      1  0.5436660000000  0.4865680000000  0.4111570000000 1.0
C      1  0.5356370000000  0.5735060000000  0.4699530000000 1.0
C      1  0.5286430000000  0.5462140000000  0.5515300000000 1.0
C      1  0.5544280000000  0.4566040000000  0.5919040000000 1.0
C      1  0.5444680000000  0.4272530000000  0.4821840000000 1.0
C      1  0.5249920000000  0.6022110000000  0.4702260000000 1.0
C      1  0.5372630000000  0.5728170000000  0.5810820000000 1.0
C      1  0.5330040000000  0.4401720000000  0.5986440000000 1.0
C      1  0.5294800000000  0.4031050000000  0.4710960000000 1.0
C      1  0.5221870000000  0.5052800000000  0.3955150000000 1.0
C      1  0.4643960000000  0.6070000000000  0.4693130000000 1.0
C      1  0.4690320000000  0.5660160000000  0.5868080000000 1.0
C      1  0.4657110000000  0.4427060000000  0.5847750000000 1.0
C      1  0.4592660000000  0.3941560000000  0.4737260000000 1.0
C      1  0.4684440000000  0.4976920000000  0.3978130000000 1.0
C      1  0.5918500000000  0.5070160000000  0.4373870000000 1.0
C      1  0.6270410000000  0.5479040000000  0.4633710000000 1.0
C      1  0.5862880000000  0.5506540000000  0.5536250000000 1.0
C      1  0.5865600000000  0.4592780000000  0.5683020000000 1.0
C      1  0.5963010000000  0.4115940000000  0.4987470000000 1.0
C      1  0.4149860000000  0.5155990000000  0.4260100000000 1.0
C      1  0.4101150000000  0.5775900000000  0.4926880000000 1.0
C      1  0.4182370000000  0.5351930000000  0.5645830000000 1.0
C      1  0.4126340000000  0.4615460000000  0.5506110000000 1.0
C      1  0.4231830000000  0.4255280000000  0.4667260000000 1.0
C      1  0.4855480000000  0.4886520000000  0.4791410000000 1.0
C      1  0.4873980000000  0.5198320000000  0.4747660000000 1.0
C      1  0.4845790000000  0.5346650000000  0.5031180000000 1.0
C      1  0.4934120000000  0.5088770000000  0.5236390000000 1.0
C      1  0.4849380000000  0.4817740000000  0.5112580000000 1.0
C      1  0.5162180000000  0.4789590000000  0.4867360000000 1.0
C      1  0.5190960000000  0.5062650000000  0.4666700000000 1.0
C      1  0.5183320000000  0.5357500000000  0.5070730000000 1.0
C      1  0.5260230000000  0.5127990000000  0.5298470000000 1.0
C      1  0.5338720000000  0.4767260000000  0.5144980000000 1.0
C      1  0.5576710000000  0.5038040000000  0.5933530000000 1.0
C      1  0.5536970000000  0.4158490000000  0.5338200000000 1.0
C      1  0.5555630000000  0.4388800000000  0.4289930000000 1.0
C      1  0.5515040000000  0.5598880000000  0.4187070000000 1.0
C      1  0.5527140000000  0.5858970000000  0.5276690000000 1.0
C      1  0.4453680000000  0.4990140000000  0.5883050000000 1.0
C      1  0.4501210000000  0.4108940000000  0.5272320000000 1.0
C      1  0.4426190000000  0.4437710000000  0.4296270000000 1.0
C      1  0.4405390000000  0.5568510000000  0.4216720000000 1.0
C      1  0.4417440000000  0.5894430000000  0.5368600000000 1.0
C      1  0.6026640000000  0.5144490000000  0.4926940000000 1.0
C      1  0.6047710000000  0.5146480000000  0.5267210000000 1.0
C      1  0.6033900000000  0.4561030000000  0.5248200000000 1.0
C      1  0.5981920000000  0.4556540000000  0.4793640000000 1.0
C      1  0.6100020000000  0.4868520000000  0.4791000000000 1.0
C      1  0.3948880000000  0.5305180000000  0.5012880000000 1.0
C      1  0.3896750000000  0.5063510000000  0.5246490000000 1.0
C      1  0.4012960000000  0.4556790000000  0.5032090000000 1.0
C      1  0.3937580000000  0.4656370000000  0.4715330000000 1.0
C      1  0.3975720000000  0.5159240000000  0.4708780000000 1.0
C      1  0.5138560000000  0.5599390000000  0.4515770000000 1.0
C      1  0.5162470000000  0.5673720000000  0.5313160000000 1.0
C      1  0.5097690000000  0.4764330000000  0.5541710000000 1.0
C      1  0.5148990000000  0.4324290000000  0.5083830000000 1.0
C      1  0.5144700000000  0.4777460000000  0.4299900000000 1.0
C      1  0.4828700000000  0.5640720000000  0.4515500000000 1.0
C      1  0.4844670000000  0.5704960000000  0.5333330000000 1.0
C      1  0.4851150000000  0.4882340000000  0.5649950000000 1.0
C      1  0.4848150000000  0.4216310000000  0.5082220000000 1.0
C      1  0.4836160000000  0.4641550000000  0.4372980000000 1.0
C      1  0.4038980000000  0.4762890000000  0.4449770000000 1.0
C      1  0.4119080000000  0.5538220000000  0.4533990000000 1.0
C      1  0.4172300000000  0.5487620000000  0.5191150000000 1.0
C      1  0.4200180000000  0.4985600000000  0.5378740000000 1.0
C      1  0.4269050000000  0.4346530000000  0.5054370000000 1.0
C      1  0.5869500000000  0.4630540000000  0.4389040000000 1.0
C      1  0.5784630000000  0.5446880000000  0.4568940000000 1.0
C      1  0.5829770000000  0.5394680000000  0.5047600000000 1.0
C      1  0.5929530000000  0.4987280000000  0.5466660000000 1.0
C      1  0.5735400000000  0.4452190000000  0.5158270000000 1.0
C      1  0.4569170000000  0.4894590000000  0.4638020000000 1.0
C      1  0.4271210000000  0.5264540000000  0.4782130000000 1.0
C      1  0.4561760000000  0.5204080000000  0.5130110000000 1.0
C      1  0.4387400000000  0.4846280000000  0.5164020000000 1.0
C      1  0.4576170000000  0.4680790000000  0.4975890000000 1.0
C      1  0.5405250000000  0.4854380000000  0.4504470000000 1.0
C      1  0.5369820000000  0.5243290000000  0.4849300000000 1.0
C      1  0.5551420000000  0.5275500000000  0.5202420000000 1.0
C      1  0.5404330000000  0.4867670000000  0.5463150000000 1.0
C      1  0.5567190000000  0.4806830000000  0.4969700000000 1.0
C      1  0.4839230000000  0.4922360000000  0.5962010000000 1.0
C      1  0.4853040000000  0.3926770000000  0.5224540000000 1.0
C      1  0.4780900000000  0.4428730000000  0.4113510000000 1.0
C      1  0.4752060000000  0.5765430000000  0.4225980000000 1.0
C      1  0.4787260000000  0.6011050000000  0.5455340000000 1.0
C      1  0.5134280000000  0.4885470000000  0.6093090000000 1.0
C      1  0.5178000000000  0.4020930000000  0.5234760000000 1.0
C      1  0.5113150000000  0.4498710000000  0.4119250000000 1.0
C      1  0.5078280000000  0.5803410000000  0.4250520000000 1.0
C      1  0.5111350000000  0.5972970000000  0.5463900000000 1.0
C      1  0.4356640000000  0.5755270000000  0.4473380000000 1.0
C      1  0.4505190000000  0.5771360000000  0.5614050000000 1.0
C      1  0.4456880000000  0.4686880000000  0.5953100000000 1.0
C      1  0.4398150000000  0.4037100000000  0.4991620000000 1.0
C      1  0.4269640000000  0.4702630000000  0.4299110000000 1.0
C      1  0.5605270000000  0.5716290000000  0.4464670000000 1.0
C      1  0.5496180000000  0.5729630000000  0.5524560000000 1.0
C      1  0.5647440000000  0.4796020000000  0.6044740000000 1.0
C      1  0.5651650000000  0.4143090000000  0.5044050000000 1.0
C      1  0.5659610000000  0.4645380000000  0.4148640000000 1.0
C      1  0.6089520000000  0.4357340000000  0.4982310000000 1.0
C      1  0.6021210000000  0.4842880000000  0.4482290000000 1.0
C      1  0.6039600000000  0.5372150000000  0.4695750000000 1.0
C      1  0.6023240000000  0.5443290000000  0.5320550000000 1.0
C      1  0.6006770000000  0.4722800000000  0.5492850000000 1.0
C      1  0.3989260000000  0.4342760000000  0.4768940000000 1.0
C      1  0.3970770000000  0.5033640000000  0.4432650000000 1.0
C      1  0.3968650000000  0.5551440000000  0.4779000000000 1.0
C      1  0.4003390000000  0.5330670000000  0.5407420000000 1.0
C      1  0.3987150000000  0.4736170000000  0.5263440000000 1.0
C      1  0.5179920000000  0.4486030000000  0.4814560000000 1.0
C      1  0.5216140000000  0.5304960000000  0.4435260000000 1.0
C      1  0.5296520000000  0.5651520000000  0.5026030000000 1.0
C      1  0.5056880000000  0.5307250000000  0.5629510000000 1.0
C      1  0.5128810000000  0.4476940000000  0.5387950000000 1.0
C      1  0.4937470000000  0.4426120000000  0.4616060000000 1.0
C      1  0.4739120000000  0.5344460000000  0.4532650000000 1.0
C      1  0.4734610000000  0.5670020000000  0.5013460000000 1.0
C      1  0.4767330000000  0.5174340000000  0.5510600000000 1.0
C      1  0.4828890000000  0.4513980000000  0.5232120000000 1.0
C      1  0.4520640000000  0.4419440000000  0.5271240000000 1.0
C      1  0.4553300000000  0.4588040000000  0.4554330000000 1.0
C      1  0.4407800000000  0.5361050000000  0.4486090000000 1.0
C      1  0.4419970000000  0.5692970000000  0.5152290000000 1.0
C      1  0.4452290000000  0.5060550000000  0.5587020000000 1.0
C      1  0.5468290000000  0.4463710000000  0.5370060000000 1.0
C      1  0.5579760000000  0.4606210000000  0.4538030000000 1.0
C      1  0.5528450000000  0.5337090000000  0.4373310000000 1.0
C      1  0.5635700000000  0.5673340000000  0.5035220000000 1.0
C      1  0.5634860000000  0.5061970000000  0.5620350000000 1.0
C      1  0.4778330000000  0.4206730000000  0.5666690000000 1.0
C      1  0.4681350000000  0.4049690000000  0.4439180000000 1.0
C      1  0.4731670000000  0.5250370000000  0.4014860000000 1.0
C      1  0.4651070000000  0.6170380000000  0.4997140000000 1.0
C      1  0.4767240000000  0.5415840000000  0.5990260000000 1.0
C      1  0.5269730000000  0.4195670000000  0.5787950000000 1.0
C      1  0.5209600000000  0.4086320000000  0.4433160000000 1.0
C      1  0.5154570000000  0.5315240000000  0.4040670000000 1.0
C      1  0.5153570000000  0.6056210000000  0.4969890000000 1.0
C      1  0.5344320000000  0.5480490000000  0.5931130000000 1.0
C      1  0.5310750000000  0.5166610000000  0.6063180000000 1.0
C      1  0.5349240000000  0.4020090000000  0.5528510000000 1.0
C      1  0.5308680000000  0.4276850000000  0.4240170000000 1.0
C      1  0.5256780000000  0.5596200000000  0.4075060000000 1.0
C      1  0.5305470000000  0.6031930000000  0.5211170000000 1.0
C      1  0.4641980000000  0.5165200000000  0.6035520000000 1.0
C      1  0.4672260000000  0.4008650000000  0.5490910000000 1.0
C      1  0.4575650000000  0.4197980000000  0.4222470000000 1.0
C      1  0.4629690000000  0.5534720000000  0.4030730000000 1.0
C      1  0.4559120000000  0.6150660000000  0.5276520000000 1.0
C      1  0.4434650000000  0.5057000000000  0.4381460000000 1.0
C      1  0.4359860000000  0.5568740000000  0.4850580000000 1.0
C      1  0.4402710000000  0.5329370000000  0.5384780000000 1.0
C      1  0.4413520000000  0.4647650000000  0.5438740000000 1.0
C      1  0.4489720000000  0.4426320000000  0.4808270000000 1.0
C      1  0.5610080000000  0.5055030000000  0.4321710000000 1.0
C      1  0.5549760000000  0.5472480000000  0.4774690000000 1.0
C      1  0.5597760000000  0.5345400000000  0.5508490000000 1.0
C      1  0.5556130000000  0.4607100000000  0.5620290000000 1.0
C      1  0.5661070000000  0.4534430000000  0.4835790000000 1.0
C      1  0.5050650000000  0.5339730000000  0.5929030000000 1.0
C      1  0.5046100000000  0.4267230000000  0.5608040000000 1.0
C      1  0.4920110000000  0.5319490000000  0.4268240000000 1.0
C      1  0.4883770000000  0.5975110000000  0.4996050000000 1.0
C      1  0.4939560000000  0.4145270000000  0.4483140000000 1.0
C      1  0.5615610000000  0.5074600000000  0.4943320000000 1.0
C      1  0.4435810000000  0.5042480000000  0.4893320000000 1.0
C      1  0.3836210000000  0.4921770000000  0.4896710000000 1.0
C      1  0.6250720000000  0.4714800000000  0.5041170000000 1.0
END
