TITL C-3289331-6719-363 -0.0127578155356557 125000 -969.315105080546 0 0 170 (C1) n - 1
REM
REM in /nfs/bkarasulu/CARBON/AIRSS/Generating-Clusters/AIREBO/with-SteepDescent/Higher-Symm/SD-CG/HFTN-CG
REM
REM
REM
REM
REM
REM ./C.cell (b20cbc046b6831c77cfcea5457e17084)
REM
REM compiler GCC version 9.2.1 20190827 (Red Hat 9.2.1-1)
REM options -cpp -mtune=generic -march=x86-64 -g -O0 -fpre-include=/usr/include/finclude/math-vector-fortran.h
REM seed -1012915601 -1366019866 -397184702 -1128613124 331133980 1432620963 -309797558 2081198099 278852986 1992638465 186628175 -803344530 769118697 -2111512100 1393821715 -1844144378 300748845 720416229 734845254 -979710884 -1781959474 1734244614 1189190785 1728824718 -318388730 -601165561 1728752141 1003591732 -161387497 1979035861 -760147419 367263461 401083474
REM
CELL 1.54180   50.00000   50.00000   50.00000   90.00000   90.00000   90.00000
LATT -1
SFAC C  
C      1  0.4833530000000  0.4006580000000  0.4689260000000 1.0
C      1  0.4859410000000  0.4909430000000  0.3923200000000 1.0
C      1  0.4863190000000  0.5870110000000  0.4392180000000 1.0
C      1  0.4781810000000  0.6024740000000  0.5419720000000 1.0
C      1  0.4847780000000  0.5146990000000  0.6100910000000 1.0
C      1  0.4813120000000  0.4116790000000  0.5675930000000 1.0
C      1  0.5120300000000  0.4102870000000  0.4629290000000 1.0
C      1  0.5191460000000  0.4963520000000  0.3870230000000 1.0
C      1  0.5202240000000  0.5860760000000  0.4380600000000 1.0
C      1  0.5108970000000  0.5958440000000  0.5440020000000 1.0
C      1  0.5153620000000  0.5060690000000  0.6023910000000 1.0
C      1  0.5127340000000  0.4180920000000  0.5680290000000 1.0
C      1  0.4644360000000  0.5919030000000  0.4618820000000 1.0
C      1  0.4550400000000  0.5830960000000  0.5530750000000 1.0
C      1  0.4563850000000  0.5001610000000  0.6062410000000 1.0
C      1  0.4572780000000  0.4145640000000  0.5526390000000 1.0
C      1  0.4608770000000  0.4068160000000  0.4492260000000 1.0
C      1  0.4600770000000  0.5083360000000  0.3985730000000 1.0
C      1  0.5491740000000  0.5849090000000  0.4543280000000 1.0
C      1  0.5347590000000  0.5817430000000  0.5635910000000 1.0
C      1  0.5346840000000  0.4781040000000  0.5992270000000 1.0
C      1  0.5359720000000  0.4109730000000  0.5486640000000 1.0
C      1  0.5435370000000  0.4191030000000  0.4536620000000 1.0
C      1  0.5507930000000  0.5018070000000  0.3983260000000 1.0
C      1  0.5249290000000  0.5638050000000  0.5907900000000 1.0
C      1  0.5214690000000  0.4516660000000  0.6102010000000 1.0
C      1  0.5244910000000  0.4011860000000  0.5190410000000 1.0
C      1  0.5170460000000  0.4457690000000  0.4084530000000 1.0
C      1  0.5140340000000  0.5540410000000  0.3980130000000 1.0
C      1  0.5068270000000  0.5967260000000  0.4931200000000 1.0
C      1  0.5042590000000  0.5619680000000  0.6161780000000 1.0
C      1  0.4961600000000  0.4362160000000  0.6141040000000 1.0
C      1  0.4982570000000  0.3838630000000  0.5111380000000 1.0
C      1  0.4932510000000  0.4364190000000  0.3922540000000 1.0
C      1  0.4863640000000  0.5588920000000  0.3974680000000 1.0
C      1  0.4798070000000  0.6030450000000  0.4893120000000 1.0
C      1  0.4762720000000  0.5656710000000  0.4227110000000 1.0
C      1  0.4690480000000  0.6141330000000  0.5120030000000 1.0
C      1  0.4883450000000  0.5434100000000  0.6219320000000 1.0
C      1  0.4808820000000  0.4311570000000  0.5910510000000 1.0
C      1  0.4800360000000  0.3998970000000  0.4974800000000 1.0
C      1  0.4822670000000  0.4638370000000  0.4009990000000 1.0
C      1  0.5273730000000  0.5777270000000  0.4075010000000 1.0
C      1  0.5185440000000  0.6079820000000  0.5155190000000 1.0
C      1  0.5284750000000  0.5326430000000  0.6039960000000 1.0
C      1  0.5177330000000  0.4430030000000  0.5811500000000 1.0
C      1  0.5287640000000  0.3932900000000  0.4870670000000 1.0
C      1  0.5310020000000  0.4662230000000  0.3973990000000 1.0
C      1  0.5392210000000  0.5504720000000  0.5393540000000 1.0
C      1  0.5372940000000  0.5057220000000  0.5648820000000 1.0
C      1  0.5454660000000  0.4645080000000  0.5429530000000 1.0
C      1  0.5401170000000  0.4462780000000  0.4940930000000 1.0
C      1  0.5359860000000  0.4774430000000  0.4354330000000 1.0
C      1  0.5405670000000  0.5369080000000  0.4418890000000 1.0
C      1  0.4537120000000  0.5673170000000  0.5165180000000 1.0
C      1  0.4576060000000  0.4999110000000  0.5668020000000 1.0
C      1  0.4406890000000  0.4598130000000  0.5377800000000 1.0
C      1  0.4599970000000  0.4390030000000  0.4706670000000 1.0
C      1  0.4594710000000  0.4885710000000  0.4330910000000 1.0
C      1  0.4563930000000  0.5549350000000  0.4743920000000 1.0
C      1  0.5712840000000  0.4254750000000  0.5073460000000 1.0
C      1  0.5726960000000  0.4640150000000  0.4275620000000 1.0
C      1  0.5768870000000  0.5481270000000  0.4296510000000 1.0
C      1  0.5639860000000  0.5757440000000  0.5074220000000 1.0
C      1  0.5743660000000  0.5190900000000  0.5691140000000 1.0
C      1  0.5756130000000  0.4472470000000  0.5626290000000 1.0
C      1  0.4280170000000  0.4222120000000  0.4997030000000 1.0
C      1  0.4357290000000  0.4572810000000  0.4270710000000 1.0
C      1  0.4297780000000  0.5448730000000  0.4375150000000 1.0
C      1  0.4173770000000  0.5787570000000  0.5052850000000 1.0
C      1  0.4305470000000  0.5393500000000  0.5688740000000 1.0
C      1  0.4275770000000  0.4604250000000  0.5754380000000 1.0
C      1  0.4756560000000  0.4560360000000  0.5731540000000 1.0
C      1  0.4789040000000  0.4291900000000  0.5147630000000 1.0
C      1  0.4868330000000  0.4597730000000  0.4341160000000 1.0
C      1  0.4693000000000  0.5405900000000  0.4395530000000 1.0
C      1  0.4882710000000  0.5607510000000  0.4975220000000 1.0
C      1  0.4828180000000  0.5352490000000  0.5532360000000 1.0
C      1  0.5045780000000  0.4657440000000  0.5652370000000 1.0
C      1  0.5109930000000  0.4321840000000  0.5209890000000 1.0
C      1  0.5147850000000  0.4443160000000  0.4423500000000 1.0
C      1  0.5239000000000  0.5290950000000  0.4093950000000 1.0
C      1  0.5196990000000  0.5661150000000  0.4858080000000 1.0
C      1  0.5123380000000  0.5439910000000  0.5676970000000 1.0
C      1  0.5955410000000  0.4600990000000  0.5489120000000 1.0
C      1  0.5919090000000  0.4383210000000  0.4883800000000 1.0
C      1  0.5870800000000  0.4752230000000  0.4493430000000 1.0
C      1  0.5904200000000  0.5335630000000  0.4488390000000 1.0
C      1  0.5804900000000  0.5528920000000  0.5061810000000 1.0
C      1  0.5858400000000  0.5129100000000  0.5440520000000 1.0
C      1  0.4086630000000  0.4763970000000  0.5635650000000 1.0
C      1  0.4083320000000  0.4411680000000  0.4943080000000 1.0
C      1  0.4183650000000  0.4705280000000  0.4458440000000 1.0
C      1  0.4162310000000  0.5267270000000  0.4555800000000 1.0
C      1  0.4044540000000  0.5542860000000  0.5036140000000 1.0
C      1  0.4078550000000  0.5295070000000  0.5549790000000 1.0
C      1  0.4146940000000  0.5274030000000  0.4879240000000 1.0
C      1  0.4104750000000  0.5367980000000  0.5263540000000 1.0
C      1  0.4113760000000  0.4997180000000  0.5410270000000 1.0
C      1  0.4133640000000  0.4746520000000  0.4953960000000 1.0
C      1  0.4052550000000  0.4586270000000  0.4674810000000 1.0
C      1  0.4232990000000  0.4982300000000  0.4492900000000 1.0
C      1  0.5844120000000  0.5422730000000  0.4771600000000 1.0
C      1  0.5759990000000  0.5326910000000  0.5243010000000 1.0
C      1  0.5895870000000  0.4840720000000  0.5300620000000 1.0
C      1  0.5843090000000  0.4841540000000  0.4970230000000 1.0
C      1  0.5913160000000  0.4636980000000  0.4753020000000 1.0
C      1  0.5857810000000  0.5038630000000  0.4485280000000 1.0
C      1  0.4834780000000  0.5742240000000  0.5250580000000 1.0
C      1  0.4855700000000  0.5128850000000  0.5766130000000 1.0
C      1  0.4732470000000  0.4520440000000  0.5394730000000 1.0
C      1  0.4845680000000  0.4488710000000  0.4876140000000 1.0
C      1  0.4911340000000  0.4934460000000  0.4318820000000 1.0
C      1  0.4883630000000  0.5553570000000  0.4635280000000 1.0
C      1  0.5091710000000  0.5621080000000  0.5401170000000 1.0
C      1  0.5103200000000  0.4937390000000  0.5717500000000 1.0
C      1  0.5149120000000  0.4601610000000  0.5372250000000 1.0
C      1  0.5146910000000  0.4404150000000  0.4756440000000 1.0
C      1  0.5176280000000  0.4974750000000  0.4202140000000 1.0
C      1  0.5188220000000  0.5568840000000  0.4530950000000 1.0
C      1  0.4455430000000  0.4790960000000  0.4068000000000 1.0
C      1  0.4409790000000  0.5702300000000  0.4494760000000 1.0
C      1  0.4297040000000  0.5848350000000  0.5330470000000 1.0
C      1  0.4420360000000  0.5212480000000  0.5859200000000 1.0
C      1  0.4355100000000  0.4353500000000  0.5608190000000 1.0
C      1  0.4429120000000  0.4149430000000  0.4769630000000 1.0
C      1  0.5674530000000  0.4813310000000  0.4053960000000 1.0
C      1  0.5694680000000  0.5742470000000  0.4374300000000 1.0
C      1  0.5520420000000  0.5795800000000  0.5342400000000 1.0
C      1  0.5607540000000  0.4966940000000  0.5877820000000 1.0
C      1  0.5653510000000  0.4223450000000  0.5583760000000 1.0
C      1  0.5566520000000  0.4226050000000  0.4785070000000 1.0
C      1  0.4859750000000  0.4726970000000  0.4655560000000 1.0
C      1  0.4811770000000  0.5151430000000  0.4533540000000 1.0
C      1  0.4805040000000  0.5312090000000  0.4998550000000 1.0
C      1  0.4881480000000  0.5206610000000  0.5270360000000 1.0
C      1  0.4757350000000  0.4921310000000  0.5255620000000 1.0
C      1  0.4676150000000  0.4671930000000  0.5095530000000 1.0
C      1  0.5078780000000  0.4911580000000  0.4709120000000 1.0
C      1  0.4998940000000  0.5200550000000  0.4780520000000 1.0
C      1  0.5258840000000  0.5339500000000  0.4935550000000 1.0
C      1  0.5190480000000  0.5174490000000  0.5195430000000 1.0
C      1  0.5069610000000  0.4858440000000  0.5234630000000 1.0
C      1  0.5206480000000  0.4845350000000  0.4972860000000 1.0
C      1  0.5409260000000  0.4889460000000  0.4632230000000 1.0
C      1  0.5561540000000  0.5149450000000  0.4581560000000 1.0
C      1  0.5541090000000  0.5298310000000  0.4862690000000 1.0
C      1  0.5473090000000  0.5176120000000  0.5346360000000 1.0
C      1  0.5566680000000  0.4865750000000  0.5255530000000 1.0
C      1  0.5512410000000  0.4764230000000  0.4935550000000 1.0
C      1  0.4543460000000  0.4778940000000  0.4637550000000 1.0
C      1  0.4510400000000  0.5097900000000  0.4652460000000 1.0
C      1  0.4485100000000  0.5280970000000  0.4914200000000 1.0
C      1  0.4411940000000  0.5251130000000  0.5244940000000 1.0
C      1  0.4446830000000  0.4938550000000  0.5374450000000 1.0
C      1  0.4440870000000  0.4724750000000  0.4915010000000 1.0
C      1  0.4533650000000  0.4740280000000  0.5843860000000 1.0
C      1  0.4460280000000  0.4277660000000  0.5233830000000 1.0
C      1  0.4595950000000  0.4399250000000  0.4387030000000 1.0
C      1  0.4504970000000  0.5295020000000  0.4157760000000 1.0
C      1  0.4441630000000  0.5821000000000  0.4873740000000 1.0
C      1  0.4530150000000  0.5492570000000  0.5453310000000 1.0
C      1  0.5539290000000  0.4671660000000  0.5733450000000 1.0
C      1  0.5445070000000  0.4350240000000  0.5260160000000 1.0
C      1  0.5476310000000  0.4455200000000  0.4339940000000 1.0
C      1  0.5562670000000  0.5310400000000  0.4123030000000 1.0
C      1  0.5487000000000  0.5800380000000  0.4829980000000 1.0
C      1  0.5458330000000  0.5379020000000  0.5688600000000 1.0
C      1  0.4060290000000  0.5009140000000  0.5074700000000 1.0
C      1  0.5828390000000  0.5115570000000  0.4876580000000 1.0
END
