TITL C-3289334-2237-476 0.000354900703391519 125000 -189.261453518142 0 0 35 (C1) n - 1
REM
REM in /nfs/bkarasulu/CARBON/AIRSS/Generating-Clusters/AIREBO/with-SteepDescent/Higher-Symm/SD-CG/HFTN-CG
REM
REM
REM
REM
REM
REM ./C.cell (b20cbc046b6831c77cfcea5457e17084)
REM
REM compiler GCC version 9.2.1 20190827 (Red Hat 9.2.1-1)
REM options -cpp -mtune=generic -march=x86-64 -g -O0 -fpre-include=/usr/include/finclude/math-vector-fortran.h
REM seed 364767299 126181191 -354904936 1328954646 -261314784 -1755915910 -1528690988 -1603467716 1516743472 1964748979 -437660711 350009599 -1938185061 1222510664 28241161 -21289453 -100321634 -1780616643 -1959284576 -869649664 -1381920734 983001430 -650781446 -2115231493 -989533114 908280054 1144848486 147520259 671938575 20724141 -440683194 -1523531794 1128407219
REM
CELL 1.54180   50.00000   50.00000   50.00000   90.00000   90.00000   90.00000
LATT -1
SFAC C  
C      1  0.4719470000000  0.5282010000000  0.5578970000000 1.0
C      1  0.4722200000000  0.5185070000000  0.4475290000000 1.0
C      1  0.4461410000000  0.4735900000000  0.5752350000000 1.0
C      1  0.4771130000000  0.4650110000000  0.4399660000000 1.0
C      1  0.5398770000000  0.4543750000000  0.5777310000000 1.0
C      1  0.5496690000000  0.4740790000000  0.4319540000000 1.0
C      1  0.5302610000000  0.5227790000000  0.5539200000000 1.0
C      1  0.5138180000000  0.5375010000000  0.4430330000000 1.0
C      1  0.4843590000000  0.5492190000000  0.5052710000000 1.0
C      1  0.4616830000000  0.5248450000000  0.4982540000000 1.0
C      1  0.4667540000000  0.4942280000000  0.5122710000000 1.0
C      1  0.4862910000000  0.4754920000000  0.4985960000000 1.0
C      1  0.5129730000000  0.4762290000000  0.5083240000000 1.0
C      1  0.5322440000000  0.4927490000000  0.4918510000000 1.0
C      1  0.5374860000000  0.5249550000000  0.5015400000000 1.0
C      1  0.5144670000000  0.5490640000000  0.4947440000000 1.0
C      1  0.4845590000000  0.4729980000000  0.4171440000000 1.0
C      1  0.5219730000000  0.4694760000000  0.5674910000000 1.0
C      1  0.5275820000000  0.4869280000000  0.4368660000000 1.0
C      1  0.5211130000000  0.5147700000000  0.5759480000000 1.0
C      1  0.5149960000000  0.5280790000000  0.4197590000000 1.0
C      1  0.4816170000000  0.5186980000000  0.5791670000000 1.0
C      1  0.4788500000000  0.5118200000000  0.4245410000000 1.0
C      1  0.4683670000000  0.4830230000000  0.5670840000000 1.0
C      1  0.4860900000000  0.4762390000000  0.4668660000000 1.0
C      1  0.5134970000000  0.4813110000000  0.5399110000000 1.0
C      1  0.5153960000000  0.4919260000000  0.4640140000000 1.0
C      1  0.5222410000000  0.5105870000000  0.5260920000000 1.0
C      1  0.5123960000000  0.5244990000000  0.4713240000000 1.0
C      1  0.4855190000000  0.5251820000000  0.5292890000000 1.0
C      1  0.4771020000000  0.5068630000000  0.4758540000000 1.0
C      1  0.4831660000000  0.4936200000000  0.5412330000000 1.0
C      1  0.5072160000000  0.4964770000000  0.4148070000000 1.0
C      1  0.4991680000000  0.4900190000000  0.5776550000000 1.0
C      1  0.4995560000000  0.5131320000000  0.5007280000000 1.0
END
