TITL C-3289333-7213-756 -0.000305633113024552 125000 -621.281735679931 0 0 115 (C1) n - 1
REM
REM in /nfs/bkarasulu/CARBON/AIRSS/Generating-Clusters/AIREBO/with-SteepDescent/Higher-Symm/SD-CG/HFTN-CG
REM
REM
REM
REM
REM
REM ./C.cell (b20cbc046b6831c77cfcea5457e17084)
REM
REM compiler GCC version 9.2.1 20190827 (Red Hat 9.2.1-1)
REM options -cpp -mtune=generic -march=x86-64 -g -O0 -fpre-include=/usr/include/finclude/math-vector-fortran.h
REM seed -2090857904 1964674416 -732440256 -276576995 -1517648658 -1543657709 21660950 1338421042 -1091446747 -1700808986 -229925548 1225121840 1534097525 876129959 -183159230 1810750149 -63487620 -2010504727 -650376379 1802428634 733037734 -1081754980 -500258284 697548024 -1223974152 1785150602 923681350 184132292 -1692021270 468976771 -209512917 -125349815 370302394
REM
CELL 1.54180   50.00000   50.00000   50.00000   90.00000   90.00000   90.00000
LATT -1
SFAC C  
C      1  0.5215400000000  0.4365070000000  0.4757920000000 1.0
C      1  0.4365500000000  0.5132910000000  0.4863800000000 1.0
C      1  0.5353870000000  0.5472900000000  0.4829890000000 1.0
C      1  0.4706650000000  0.5323190000000  0.4514840000000 1.0
C      1  0.5409160000000  0.5197410000000  0.4545330000000 1.0
C      1  0.4841040000000  0.4610480000000  0.4569030000000 1.0
C      1  0.5338230000000  0.4254890000000  0.4460460000000 1.0
C      1  0.4107460000000  0.5092980000000  0.4429350000000 1.0
C      1  0.5497450000000  0.5523890000000  0.4526010000000 1.0
C      1  0.4745890000000  0.5299660000000  0.5903540000000 1.0
C      1  0.5187720000000  0.4926230000000  0.5846780000000 1.0
C      1  0.4887640000000  0.4872100000000  0.5792590000000 1.0
C      1  0.5177510000000  0.5319410000000  0.4226960000000 1.0
C      1  0.5246960000000  0.4652000000000  0.4249480000000 1.0
C      1  0.4541820000000  0.5021790000000  0.4255760000000 1.0
C      1  0.5749610000000  0.4866360000000  0.4364220000000 1.0
C      1  0.4516140000000  0.4450560000000  0.4372110000000 1.0
C      1  0.4796660000000  0.5702600000000  0.4427870000000 1.0
C      1  0.5648410000000  0.5606430000000  0.5358350000000 1.0
C      1  0.5164400000000  0.3937060000000  0.5281890000000 1.0
C      1  0.4078470000000  0.5367620000000  0.5338690000000 1.0
C      1  0.5075800000000  0.5260070000000  0.5268100000000 1.0
C      1  0.5168270000000  0.4965790000000  0.5268810000000 1.0
C      1  0.4882140000000  0.4847010000000  0.5167370000000 1.0
C      1  0.5372800000000  0.4654630000000  0.5059870000000 1.0
C      1  0.4586660000000  0.4855910000000  0.5047070000000 1.0
C      1  0.5072380000000  0.5434560000000  0.5016780000000 1.0
C      1  0.4366440000000  0.5735550000000  0.5066420000000 1.0
C      1  0.5780700000000  0.5238300000000  0.5029940000000 1.0
C      1  0.4842410000000  0.4146370000000  0.5024530000000 1.0
C      1  0.5631190000000  0.5122310000000  0.4294280000000 1.0
C      1  0.4817290000000  0.4436460000000  0.4274860000000 1.0
C      1  0.4583540000000  0.5533850000000  0.4274990000000 1.0
C      1  0.5705350000000  0.4441080000000  0.5005410000000 1.0
C      1  0.4243600000000  0.4653360000000  0.5079220000000 1.0
C      1  0.5144630000000  0.5844740000000  0.5039030000000 1.0
C      1  0.4346220000000  0.5274630000000  0.5155970000000 1.0
C      1  0.5602310000000  0.5530460000000  0.5030130000000 1.0
C      1  0.5186820000000  0.4154330000000  0.5021220000000 1.0
C      1  0.5501750000000  0.4795210000000  0.5813170000000 1.0
C      1  0.4730000000000  0.4586470000000  0.5888360000000 1.0
C      1  0.4740290000000  0.5605130000000  0.5815850000000 1.0
C      1  0.5758380000000  0.4831980000000  0.4669250000000 1.0
C      1  0.4566500000000  0.4459310000000  0.4701100000000 1.0
C      1  0.4767200000000  0.5657360000000  0.4720920000000 1.0
C      1  0.4735110000000  0.5629430000000  0.5509480000000 1.0
C      1  0.5642530000000  0.4807010000000  0.5534750000000 1.0
C      1  0.4646380000000  0.4457190000000  0.5583080000000 1.0
C      1  0.4321030000000  0.4937340000000  0.5208870000000 1.0
C      1  0.5371290000000  0.5719910000000  0.5197280000000 1.0
C      1  0.5417320000000  0.4350100000000  0.5125600000000 1.0
C      1  0.4593980000000  0.5394130000000  0.5308610000000 1.0
C      1  0.5533650000000  0.5083740000000  0.5419250000000 1.0
C      1  0.4912520000000  0.4395860000000  0.5428530000000 1.0
C      1  0.4681780000000  0.5206930000000  0.5582750000000 1.0
C      1  0.5358400000000  0.5156240000000  0.5679770000000 1.0
C      1  0.4812200000000  0.4926120000000  0.5467020000000 1.0
C      1  0.4562350000000  0.4770120000000  0.5584050000000 1.0
C      1  0.4965390000000  0.5383130000000  0.5518450000000 1.0
C      1  0.5314490000000  0.4754100000000  0.5462570000000 1.0
C      1  0.4623050000000  0.4377910000000  0.4982210000000 1.0
C      1  0.4669250000000  0.5715080000000  0.4997870000000 1.0
C      1  0.5755220000000  0.4925720000000  0.4947540000000 1.0
C      1  0.5254930000000  0.5573940000000  0.4336350000000 1.0
C      1  0.5445230000000  0.4464380000000  0.4323410000000 1.0
C      1  0.4305980000000  0.4907210000000  0.4352460000000 1.0
C      1  0.5286920000000  0.5139740000000  0.4857320000000 1.0
C      1  0.5036260000000  0.4640770000000  0.4845880000000 1.0
C      1  0.4701470000000  0.5161590000000  0.4819490000000 1.0
C      1  0.4185300000000  0.5630770000000  0.5240070000000 1.0
C      1  0.5724630000000  0.5298880000000  0.5326820000000 1.0
C      1  0.4923230000000  0.4107630000000  0.5315350000000 1.0
C      1  0.4756540000000  0.5398680000000  0.5024610000000 1.0
C      1  0.5459470000000  0.4980520000000  0.5103700000000 1.0
C      1  0.4889970000000  0.4527230000000  0.5131120000000 1.0
C      1  0.4391730000000  0.5051090000000  0.5670940000000 1.0
C      1  0.5225580000000  0.5431050000000  0.5680980000000 1.0
C      1  0.5176800000000  0.4469320000000  0.5556480000000 1.0
C      1  0.5335970000000  0.4766160000000  0.4745580000000 1.0
C      1  0.4646060000000  0.4847240000000  0.4715800000000 1.0
C      1  0.4986760000000  0.5406130000000  0.4688850000000 1.0
C      1  0.5381350000000  0.5182870000000  0.4100520000000 1.0
C      1  0.5035990000000  0.4558220000000  0.4094670000000 1.0
C      1  0.4568230000000  0.5252460000000  0.4114570000000 1.0
C      1  0.4384880000000  0.4428460000000  0.5159960000000 1.0
C      1  0.4883790000000  0.5875650000000  0.5139820000000 1.0
C      1  0.5826940000000  0.4668940000000  0.5111980000000 1.0
C      1  0.5407920000000  0.4298900000000  0.5430840000000 1.0
C      1  0.4176230000000  0.5099540000000  0.5465640000000 1.0
C      1  0.5372240000000  0.5645750000000  0.5531050000000 1.0
C      1  0.5081200000000  0.5738900000000  0.4487010000000 1.0
C      1  0.5700860000000  0.4559160000000  0.4472150000000 1.0
C      1  0.4334560000000  0.4661210000000  0.4553030000000 1.0
C      1  0.4996020000000  0.4140360000000  0.4627220000000 1.0
C      1  0.4160440000000  0.5248670000000  0.4650690000000 1.0
C      1  0.5777030000000  0.5553290000000  0.4414340000000 1.0
C      1  0.4357120000000  0.5688120000000  0.4217020000000 1.0
C      1  0.5844720000000  0.5348290000000  0.4279120000000 1.0
C      1  0.4894200000000  0.4154310000000  0.4397340000000 1.0
C      1  0.5548980000000  0.4431610000000  0.4749830000000 1.0
C      1  0.4262320000000  0.4817110000000  0.4824380000000 1.0
C      1  0.5171060000000  0.5752040000000  0.4764070000000 1.0
C      1  0.4563990000000  0.4882420000000  0.5910760000000 1.0
C      1  0.5017010000000  0.5478920000000  0.5911770000000 1.0
C      1  0.5248480000000  0.4598810000000  0.5825180000000 1.0
C      1  0.5870550000000  0.4695870000000  0.5386300000000 1.0
C      1  0.4412180000000  0.4333370000000  0.5424710000000 1.0
C      1  0.4818270000000  0.5894430000000  0.5406970000000 1.0
C      1  0.6111810000000  0.4653620000000  0.5508090000000 1.0
C      1  0.4264970000000  0.4129870000000  0.5533420000000 1.0
C      1  0.4812930000000  0.6119900000000  0.5560190000000 1.0
C      1  0.5077660000000  0.5139460000000  0.4495710000000 1.0
C      1  0.5133670000000  0.4804050000000  0.4493430000000 1.0
C      1  0.4767610000000  0.5004800000000  0.4458440000000 1.0
C      1  0.4985680000000  0.4981840000000  0.4872900000000 1.0
END
