TITL C-3289331-6719-378 -0.00230714707485308 125000 -855.275014114786 0 0 154 (C1) n - 1
REM
REM in /nfs/bkarasulu/CARBON/AIRSS/Generating-Clusters/AIREBO/with-SteepDescent/Higher-Symm/SD-CG/HFTN-CG
REM
REM
REM
REM
REM
REM ./C.cell (b20cbc046b6831c77cfcea5457e17084)
REM
REM compiler GCC version 9.2.1 20190827 (Red Hat 9.2.1-1)
REM options -cpp -mtune=generic -march=x86-64 -g -O0 -fpre-include=/usr/include/finclude/math-vector-fortran.h
REM seed 20929792 -182184234 281655212 91446522 322422409 -112794588 1054640309 1172853497 -839153770 -1932081124 -149779489 -1098191535 -1930745636 -1836557546 961516138 889370320 -510174009 1710228304 987673164 -1497242004 1964706243 490649770 1223000935 1038313931 -605563217 -1218783590 -1515745077 -128445949 -689273554 494993429 1038157327 -378832348 -629502623
REM
CELL 1.54180   50.00000   50.00000   50.00000   90.00000   90.00000   90.00000
LATT -1
SFAC C  
C      1  0.4752900000000  0.5026960000000  0.5235640000000 1.0
C      1  0.4936800000000  0.5305050000000  0.5184930000000 1.0
C      1  0.5279120000000  0.4967730000000  0.5226320000000 1.0
C      1  0.5055250000000  0.4713120000000  0.5199730000000 1.0
C      1  0.4778880000000  0.4989010000000  0.4918630000000 1.0
C      1  0.4984000000000  0.5257050000000  0.4867420000000 1.0
C      1  0.5271710000000  0.5091370000000  0.4942640000000 1.0
C      1  0.4950000000000  0.4714650000000  0.4916490000000 1.0
C      1  0.4981550000000  0.5229740000000  0.4536930000000 1.0
C      1  0.5195550000000  0.5008100000000  0.4637500000000 1.0
C      1  0.5005570000000  0.4760750000000  0.4613030000000 1.0
C      1  0.4821450000000  0.4971950000000  0.4501410000000 1.0
C      1  0.4892010000000  0.5283450000000  0.5508310000000 1.0
C      1  0.5210880000000  0.5181040000000  0.5448460000000 1.0
C      1  0.5071030000000  0.4684250000000  0.5538180000000 1.0
C      1  0.4767240000000  0.4821490000000  0.5470080000000 1.0
C      1  0.5938100000000  0.5401620000000  0.5102900000000 1.0
C      1  0.5490300000000  0.4071830000000  0.5095770000000 1.0
C      1  0.4090860000000  0.4547650000000  0.5090880000000 1.0
C      1  0.4533020000000  0.5958820000000  0.5092880000000 1.0
C      1  0.6047320000000  0.5527190000000  0.4872960000000 1.0
C      1  0.5619380000000  0.4000070000000  0.4855970000000 1.0
C      1  0.3970000000000  0.4448310000000  0.4857030000000 1.0
C      1  0.4389930000000  0.6042930000000  0.4862730000000 1.0
C      1  0.4472560000000  0.5587260000000  0.4837080000000 1.0
C      1  0.5584810000000  0.5519200000000  0.4810420000000 1.0
C      1  0.5596510000000  0.4485330000000  0.4843790000000 1.0
C      1  0.4435880000000  0.4440810000000  0.4778550000000 1.0
C      1  0.4531470000000  0.5569540000000  0.5171490000000 1.0
C      1  0.5547930000000  0.5465220000000  0.5141270000000 1.0
C      1  0.5490580000000  0.4462390000000  0.5162240000000 1.0
C      1  0.4481940000000  0.4493780000000  0.5110890000000 1.0
C      1  0.4599920000000  0.5430780000000  0.5832150000000 1.0
C      1  0.5372520000000  0.5408470000000  0.5778170000000 1.0
C      1  0.5321110000000  0.4619100000000  0.5842190000000 1.0
C      1  0.4610870000000  0.4643690000000  0.5792190000000 1.0
C      1  0.4585440000000  0.5403590000000  0.4173270000000 1.0
C      1  0.5332620000000  0.5413530000000  0.4064570000000 1.0
C      1  0.5394900000000  0.4595500000000  0.4156220000000 1.0
C      1  0.4684190000000  0.4552170000000  0.4080160000000 1.0
C      1  0.4980120000000  0.5718750000000  0.5674020000000 1.0
C      1  0.5683310000000  0.5038900000000  0.5722170000000 1.0
C      1  0.5010440000000  0.4161440000000  0.5706190000000 1.0
C      1  0.4237530000000  0.4968080000000  0.5675650000000 1.0
C      1  0.5073440000000  0.5779360000000  0.4322900000000 1.0
C      1  0.5709200000000  0.4927800000000  0.4294690000000 1.0
C      1  0.4913870000000  0.4295240000000  0.4282320000000 1.0
C      1  0.4237470000000  0.5086710000000  0.4348610000000 1.0
C      1  0.5593750000000  0.5475760000000  0.4264910000000 1.0
C      1  0.5397020000000  0.4306530000000  0.4297660000000 1.0
C      1  0.4412450000000  0.4523760000000  0.4271920000000 1.0
C      1  0.4551900000000  0.5696610000000  0.4279690000000 1.0
C      1  0.5595620000000  0.5509700000000  0.5624950000000 1.0
C      1  0.5565410000000  0.4453310000000  0.5708460000000 1.0
C      1  0.4465660000000  0.4399040000000  0.5621650000000 1.0
C      1  0.4499220000000  0.5637460000000  0.5643070000000 1.0
C      1  0.5778260000000  0.4475500000000  0.5439560000000 1.0
C      1  0.4514030000000  0.4182310000000  0.5358860000000 1.0
C      1  0.4241620000000  0.5539960000000  0.5443290000000 1.0
C      1  0.5537910000000  0.5763810000000  0.5406130000000 1.0
C      1  0.5672410000000  0.4288600000000  0.4426680000000 1.0
C      1  0.4166780000000  0.4358230000000  0.4398300000000 1.0
C      1  0.4293970000000  0.5704600000000  0.4443470000000 1.0
C      1  0.5832620000000  0.5630820000000  0.4420170000000 1.0
C      1  0.5107140000000  0.5287950000000  0.5948400000000 1.0
C      1  0.5249640000000  0.4883350000000  0.5892630000000 1.0
C      1  0.4856100000000  0.4666590000000  0.5918770000000 1.0
C      1  0.4683960000000  0.5135010000000  0.5882070000000 1.0
C      1  0.5083720000000  0.5308250000000  0.4136180000000 1.0
C      1  0.5276230000000  0.4863210000000  0.4178370000000 1.0
C      1  0.4923210000000  0.4679540000000  0.4147220000000 1.0
C      1  0.4713030000000  0.5145540000000  0.4160700000000 1.0
C      1  0.4533550000000  0.4714070000000  0.4600950000000 1.0
C      1  0.4687000000000  0.5490460000000  0.4596060000000 1.0
C      1  0.5439000000000  0.5320350000000  0.4600440000000 1.0
C      1  0.5329830000000  0.4527810000000  0.4636180000000 1.0
C      1  0.4669990000000  0.4571270000000  0.5327040000000 1.0
C      1  0.4590320000000  0.5359640000000  0.5371130000000 1.0
C      1  0.5319080000000  0.5440190000000  0.5326970000000 1.0
C      1  0.5376820000000  0.4623660000000  0.5402050000000 1.0
C      1  0.4914970000000  0.5440160000000  0.5768380000000 1.0
C      1  0.5376080000000  0.5089490000000  0.5731200000000 1.0
C      1  0.5056490000000  0.4465490000000  0.5798150000000 1.0
C      1  0.4547250000000  0.4928630000000  0.5706200000000 1.0
C      1  0.4931140000000  0.5479810000000  0.4359220000000 1.0
C      1  0.5415250000000  0.5030530000000  0.4417580000000 1.0
C      1  0.5084440000000  0.4558940000000  0.4402590000000 1.0
C      1  0.4538910000000  0.4955730000000  0.4361510000000 1.0
C      1  0.4782080000000  0.5732550000000  0.5043960000000 1.0
C      1  0.5684950000000  0.5180660000000  0.5050670000000 1.0
C      1  0.5232010000000  0.4290270000000  0.5061170000000 1.0
C      1  0.4337110000000  0.4779250000000  0.5053630000000 1.0
C      1  0.4913520000000  0.5583360000000  0.4814320000000 1.0
C      1  0.5561430000000  0.5070600000000  0.4786290000000 1.0
C      1  0.5097230000000  0.4434050000000  0.4820440000000 1.0
C      1  0.4492150000000  0.4933350000000  0.4821340000000 1.0
C      1  0.4228380000000  0.4329040000000  0.5269220000000 1.0
C      1  0.4366750000000  0.5827420000000  0.5321410000000 1.0
C      1  0.5810760000000  0.5610070000000  0.5303600000000 1.0
C      1  0.5672890000000  0.4206730000000  0.5302340000000 1.0
C      1  0.4161730000000  0.4370070000000  0.4668820000000 1.0
C      1  0.4327070000000  0.5822480000000  0.4699640000000 1.0
C      1  0.5848940000000  0.5595420000000  0.4688150000000 1.0
C      1  0.5679770000000  0.4221550000000  0.4698110000000 1.0
C      1  0.4962080000000  0.5610840000000  0.5289440000000 1.0
C      1  0.5613980000000  0.4941760000000  0.5282010000000 1.0
C      1  0.5016190000000  0.4385800000000  0.5283730000000 1.0
C      1  0.4441190000000  0.4980740000000  0.5304290000000 1.0
C      1  0.5170510000000  0.5717860000000  0.4702170000000 1.0
C      1  0.5709800000000  0.4831310000000  0.4680140000000 1.0
C      1  0.4882390000000  0.4267420000000  0.4678680000000 1.0
C      1  0.4322070000000  0.5181270000000  0.4726440000000 1.0
C      1  0.5122850000000  0.6041220000000  0.5145940000000 1.0
C      1  0.6018910000000  0.4969520000000  0.5113400000000 1.0
C      1  0.4929540000000  0.3952170000000  0.5149550000000 1.0
C      1  0.3984480000000  0.5099520000000  0.5176520000000 1.0
C      1  0.5058680000000  0.6143070000000  0.4875300000000 1.0
C      1  0.6082610000000  0.4886020000000  0.4804960000000 1.0
C      1  0.5025850000000  0.3842360000000  0.4889320000000 1.0
C      1  0.3902170000000  0.5037370000000  0.4912490000000 1.0
C      1  0.5584980000000  0.4630130000000  0.4436040000000 1.0
C      1  0.4680630000000  0.4439990000000  0.4463620000000 1.0
C      1  0.4399910000000  0.5373110000000  0.4456640000000 1.0
C      1  0.5313400000000  0.5572010000000  0.4430220000000 1.0
C      1  0.5636460000000  0.4755800000000  0.5569940000000 1.0
C      1  0.4780380000000  0.4318480000000  0.5520600000000 1.0
C      1  0.4333500000000  0.5226620000000  0.5508580000000 1.0
C      1  0.5223120000000  0.5708290000000  0.5484310000000 1.0
C      1  0.4642660000000  0.4221220000000  0.4868790000000 1.0
C      1  0.4261380000000  0.5381380000000  0.4948830000000 1.0
C      1  0.5393580000000  0.5746960000000  0.4904800000000 1.0
C      1  0.5847410000000  0.4666050000000  0.4920540000000 1.0
C      1  0.4677090000000  0.4086070000000  0.5113050000000 1.0
C      1  0.4126960000000  0.5346240000000  0.5188280000000 1.0
C      1  0.5364030000000  0.5883140000000  0.5145820000000 1.0
C      1  0.5848240000000  0.4700440000000  0.5232070000000 1.0
C      1  0.4119570000000  0.4889140000000  0.5366680000000 1.0
C      1  0.4931390000000  0.5944450000000  0.5347440000000 1.0
C      1  0.5892040000000  0.5108700000000  0.5385180000000 1.0
C      1  0.5121560000000  0.4094680000000  0.5391800000000 1.0
C      1  0.4075590000000  0.4976090000000  0.4626440000000 1.0
C      1  0.4985700000000  0.5972340000000  0.4596320000000 1.0
C      1  0.5942450000000  0.5014570000000  0.4526410000000 1.0
C      1  0.5065230000000  0.4007170000000  0.4654480000000 1.0
C      1  0.4757890000000  0.5859330000000  0.4367680000000 1.0
C      1  0.5808980000000  0.5245490000000  0.4313420000000 1.0
C      1  0.5161170000000  0.4166490000000  0.4396050000000 1.0
C      1  0.4195690000000  0.4756620000000  0.4391360000000 1.0
C      1  0.4719040000000  0.5840150000000  0.5587640000000 1.0
C      1  0.5804750000000  0.5294040000000  0.5612970000000 1.0
C      1  0.5335260000000  0.4212950000000  0.5636350000000 1.0
C      1  0.4237580000000  0.4648520000000  0.5584890000000 1.0
C      1  0.4991980000000  0.4998100000000  0.4090880000000 1.0
C      1  0.4964420000000  0.4981210000000  0.5994280000000 1.0
END
