TITL C-3289327-5623-108 0.000922083010012727 125000 -359.609428676015 0 0 62 (C1) n - 1
REM
REM in /nfs/bkarasulu/CARBON/AIRSS/Generating-Clusters/AIREBO/with-SteepDescent/Higher-Symm/SD-CG/HFTN-CG
REM
REM
REM
REM
REM
REM ./C.cell (b20cbc046b6831c77cfcea5457e17084)
REM
REM compiler GCC version 9.2.1 20190827 (Red Hat 9.2.1-1)
REM options -cpp -mtune=generic -march=x86-64 -g -O0 -fpre-include=/usr/include/finclude/math-vector-fortran.h
REM seed 1316253427 122721310 -2029579300 1173289439 596149811 1319978328 1026017491 -1707430618 279870643 1723962674 -1738971617 638446726 445271096 2049289205 -460002922 -618838183 1132489383 -1985125607 -810789943 951759299 972224779 1701370152 -290069141 1333147526 1144756807 1143641767 1801590307 -511581796 -622951096 1195680190 97004609 -2079923257 1891903260
REM
CELL 1.54180   50.00000   50.00000   50.00000   90.00000   90.00000   90.00000
LATT -1
SFAC C  
C      1  0.5554870000000  0.5090950000000  0.4423000000000 1.0
C      1  0.5308870000000  0.4452500000000  0.5089260000000 1.0
C      1  0.5513780000000  0.5449460000000  0.5562910000000 1.0
C      1  0.5639430000000  0.5192610000000  0.5154200000000 1.0
C      1  0.5752080000000  0.5059410000000  0.4870410000000 1.0
C      1  0.5613830000000  0.4841580000000  0.5080850000000 1.0
C      1  0.4728860000000  0.5189230000000  0.5207190000000 1.0
C      1  0.4829410000000  0.5116780000000  0.4660710000000 1.0
C      1  0.4916430000000  0.4818520000000  0.4908850000000 1.0
C      1  0.5438380000000  0.5402780000000  0.5054410000000 1.0
C      1  0.5496720000000  0.4907730000000  0.4703480000000 1.0
C      1  0.5528640000000  0.4774810000000  0.5378510000000 1.0
C      1  0.5008090000000  0.4790410000000  0.4299900000000 1.0
C      1  0.5126860000000  0.4553320000000  0.5602570000000 1.0
C      1  0.5020140000000  0.5638080000000  0.5098660000000 1.0
C      1  0.4371100000000  0.4613110000000  0.5005000000000 1.0
C      1  0.4411310000000  0.5225370000000  0.5549400000000 1.0
C      1  0.4400220000000  0.5101920000000  0.4532650000000 1.0
C      1  0.5634100000000  0.5279080000000  0.4659210000000 1.0
C      1  0.5507490000000  0.4585170000000  0.4938070000000 1.0
C      1  0.5640380000000  0.5218040000000  0.5457560000000 1.0
C      1  0.5116300000000  0.5409950000000  0.4382660000000 1.0
C      1  0.4826900000000  0.4459750000000  0.5055220000000 1.0
C      1  0.4923550000000  0.5245590000000  0.5650920000000 1.0
C      1  0.4349570000000  0.5406180000000  0.5351990000000 1.0
C      1  0.4561010000000  0.4878760000000  0.4426760000000 1.0
C      1  0.4409830000000  0.4512060000000  0.5256370000000 1.0
C      1  0.5213910000000  0.5066450000000  0.5655750000000 1.0
C      1  0.5179590000000  0.5527090000000  0.4643910000000 1.0
C      1  0.5142470000000  0.4446220000000  0.4639210000000 1.0
C      1  0.4869880000000  0.5268890000000  0.4375760000000 1.0
C      1  0.4706400000000  0.4531230000000  0.5365750000000 1.0
C      1  0.4581970000000  0.5471390000000  0.5146830000000 1.0
C      1  0.4687860000000  0.5108450000000  0.5500500000000 1.0
C      1  0.4571810000000  0.5302440000000  0.4661160000000 1.0
C      1  0.4635480000000  0.4634230000000  0.4862640000000 1.0
C      1  0.5135490000000  0.4806330000000  0.5157530000000 1.0
C      1  0.5039000000000  0.5135360000000  0.5125030000000 1.0
C      1  0.5099420000000  0.4957070000000  0.4651040000000 1.0
C      1  0.4932930000000  0.4568860000000  0.4470340000000 1.0
C      1  0.5023540000000  0.4805850000000  0.5680470000000 1.0
C      1  0.4954400000000  0.5594460000000  0.4817770000000 1.0
C      1  0.5178290000000  0.5402650000000  0.5206670000000 1.0
C      1  0.5263960000000  0.4937840000000  0.4380120000000 1.0
C      1  0.5277940000000  0.4601230000000  0.5355700000000 1.0
C      1  0.4787570000000  0.5696360000000  0.5237590000000 1.0
C      1  0.4793500000000  0.4983650000000  0.4285430000000 1.0
C      1  0.4911460000000  0.4382240000000  0.5565140000000 1.0
C      1  0.4135110000000  0.5127200000000  0.4498160000000 1.0
C      1  0.4134900000000  0.4706260000000  0.4905700000000 1.0
C      1  0.4268750000000  0.5166030000000  0.5774220000000 1.0
C      1  0.5075170000000  0.4401680000000  0.4935070000000 1.0
C      1  0.5203270000000  0.5376260000000  0.5515950000000 1.0
C      1  0.5316670000000  0.5248000000000  0.4262940000000 1.0
C      1  0.5501930000000  0.4990760000000  0.5551590000000 1.0
C      1  0.5437510000000  0.5451830000000  0.4773910000000 1.0
C      1  0.5412810000000  0.4590210000000  0.4651920000000 1.0
C      1  0.4762520000000  0.4814960000000  0.5546260000000 1.0
C      1  0.4661590000000  0.5511390000000  0.4831660000000 1.0
C      1  0.4655110000000  0.4626660000000  0.4557780000000 1.0
C      1  0.5273350000000  0.4992010000000  0.4924640000000 1.0
C      1  0.4683780000000  0.5034200000000  0.4949240000000 1.0
END
