TITL C-3289320-4661-242 0.00290506383447394 125000 -1025.88350100014 0 0 189 (C1) n - 1
REM
REM in /nfs/bkarasulu/CARBON/AIRSS/Generating-Clusters/AIREBO/with-SteepDescent/Higher-Symm/SD-CG/HFTN-CG
REM
REM
REM
REM
REM
REM ./C.cell (b20cbc046b6831c77cfcea5457e17084)
REM
REM compiler GCC version 9.2.1 20190827 (Red Hat 9.2.1-1)
REM options -cpp -mtune=generic -march=x86-64 -g -O0 -fpre-include=/usr/include/finclude/math-vector-fortran.h
REM seed 1323517286 850491386 -885642966 723586056 -1687096785 -1438576494 547285655 199096451 1499975542 1466843336 1279445268 2056981034 -424438125 1841751040 -1313873921 1843849226 1989958265 -761890814 -700119875 177821528 -1802561484 -1116380546 38980586 176888818 -1636696639 -1398070710 1529133826 -26900552 -1876833928 1367126918 1882975087 828767180 -2021764531
REM
CELL 1.54180   50.00000   50.00000   50.00000   90.00000   90.00000   90.00000
LATT -1
SFAC C  
C      1  0.5054700000000  0.4902910000000  0.3919280000000 1.0
C      1  0.3853060000000  0.4830960000000  0.4876450000000 1.0
C      1  0.4824670000000  0.4915130000000  0.6103140000000 1.0
C      1  0.6123800000000  0.4895960000000  0.5182530000000 1.0
C      1  0.4764290000000  0.4912500000000  0.3975160000000 1.0
C      1  0.6048540000000  0.4851590000000  0.4906650000000 1.0
C      1  0.5073080000000  0.4811620000000  0.6044740000000 1.0
C      1  0.3949640000000  0.4712260000000  0.5106630000000 1.0
C      1  0.4537140000000  0.4423440000000  0.4327940000000 1.0
C      1  0.4302540000000  0.4418740000000  0.5365860000000 1.0
C      1  0.5383170000000  0.4424670000000  0.5750340000000 1.0
C      1  0.5741020000000  0.4506160000000  0.4573860000000 1.0
C      1  0.5491690000000  0.4466520000000  0.4343400000000 1.0
C      1  0.5605800000000  0.4451730000000  0.5491360000000 1.0
C      1  0.4514460000000  0.4451570000000  0.5613600000000 1.0
C      1  0.4315150000000  0.4404490000000  0.4557160000000 1.0
C      1  0.4300750000000  0.4737360000000  0.5434400000000 1.0
C      1  0.5527110000000  0.4715840000000  0.5778270000000 1.0
C      1  0.5734320000000  0.4780460000000  0.4373000000000 1.0
C      1  0.4399760000000  0.4728730000000  0.4306490000000 1.0
C      1  0.5741540000000  0.4745830000000  0.5522740000000 1.0
C      1  0.4487190000000  0.4766340000000  0.5704010000000 1.0
C      1  0.4295010000000  0.4869160000000  0.4562980000000 1.0
C      1  0.5506180000000  0.4745730000000  0.4160910000000 1.0
C      1  0.4355160000000  0.5565130000000  0.5835880000000 1.0
C      1  0.5890110000000  0.5618790000000  0.5661630000000 1.0
C      1  0.5663970000000  0.5489280000000  0.4170580000000 1.0
C      1  0.4115840000000  0.5514350000000  0.4408510000000 1.0
C      1  0.5614960000000  0.5538000000000  0.5779230000000 1.0
C      1  0.4244700000000  0.5700670000000  0.5588670000000 1.0
C      1  0.4364740000000  0.5571320000000  0.4227700000000 1.0
C      1  0.5850420000000  0.5449810000000  0.4387640000000 1.0
C      1  0.5853680000000  0.4258340000000  0.4683190000000 1.0
C      1  0.4702470000000  0.4145000000000  0.4223990000000 1.0
C      1  0.4238370000000  0.4182910000000  0.5129420000000 1.0
C      1  0.5253740000000  0.4188880000000  0.5849190000000 1.0
C      1  0.4161990000000  0.4183490000000  0.4609970000000 1.0
C      1  0.5335440000000  0.4240410000000  0.4198490000000 1.0
C      1  0.5772410000000  0.4236250000000  0.5312410000000 1.0
C      1  0.4644130000000  0.4252770000000  0.5804650000000 1.0
C      1  0.4851090000000  0.5981180000000  0.4635590000000 1.0
C      1  0.4560440000000  0.6039330000000  0.5111460000000 1.0
C      1  0.5234950000000  0.5999530000000  0.5371180000000 1.0
C      1  0.5365580000000  0.6000010000000  0.4857770000000 1.0
C      1  0.5179920000000  0.5906220000000  0.4615290000000 1.0
C      1  0.5315050000000  0.5907580000000  0.5114600000000 1.0
C      1  0.4962440000000  0.5969870000000  0.5423960000000 1.0
C      1  0.4660890000000  0.5878730000000  0.4901540000000 1.0
C      1  0.4243150000000  0.5828110000000  0.4878800000000 1.0
C      1  0.4912370000000  0.5842840000000  0.5843220000000 1.0
C      1  0.5852100000000  0.5814540000000  0.5183950000000 1.0
C      1  0.5154830000000  0.5823820000000  0.4146660000000 1.0
C      1  0.5806220000000  0.5833100000000  0.4872660000000 1.0
C      1  0.5222770000000  0.5846390000000  0.5860460000000 1.0
C      1  0.4179550000000  0.5833290000000  0.5186190000000 1.0
C      1  0.4861010000000  0.5818700000000  0.4122670000000 1.0
C      1  0.4810700000000  0.5576940000000  0.3947360000000 1.0
C      1  0.4031810000000  0.5551970000000  0.5225570000000 1.0
C      1  0.5162100000000  0.5588740000000  0.6016070000000 1.0
C      1  0.5964930000000  0.5565310000000  0.4899670000000 1.0
C      1  0.5117450000000  0.5525140000000  0.4037560000000 1.0
C      1  0.5987560000000  0.5516040000000  0.5217240000000 1.0
C      1  0.4852510000000  0.5532180000000  0.5971810000000 1.0
C      1  0.4073930000000  0.5562060000000  0.4917410000000 1.0
C      1  0.3999000000000  0.4827320000000  0.5360730000000 1.0
C      1  0.5371260000000  0.4872910000000  0.6003930000000 1.0
C      1  0.5999280000000  0.4802240000000  0.4571570000000 1.0
C      1  0.4426130000000  0.4830340000000  0.3987480000000 1.0
C      1  0.6038540000000  0.4796760000000  0.5483910000000 1.0
C      1  0.4532430000000  0.4816330000000  0.6007010000000 1.0
C      1  0.3999580000000  0.4749330000000  0.4606810000000 1.0
C      1  0.5376850000000  0.4802860000000  0.3876560000000 1.0
C      1  0.4192890000000  0.5254030000000  0.5194210000000 1.0
C      1  0.5155100000000  0.5283670000000  0.5895450000000 1.0
C      1  0.5851910000000  0.5251940000000  0.4876800000000 1.0
C      1  0.4803680000000  0.5288440000000  0.4102860000000 1.0
C      1  0.5838580000000  0.5208640000000  0.5213780000000 1.0
C      1  0.4821580000000  0.5218650000000  0.5843700000000 1.0
C      1  0.4154960000000  0.5261990000000  0.4850000000000 1.0
C      1  0.5125030000000  0.5227210000000  0.4201230000000 1.0
C      1  0.4631430000000  0.5643190000000  0.5659550000000 1.0
C      1  0.5594310000000  0.5529010000000  0.5282060000000 1.0
C      1  0.5388360000000  0.5577770000000  0.4352560000000 1.0
C      1  0.4355650000000  0.5537760000000  0.4636240000000 1.0
C      1  0.5349650000000  0.5541650000000  0.5596010000000 1.0
C      1  0.4429470000000  0.5555110000000  0.5326830000000 1.0
C      1  0.4649330000000  0.5570470000000  0.4369370000000 1.0
C      1  0.5666640000000  0.5544840000000  0.4636030000000 1.0
C      1  0.5155300000000  0.4763610000000  0.5303240000000 1.0
C      1  0.5323540000000  0.4786810000000  0.4815240000000 1.0
C      1  0.4843830000000  0.4781080000000  0.4549600000000 1.0
C      1  0.4627000000000  0.4791800000000  0.5210770000000 1.0
C      1  0.4869860000000  0.4873620000000  0.5394340000000 1.0
C      1  0.4773570000000  0.4879570000000  0.4851790000000 1.0
C      1  0.5161320000000  0.4917050000000  0.4561380000000 1.0
C      1  0.5385350000000  0.4937680000000  0.5113640000000 1.0
C      1  0.4628330000000  0.4390070000000  0.4831270000000 1.0
C      1  0.4837500000000  0.4372480000000  0.5392030000000 1.0
C      1  0.5403680000000  0.4370040000000  0.5141160000000 1.0
C      1  0.5200140000000  0.4363860000000  0.4596800000000 1.0
C      1  0.5338150000000  0.4466930000000  0.4847950000000 1.0
C      1  0.5151670000000  0.4423080000000  0.5309940000000 1.0
C      1  0.4640980000000  0.4473020000000  0.5158240000000 1.0
C      1  0.4874130000000  0.4434620000000  0.4600600000000 1.0
C      1  0.6078710000000  0.5118140000000  0.5439060000000 1.0
C      1  0.5326130000000  0.5114230000000  0.3872140000000 1.0
C      1  0.3961220000000  0.5075260000000  0.4660680000000 1.0
C      1  0.4561130000000  0.5137560000000  0.6046700000000 1.0
C      1  0.3994270000000  0.5101000000000  0.5423930000000 1.0
C      1  0.4515660000000  0.5143780000000  0.3993910000000 1.0
C      1  0.6051240000000  0.5103230000000  0.4678000000000 1.0
C      1  0.5422850000000  0.5142360000000  0.5987040000000 1.0
C      1  0.4813650000000  0.4102200000000  0.4542500000000 1.0
C      1  0.4553830000000  0.4150270000000  0.5221530000000 1.0
C      1  0.5142110000000  0.4129940000000  0.5474380000000 1.0
C      1  0.5475230000000  0.4159810000000  0.4802810000000 1.0
C      1  0.5279370000000  0.4051210000000  0.4541580000000 1.0
C      1  0.5526610000000  0.4063880000000  0.5186690000000 1.0
C      1  0.4751470000000  0.4054680000000  0.5477160000000 1.0
C      1  0.4532680000000  0.4100480000000  0.4734030000000 1.0
C      1  0.4819690000000  0.5120340000000  0.4539730000000 1.0
C      1  0.4679340000000  0.5123500000000  0.5150590000000 1.0
C      1  0.5114590000000  0.5215380000000  0.5370420000000 1.0
C      1  0.5321420000000  0.5186440000000  0.4810380000000 1.0
C      1  0.5102760000000  0.5247220000000  0.4600070000000 1.0
C      1  0.5255720000000  0.5247430000000  0.5106490000000 1.0
C      1  0.4819240000000  0.5197130000000  0.5428950000000 1.0
C      1  0.4712360000000  0.5213570000000  0.4833800000000 1.0
C      1  0.5682140000000  0.5773980000000  0.5463340000000 1.0
C      1  0.5386080000000  0.5916420000000  0.4345030000000 1.0
C      1  0.4474800000000  0.5847030000000  0.4630380000000 1.0
C      1  0.4693390000000  0.5963710000000  0.5612320000000 1.0
C      1  0.4446300000000  0.5888870000000  0.5389700000000 1.0
C      1  0.4668540000000  0.5908840000000  0.4357620000000 1.0
C      1  0.5577550000000  0.5872800000000  0.4624140000000 1.0
C      1  0.5407420000000  0.5876650000000  0.5604420000000 1.0
C      1  0.5135470000000  0.3875730000000  0.5350110000000 1.0
C      1  0.5343640000000  0.3869700000000  0.4888990000000 1.0
C      1  0.4906020000000  0.3790460000000  0.4657100000000 1.0
C      1  0.4696840000000  0.3883810000000  0.5121470000000 1.0
C      1  0.4864250000000  0.3774280000000  0.5335710000000 1.0
C      1  0.4708900000000  0.3873370000000  0.4852700000000 1.0
C      1  0.5180470000000  0.3773070000000  0.4666210000000 1.0
C      1  0.5340600000000  0.3834090000000  0.5172780000000 1.0
C      1  0.4315500000000  0.5296540000000  0.5900930000000 1.0
C      1  0.5882320000000  0.5279230000000  0.5640750000000 1.0
C      1  0.5482370000000  0.5269520000000  0.4028550000000 1.0
C      1  0.4044530000000  0.5204990000000  0.4357310000000 1.0
C      1  0.5653810000000  0.5263950000000  0.5896590000000 1.0
C      1  0.4104030000000  0.5179810000000  0.5706990000000 1.0
C      1  0.4284420000000  0.5291310000000  0.4130030000000 1.0
C      1  0.6078910000000  0.5320600000000  0.4458240000000 1.0
C      1  0.5327790000000  0.5568670000000  0.5118410000000 1.0
C      1  0.5148950000000  0.5564220000000  0.4593600000000 1.0
C      1  0.4631220000000  0.5545410000000  0.4840540000000 1.0
C      1  0.4821240000000  0.5662910000000  0.5382550000000 1.0
C      1  0.4675020000000  0.5463120000000  0.5167480000000 1.0
C      1  0.4841280000000  0.5648870000000  0.4606260000000 1.0
C      1  0.5394050000000  0.5577310000000  0.4813010000000 1.0
C      1  0.5131390000000  0.5613870000000  0.5381080000000 1.0
C      1  0.4620050000000  0.5340240000000  0.5604650000000 1.0
C      1  0.5608580000000  0.5271200000000  0.5456290000000 1.0
C      1  0.5424310000000  0.5239790000000  0.4362270000000 1.0
C      1  0.4323390000000  0.5208060000000  0.4559310000000 1.0
C      1  0.5316210000000  0.5203380000000  0.5606990000000 1.0
C      1  0.4334540000000  0.5293940000000  0.5501670000000 1.0
C      1  0.4602170000000  0.5248940000000  0.4368370000000 1.0
C      1  0.5597750000000  0.5212170000000  0.4654370000000 1.0
C      1  0.4161230000000  0.4499370000000  0.5061750000000 1.0
C      1  0.5132420000000  0.4658120000000  0.5765850000000 1.0
C      1  0.5773080000000  0.4671010000000  0.4873340000000 1.0
C      1  0.4865430000000  0.4487750000000  0.4264840000000 1.0
C      1  0.5646900000000  0.4583550000000  0.5171680000000 1.0
C      1  0.4830230000000  0.4571790000000  0.5652310000000 1.0
C      1  0.4358730000000  0.4568650000000  0.4825070000000 1.0
C      1  0.5170250000000  0.4577090000000  0.4333610000000 1.0
C      1  0.5209270000000  0.4898510000000  0.4225270000000 1.0
C      1  0.4453290000000  0.4859300000000  0.4859390000000 1.0
C      1  0.4797010000000  0.4906530000000  0.5705120000000 1.0
C      1  0.5671130000000  0.4913450000000  0.5235560000000 1.0
C      1  0.4716070000000  0.4770400000000  0.4249640000000 1.0
C      1  0.5618580000000  0.4874170000000  0.4670330000000 1.0
C      1  0.5307540000000  0.4875500000000  0.5586180000000 1.0
C      1  0.4325860000000  0.4942390000000  0.5163460000000 1.0
C      1  0.5767100000000  0.4170590000000  0.4976900000000 1.0
C      1  0.5052720000000  0.4136640000000  0.4302940000000 1.0
C      1  0.4243980000000  0.4044910000000  0.4851830000000 1.0
C      1  0.4946010000000  0.4144360000000  0.5741330000000 1.0
C      1  0.5030620000000  0.4789390000000  0.4987940000000 1.0
END
