TITL C-3289333-7213-263 0.00154682141006014 125000 -823.680701031978 0 0 136 (C1) n - 1
REM
REM in /nfs/bkarasulu/CARBON/AIRSS/Generating-Clusters/AIREBO/with-SteepDescent/Higher-Symm/SD-CG/HFTN-CG
REM
REM
REM
REM
REM
REM ./C.cell (b20cbc046b6831c77cfcea5457e17084)
REM
REM compiler GCC version 9.2.1 20190827 (Red Hat 9.2.1-1)
REM options -cpp -mtune=generic -march=x86-64 -g -O0 -fpre-include=/usr/include/finclude/math-vector-fortran.h
REM seed -1451574266 -625658520 271601771 -1833719621 -951049399 1306085218 1364031680 -188767552 -1823671421 -903037996 -760008057 -491016011 -374410661 -875921158 1520844121 439251664 1903774372 -507298526 -1795239253 -168794207 -2077687545 -497864392 -694751306 -381829300 -662468845 -1207709256 1159080374 -1630424186 -236506439 -1935488357 -1078521306 -290391773 -1713203223
REM
CELL 1.54180   50.00000   50.00000   50.00000   90.00000   90.00000   90.00000
LATT -1
SFAC C  
C      1  0.6063650000000  0.5311760000000  0.4934580000000 1.0
C      1  0.5321640000000  0.4859000000000  0.6068210000000 1.0
C      1  0.4770140000000  0.6006090000000  0.5396480000000 1.0
C      1  0.3932780000000  0.4729300000000  0.4853380000000 1.0
C      1  0.6027060000000  0.4700950000000  0.5162980000000 1.0
C      1  0.3981570000000  0.5280410000000  0.5098890000000 1.0
C      1  0.4781700000000  0.5076780000000  0.6084080000000 1.0
C      1  0.5421070000000  0.5274320000000  0.3880590000000 1.0
C      1  0.4643760000000  0.4768100000000  0.3979830000000 1.0
C      1  0.5105110000000  0.3992350000000  0.5327780000000 1.0
C      1  0.4766390000000  0.4037220000000  0.4610520000000 1.0
C      1  0.5321690000000  0.5911280000000  0.4512270000000 1.0
C      1  0.5325780000000  0.6046510000000  0.4726130000000 1.0
C      1  0.4941990000000  0.5266900000000  0.6092560000000 1.0
C      1  0.6041230000000  0.4882990000000  0.5330630000000 1.0
C      1  0.4614690000000  0.3953760000000  0.4830180000000 1.0
C      1  0.4629310000000  0.6015100000000  0.5164490000000 1.0
C      1  0.5259780000000  0.3954960000000  0.5104940000000 1.0
C      1  0.5170470000000  0.4666190000000  0.6026260000000 1.0
C      1  0.5295870000000  0.5420540000000  0.4108920000000 1.0
C      1  0.4765610000000  0.4556980000000  0.4126470000000 1.0
C      1  0.3962380000000  0.5107120000000  0.5276060000000 1.0
C      1  0.3920300000000  0.4912310000000  0.4685940000000 1.0
C      1  0.6108870000000  0.5125530000000  0.4774150000000 1.0
C      1  0.4882340000000  0.4102950000000  0.5450270000000 1.0
C      1  0.4106560000000  0.5388990000000  0.4845900000000 1.0
C      1  0.5258490000000  0.5029250000000  0.4051360000000 1.0
C      1  0.5016850000000  0.5932630000000  0.5492300000000 1.0
C      1  0.4989590000000  0.5832510000000  0.4737210000000 1.0
C      1  0.5043500000000  0.4082310000000  0.4506970000000 1.0
C      1  0.5923510000000  0.4615390000000  0.4897630000000 1.0
C      1  0.4023740000000  0.4609110000000  0.5110280000000 1.0
C      1  0.5925360000000  0.5406900000000  0.5183890000000 1.0
C      1  0.4558680000000  0.5007850000000  0.4091040000000 1.0
C      1  0.5441420000000  0.5121560000000  0.5985380000000 1.0
C      1  0.4663300000000  0.4833200000000  0.5957050000000 1.0
C      1  0.4057790000000  0.4840290000000  0.5389490000000 1.0
C      1  0.5404000000000  0.4075530000000  0.4900280000000 1.0
C      1  0.5018670000000  0.5264530000000  0.4135300000000 1.0
C      1  0.5939810000000  0.5141710000000  0.5433700000000 1.0
C      1  0.5963810000000  0.4884420000000  0.4654230000000 1.0
C      1  0.4064730000000  0.5153190000000  0.4570370000000 1.0
C      1  0.4555070000000  0.5886390000000  0.4935300000000 1.0
C      1  0.4516780000000  0.4088250000000  0.5050680000000 1.0
C      1  0.5211460000000  0.5891040000000  0.4989210000000 1.0
C      1  0.5041890000000  0.4546450000000  0.4162490000000 1.0
C      1  0.5197130000000  0.5390130000000  0.5978990000000 1.0
C      1  0.4906310000000  0.4560490000000  0.5924250000000 1.0
C      1  0.5588190000000  0.5422770000000  0.5199910000000 1.0
C      1  0.5398150000000  0.5197900000000  0.5674180000000 1.0
C      1  0.5133370000000  0.5644700000000  0.5421530000000 1.0
C      1  0.4341230000000  0.4635680000000  0.5187420000000 1.0
C      1  0.5585370000000  0.4594270000000  0.4867940000000 1.0
C      1  0.4425800000000  0.5371460000000  0.4858490000000 1.0
C      1  0.4634530000000  0.4855030000000  0.5642070000000 1.0
C      1  0.5337210000000  0.4992720000000  0.4356200000000 1.0
C      1  0.4601110000000  0.5102130000000  0.4413580000000 1.0
C      1  0.4813260000000  0.4400900000000  0.5374120000000 1.0
C      1  0.5112160000000  0.4379820000000  0.4635050000000 1.0
C      1  0.4934550000000  0.5522090000000  0.4609620000000 1.0
C      1  0.5307660000000  0.5612170000000  0.5158930000000 1.0
C      1  0.5180590000000  0.5416690000000  0.5656450000000 1.0
C      1  0.5617980000000  0.5190360000000  0.5413460000000 1.0
C      1  0.4583950000000  0.4397190000000  0.5175990000000 1.0
C      1  0.4685470000000  0.5591830000000  0.4830490000000 1.0
C      1  0.5324610000000  0.4375020000000  0.4842920000000 1.0
C      1  0.4856130000000  0.4634800000000  0.5619640000000 1.0
C      1  0.4863150000000  0.5270040000000  0.4437750000000 1.0
C      1  0.5105680000000  0.4599100000000  0.4435360000000 1.0
C      1  0.4381810000000  0.4830310000000  0.5427680000000 1.0
C      1  0.4366140000000  0.5151690000000  0.4655390000000 1.0
C      1  0.5676980000000  0.4900220000000  0.4773250000000 1.0
C      1  0.4593390000000  0.4102280000000  0.5539100000000 1.0
C      1  0.4092970000000  0.5553280000000  0.4581120000000 1.0
C      1  0.5446070000000  0.4745580000000  0.4061330000000 1.0
C      1  0.5302810000000  0.5996340000000  0.5508000000000 1.0
C      1  0.4738850000000  0.5853130000000  0.4508430000000 1.0
C      1  0.5327770000000  0.4122650000000  0.4406610000000 1.0
C      1  0.5886400000000  0.4495310000000  0.4606690000000 1.0
C      1  0.4048950000000  0.4431530000000  0.5369240000000 1.0
C      1  0.5854340000000  0.5640660000000  0.5403810000000 1.0
C      1  0.4511170000000  0.5305910000000  0.4081360000000 1.0
C      1  0.5595970000000  0.5401680000000  0.5955530000000 1.0
C      1  0.4514140000000  0.4569340000000  0.6000100000000 1.0
C      1  0.4120910000000  0.4586570000000  0.5606970000000 1.0
C      1  0.5520350000000  0.4108900000000  0.4617880000000 1.0
C      1  0.4746590000000  0.5460640000000  0.4109300000000 1.0
C      1  0.5928470000000  0.5416790000000  0.5583400000000 1.0
C      1  0.5892650000000  0.4704090000000  0.4392550000000 1.0
C      1  0.4071740000000  0.5381170000000  0.4344830000000 1.0
C      1  0.4489360000000  0.5885200000000  0.4643550000000 1.0
C      1  0.4403830000000  0.4074750000000  0.5328850000000 1.0
C      1  0.5437470000000  0.5979820000000  0.5227610000000 1.0
C      1  0.5297950000000  0.4500690000000  0.4047220000000 1.0
C      1  0.5420470000000  0.5631520000000  0.5892480000000 1.0
C      1  0.4714070000000  0.4321680000000  0.6004690000000 1.0
C      1  0.4494310000000  0.4687920000000  0.4918010000000 1.0
C      1  0.4549710000000  0.4769280000000  0.4460750000000 1.0
C      1  0.4774230000000  0.4360550000000  0.4601600000000 1.0
C      1  0.5475290000000  0.5338250000000  0.4921590000000 1.0
C      1  0.4509110000000  0.5266320000000  0.5149400000000 1.0
C      1  0.5498500000000  0.4710960000000  0.5149700000000 1.0
C      1  0.5475980000000  0.5200260000000  0.4473190000000 1.0
C      1  0.4728660000000  0.5144600000000  0.5552300000000 1.0
C      1  0.5318630000000  0.4943580000000  0.5509910000000 1.0
C      1  0.5255510000000  0.5613260000000  0.4542980000000 1.0
C      1  0.4896540000000  0.5485720000000  0.5291330000000 1.0
C      1  0.5076400000000  0.4562140000000  0.5295430000000 1.0
C      1  0.4645090000000  0.4442780000000  0.4855140000000 1.0
C      1  0.4649610000000  0.4532580000000  0.4380180000000 1.0
C      1  0.4474250000000  0.4868300000000  0.4720060000000 1.0
C      1  0.5261460000000  0.5524550000000  0.4838360000000 1.0
C      1  0.5275420000000  0.4532760000000  0.5112880000000 1.0
C      1  0.4728870000000  0.5448230000000  0.5102330000000 1.0
C      1  0.5406440000000  0.5443460000000  0.4361650000000 1.0
C      1  0.5125940000000  0.4763170000000  0.5506840000000 1.0
C      1  0.4913150000000  0.5329340000000  0.5528810000000 1.0
C      1  0.5557450000000  0.5150890000000  0.4737400000000 1.0
C      1  0.5507910000000  0.4918180000000  0.5300310000000 1.0
C      1  0.4515610000000  0.5104380000000  0.5356020000000 1.0
C      1  0.4516000000000  0.4244240000000  0.5772020000000 1.0
C      1  0.4751630000000  0.5703320000000  0.4261720000000 1.0
C      1  0.5764540000000  0.4245860000000  0.4589810000000 1.0
C      1  0.5666210000000  0.4734650000000  0.4235250000000 1.0
C      1  0.4243280000000  0.5379900000000  0.4127350000000 1.0
C      1  0.5855180000000  0.5415390000000  0.5852600000000 1.0
C      1  0.4308620000000  0.4491360000000  0.5780540000000 1.0
C      1  0.5385040000000  0.4242840000000  0.4149210000000 1.0
C      1  0.5472040000000  0.5818180000000  0.5697120000000 1.0
C      1  0.4231580000000  0.5796480000000  0.4575820000000 1.0
C      1  0.4140330000000  0.4168380000000  0.5359230000000 1.0
C      1  0.5643970000000  0.5814270000000  0.5419830000000 1.0
C      1  0.5172220000000  0.4847000000000  0.4518790000000 1.0
C      1  0.4863620000000  0.4868720000000  0.4982550000000 1.0
C      1  0.5048780000000  0.4953590000000  0.4734640000000 1.0
C      1  0.5065470000000  0.5112690000000  0.5015660000000 1.0
END
