TITL C-3289321-8710-270 -0.00170577708413669 125000 -631.502742473927 0 0 114 (C1) n - 1
REM
REM in /nfs/bkarasulu/CARBON/AIRSS/Generating-Clusters/AIREBO/with-SteepDescent/Higher-Symm/SD-CG/HFTN-CG
REM
REM
REM
REM
REM
REM ./C.cell (b20cbc046b6831c77cfcea5457e17084)
REM
REM compiler GCC version 9.2.1 20190827 (Red Hat 9.2.1-1)
REM options -cpp -mtune=generic -march=x86-64 -g -O0 -fpre-include=/usr/include/finclude/math-vector-fortran.h
REM seed 846321315 -82366239 1422176136 2006203197 1509814045 885226495 1985930211 1461790393 -1533622399 1960540895 640597523 1723367938 -792361728 1638422760 1724068957 60393021 -112860158 -2005137338 1591616798 1485478784 550941337 503404044 68345752 1912013748 -1722849625 -199587910 1711526881 528372317 1264098347 347352790 1103887796 -408304646 1402270027
REM
CELL 1.54180   50.00000   50.00000   50.00000   90.00000   90.00000   90.00000
LATT -1
SFAC C  
C      1  0.4833500000000  0.5876940000000  0.4804920000000 1.0
C      1  0.4841430000000  0.5809700000000  0.5197920000000 1.0
C      1  0.5279070000000  0.5683900000000  0.4971230000000 1.0
C      1  0.4804280000000  0.4215180000000  0.5271950000000 1.0
C      1  0.4953940000000  0.4262650000000  0.4717570000000 1.0
C      1  0.5334850000000  0.4155760000000  0.4996760000000 1.0
C      1  0.5132870000000  0.4253270000000  0.5183270000000 1.0
C      1  0.5202770000000  0.4129470000000  0.4719510000000 1.0
C      1  0.4637890000000  0.4325140000000  0.5065600000000 1.0
C      1  0.5103700000000  0.5767870000000  0.4725690000000 1.0
C      1  0.5155850000000  0.5820900000000  0.5255960000000 1.0
C      1  0.4576210000000  0.5755670000000  0.4991200000000 1.0
C      1  0.5551590000000  0.4612200000000  0.5741190000000 1.0
C      1  0.5456930000000  0.4621540000000  0.4170780000000 1.0
C      1  0.4123030000000  0.4558390000000  0.5292690000000 1.0
C      1  0.5521930000000  0.5370930000000  0.4229100000000 1.0
C      1  0.5453860000000  0.5359800000000  0.5855670000000 1.0
C      1  0.4134740000000  0.5440340000000  0.4749870000000 1.0
C      1  0.4516560000000  0.5384700000000  0.4172970000000 1.0
C      1  0.4665830000000  0.5328520000000  0.5882020000000 1.0
C      1  0.5869710000000  0.5351160000000  0.4942160000000 1.0
C      1  0.4538620000000  0.4617120000000  0.5750440000000 1.0
C      1  0.4652920000000  0.4681390000000  0.4135510000000 1.0
C      1  0.5854800000000  0.4622830000000  0.5090960000000 1.0
C      1  0.4577590000000  0.4847510000000  0.4927550000000 1.0
C      1  0.5092940000000  0.4858770000000  0.5299310000000 1.0
C      1  0.5210590000000  0.4834260000000  0.4761630000000 1.0
C      1  0.4559400000000  0.5127670000000  0.5085170000000 1.0
C      1  0.5101290000000  0.5116050000000  0.4737910000000 1.0
C      1  0.5114760000000  0.5196570000000  0.5266800000000 1.0
C      1  0.5395580000000  0.5159330000000  0.5078140000000 1.0
C      1  0.4785340000000  0.5221570000000  0.4738080000000 1.0
C      1  0.4781370000000  0.5142790000000  0.5342810000000 1.0
C      1  0.5433440000000  0.4851130000000  0.4969020000000 1.0
C      1  0.4814320000000  0.4819640000000  0.5443430000000 1.0
C      1  0.4690040000000  0.4915940000000  0.4621590000000 1.0
C      1  0.4752820000000  0.5067800000000  0.4127870000000 1.0
C      1  0.4554130000000  0.5081990000000  0.5589770000000 1.0
C      1  0.5711290000000  0.5060580000000  0.5163560000000 1.0
C      1  0.4787640000000  0.4928530000000  0.5764450000000 1.0
C      1  0.4553340000000  0.5009010000000  0.4337800000000 1.0
C      1  0.5740910000000  0.4946990000000  0.4860020000000 1.0
C      1  0.5271000000000  0.4882700000000  0.5655510000000 1.0
C      1  0.5477060000000  0.4881960000000  0.4468640000000 1.0
C      1  0.4207330000000  0.4948300000000  0.4816630000000 1.0
C      1  0.5260150000000  0.5093780000000  0.4333940000000 1.0
C      1  0.5475860000000  0.5108910000000  0.5548450000000 1.0
C      1  0.4238530000000  0.5032860000000  0.5145660000000 1.0
C      1  0.5675680000000  0.5372940000000  0.5597210000000 1.0
C      1  0.5200120000000  0.5358960000000  0.4129760000000 1.0
C      1  0.4291030000000  0.5301690000000  0.5350620000000 1.0
C      1  0.5682070000000  0.4617080000000  0.4429070000000 1.0
C      1  0.5220560000000  0.4602680000000  0.5820010000000 1.0
C      1  0.4313830000000  0.4708890000000  0.4661540000000 1.0
C      1  0.4410240000000  0.4720390000000  0.4370940000000 1.0
C      1  0.4880610000000  0.4609780000000  0.5791380000000 1.0
C      1  0.5744860000000  0.4624140000000  0.4765020000000 1.0
C      1  0.4399110000000  0.5337480000000  0.5671200000000 1.0
C      1  0.4860780000000  0.5355640000000  0.4154320000000 1.0
C      1  0.5756800000000  0.5366240000000  0.5266460000000 1.0
C      1  0.5173030000000  0.5501110000000  0.5762600000000 1.0
C      1  0.5579270000000  0.5530690000000  0.4489340000000 1.0
C      1  0.4138600000000  0.5643540000000  0.4547790000000 1.0
C      1  0.5170170000000  0.4489900000000  0.4266410000000 1.0
C      1  0.5676640000000  0.4392960000000  0.5587220000000 1.0
C      1  0.4179280000000  0.4347570000000  0.5478970000000 1.0
C      1  0.4899680000000  0.4517090000000  0.4259160000000 1.0
C      1  0.4446540000000  0.4383730000000  0.5578030000000 1.0
C      1  0.5705370000000  0.4438380000000  0.5309610000000 1.0
C      1  0.4901510000000  0.5510810000000  0.5769540000000 1.0
C      1  0.4368160000000  0.5591590000000  0.4391180000000 1.0
C      1  0.5740520000000  0.5559460000000  0.4733350000000 1.0
C      1  0.4841370000000  0.5482550000000  0.4430890000000 1.0
C      1  0.4645320000000  0.5630160000000  0.5361130000000 1.0
C      1  0.5576870000000  0.5575690000000  0.5095020000000 1.0
C      1  0.4839960000000  0.4431600000000  0.5531870000000 1.0
C      1  0.4698240000000  0.4396910000000  0.4666700000000 1.0
C      1  0.5590250000000  0.4371530000000  0.4932820000000 1.0
C      1  0.5137420000000  0.4382560000000  0.5466790000000 1.0
C      1  0.5414380000000  0.4343050000000  0.4660730000000 1.0
C      1  0.4437270000000  0.4459850000000  0.4826370000000 1.0
C      1  0.5080040000000  0.5565950000000  0.4541030000000 1.0
C      1  0.5388410000000  0.5618860000000  0.5346460000000 1.0
C      1  0.4435130000000  0.5506040000000  0.5173940000000 1.0
C      1  0.4388110000000  0.4632580000000  0.5111380000000 1.0
C      1  0.5304080000000  0.4637470000000  0.5430790000000 1.0
C      1  0.5302650000000  0.4597790000000  0.4535270000000 1.0
C      1  0.4441860000000  0.5369460000000  0.4876740000000 1.0
C      1  0.5291610000000  0.5339780000000  0.4566570000000 1.0
C      1  0.5290260000000  0.5377660000000  0.5494560000000 1.0
C      1  0.5483720000000  0.5366980000000  0.4845820000000 1.0
C      1  0.4568930000000  0.5418570000000  0.4564970000000 1.0
C      1  0.4767280000000  0.5437020000000  0.5512640000000 1.0
C      1  0.5460130000000  0.4604910000000  0.5143080000000 1.0
C      1  0.4600100000000  0.4592790000000  0.5358070000000 1.0
C      1  0.4767350000000  0.4616670000000  0.4510020000000 1.0
C      1  0.5660550000000  0.4843230000000  0.5586480000000 1.0
C      1  0.5217090000000  0.4858850000000  0.4127430000000 1.0
C      1  0.4192460000000  0.4829890000000  0.5395440000000 1.0
C      1  0.5647300000000  0.5144830000000  0.4417980000000 1.0
C      1  0.5227660000000  0.5120100000000  0.5861720000000 1.0
C      1  0.4184720000000  0.5173480000000  0.4631460000000 1.0
C      1  0.4307130000000  0.5197590000000  0.4364910000000 1.0
C      1  0.4949300000000  0.5143630000000  0.5917940000000 1.0
C      1  0.5806580000000  0.5175410000000  0.4657950000000 1.0
C      1  0.4390780000000  0.4832100000000  0.5599840000000 1.0
C      1  0.4935020000000  0.4849400000000  0.4043630000000 1.0
C      1  0.5796690000000  0.4825760000000  0.5332840000000 1.0
C      1  0.5000950000000  0.5509410000000  0.5197020000000 1.0
C      1  0.4801820000000  0.5541250000000  0.4854320000000 1.0
C      1  0.5022400000000  0.4578470000000  0.4813500000000 1.0
C      1  0.5051130000000  0.4579740000000  0.5131550000000 1.0
C      1  0.4765950000000  0.4611660000000  0.4995660000000 1.0
C      1  0.5093640000000  0.5406010000000  0.4907310000000 1.0
END
