TITL C-3289334-2237-68 0.000947586234379145 125000 -571.857713965605 0 0 109 (C1) n - 1
REM
REM in /nfs/bkarasulu/CARBON/AIRSS/Generating-Clusters/AIREBO/with-SteepDescent/Higher-Symm/SD-CG/HFTN-CG
REM
REM
REM
REM
REM
REM ./C.cell (b20cbc046b6831c77cfcea5457e17084)
REM
REM compiler GCC version 9.2.1 20190827 (Red Hat 9.2.1-1)
REM options -cpp -mtune=generic -march=x86-64 -g -O0 -fpre-include=/usr/include/finclude/math-vector-fortran.h
REM seed -1674171072 1145434903 1667001770 562890004 -641572490 -1200285179 694949703 -1332705056 -896609981 -160801176 810309492 -1245376679 -766259365 893148899 1449725183 130679208 1174797520 57991821 1002610259 416047392 1848784937 -492290777 -1455500968 -2089598177 -1403091084 -1408983276 1658497434 904626872 448515556 -1817725145 -1802405074 -83783535 768936883
REM
CELL 1.54180   50.00000   50.00000   50.00000   90.00000   90.00000   90.00000
LATT -1
SFAC C  
C      1  0.4783630000000  0.5656740000000  0.4505990000000 1.0
C      1  0.4826080000000  0.4410800000000  0.4942080000000 1.0
C      1  0.5542470000000  0.4317260000000  0.5472870000000 1.0
C      1  0.5444060000000  0.4734940000000  0.5699500000000 1.0
C      1  0.4635090000000  0.4696030000000  0.4744600000000 1.0
C      1  0.5081700000000  0.5694070000000  0.4563480000000 1.0
C      1  0.5338430000000  0.5194460000000  0.4701980000000 1.0
C      1  0.5361970000000  0.5435810000000  0.5611040000000 1.0
C      1  0.4341850000000  0.4681260000000  0.5459660000000 1.0
C      1  0.4403710000000  0.5413060000000  0.4629260000000 1.0
C      1  0.4516820000000  0.5000040000000  0.5151330000000 1.0
C      1  0.5725170000000  0.4687840000000  0.4831000000000 1.0
C      1  0.4828640000000  0.5418270000000  0.5460640000000 1.0
C      1  0.5681250000000  0.5522610000000  0.5541590000000 1.0
C      1  0.5214490000000  0.4638280000000  0.4270100000000 1.0
C      1  0.5761360000000  0.5523450000000  0.4924950000000 1.0
C      1  0.5271690000000  0.5195030000000  0.5402370000000 1.0
C      1  0.5345110000000  0.5483930000000  0.4608860000000 1.0
C      1  0.4704650000000  0.4441390000000  0.4556950000000 1.0
C      1  0.4721640000000  0.5419210000000  0.4275910000000 1.0
C      1  0.4623420000000  0.4624770000000  0.5076910000000 1.0
C      1  0.4716300000000  0.5227730000000  0.5060330000000 1.0
C      1  0.6021930000000  0.5105770000000  0.5080300000000 1.0
C      1  0.4658660000000  0.5569700000000  0.4776470000000 1.0
C      1  0.4894000000000  0.5456660000000  0.4972920000000 1.0
C      1  0.4816940000000  0.4291680000000  0.5638290000000 1.0
C      1  0.4251190000000  0.4896760000000  0.4537990000000 1.0
C      1  0.5390970000000  0.4365230000000  0.5177240000000 1.0
C      1  0.4207860000000  0.5221970000000  0.5268150000000 1.0
C      1  0.5397370000000  0.4454300000000  0.5668520000000 1.0
C      1  0.5764800000000  0.4482930000000  0.5099240000000 1.0
C      1  0.5135090000000  0.4098480000000  0.4664010000000 1.0
C      1  0.4369210000000  0.5028470000000  0.4315980000000 1.0
C      1  0.4746650000000  0.4731060000000  0.5337570000000 1.0
C      1  0.3858610000000  0.5507690000000  0.5017100000000 1.0
C      1  0.4987100000000  0.5320740000000  0.4456430000000 1.0
C      1  0.4798710000000  0.5036330000000  0.5782700000000 1.0
C      1  0.4768730000000  0.5125600000000  0.5469200000000 1.0
C      1  0.4142910000000  0.4677820000000  0.4965300000000 1.0
C      1  0.4107380000000  0.5442610000000  0.5056280000000 1.0
C      1  0.4382630000000  0.4893020000000  0.4856320000000 1.0
C      1  0.5151360000000  0.5292210000000  0.5039020000000 1.0
C      1  0.5106850000000  0.4934600000000  0.4322760000000 1.0
C      1  0.4366830000000  0.5512660000000  0.5345010000000 1.0
C      1  0.4846120000000  0.4339720000000  0.5247310000000 1.0
C      1  0.5175690000000  0.3988970000000  0.4912830000000 1.0
C      1  0.5108680000000  0.5854990000000  0.4827180000000 1.0
C      1  0.5103660000000  0.4431710000000  0.5590290000000 1.0
C      1  0.4848780000000  0.4764020000000  0.4181550000000 1.0
C      1  0.5111860000000  0.4397280000000  0.4570670000000 1.0
C      1  0.4401970000000  0.5583490000000  0.5625250000000 1.0
C      1  0.5524940000000  0.4848650000000  0.5427650000000 1.0
C      1  0.4532360000000  0.4244460000000  0.5143140000000 1.0
C      1  0.5499890000000  0.4686970000000  0.5161110000000 1.0
C      1  0.5451050000000  0.4884750000000  0.4617730000000 1.0
C      1  0.4370470000000  0.4402360000000  0.4606040000000 1.0
C      1  0.4442430000000  0.5300640000000  0.4350120000000 1.0
C      1  0.4729790000000  0.4981380000000  0.4679070000000 1.0
C      1  0.4577340000000  0.5694210000000  0.5147650000000 1.0
C      1  0.4442490000000  0.5081010000000  0.5469860000000 1.0
C      1  0.4687200000000  0.5636340000000  0.5549660000000 1.0
C      1  0.4890690000000  0.5024320000000  0.3982090000000 1.0
C      1  0.5375790000000  0.4553160000000  0.4625550000000 1.0
C      1  0.4351160000000  0.5568040000000  0.4927290000000 1.0
C      1  0.5811670000000  0.5517000000000  0.5235730000000 1.0
C      1  0.5216860000000  0.4885580000000  0.5795040000000 1.0
C      1  0.5227230000000  0.5359100000000  0.5879450000000 1.0
C      1  0.5039260000000  0.5048480000000  0.4632670000000 1.0
C      1  0.5362430000000  0.5892920000000  0.4919010000000 1.0
C      1  0.5297980000000  0.5199320000000  0.4238380000000 1.0
C      1  0.5507570000000  0.4589750000000  0.4317820000000 1.0
C      1  0.5429320000000  0.5654490000000  0.5355160000000 1.0
C      1  0.4542790000000  0.4875870000000  0.4148890000000 1.0
C      1  0.4897320000000  0.5762190000000  0.5053350000000 1.0
C      1  0.5877690000000  0.5257740000000  0.4805030000000 1.0
C      1  0.4337860000000  0.4508900000000  0.5172620000000 1.0
C      1  0.5133540000000  0.5774040000000  0.5282570000000 1.0
C      1  0.4915480000000  0.4480540000000  0.4321330000000 1.0
C      1  0.5565810000000  0.5106080000000  0.4386420000000 1.0
C      1  0.5058930000000  0.4857480000000  0.4913320000000 1.0
C      1  0.5522290000000  0.4417410000000  0.4867810000000 1.0
C      1  0.5583640000000  0.5625390000000  0.4679150000000 1.0
C      1  0.5090740000000  0.5124160000000  0.5896670000000 1.0
C      1  0.4191250000000  0.4611080000000  0.4649710000000 1.0
C      1  0.5529510000000  0.5732940000000  0.5059970000000 1.0
C      1  0.5018590000000  0.4570090000000  0.4803990000000 1.0
C      1  0.5185540000000  0.4101480000000  0.5172330000000 1.0
C      1  0.4528840000000  0.4853120000000  0.5685750000000 1.0
C      1  0.5574190000000  0.5284980000000  0.5309100000000 1.0
C      1  0.5221910000000  0.5521580000000  0.4303770000000 1.0
C      1  0.4917160000000  0.4988600000000  0.5195430000000 1.0
C      1  0.4534450000000  0.5190580000000  0.4800490000000 1.0
C      1  0.5739900000000  0.4977640000000  0.4940010000000 1.0
C      1  0.4719540000000  0.5890410000000  0.5386190000000 1.0
C      1  0.4631060000000  0.4544070000000  0.5587330000000 1.0
C      1  0.4579980000000  0.4233690000000  0.4805140000000 1.0
C      1  0.5788890000000  0.4948400000000  0.5275310000000 1.0
C      1  0.4983460000000  0.5256970000000  0.4122480000000 1.0
C      1  0.4982700000000  0.4097420000000  0.5412280000000 1.0
C      1  0.4209270000000  0.4883090000000  0.5216500000000 1.0
C      1  0.5362890000000  0.4845850000000  0.4947810000000 1.0
C      1  0.5728750000000  0.4703750000000  0.4513810000000 1.0
C      1  0.5117120000000  0.4544390000000  0.5269740000000 1.0
C      1  0.4985980000000  0.4741950000000  0.5590880000000 1.0
C      1  0.5193600000000  0.4867800000000  0.5352710000000 1.0
C      1  0.5084280000000  0.5455400000000  0.5324090000000 1.0
C      1  0.5463630000000  0.5160740000000  0.5016300000000 1.0
C      1  0.5810590000000  0.5211680000000  0.4485780000000 1.0
C      1  0.4830830000000  0.4716070000000  0.5892490000000 1.0
END
