TITL C-3289324-3781-10 -207.804853585418 125000 -833.556548403855 0 0 147 (C1) n - 1
REM
REM in /nfs/bkarasulu/CARBON/AIRSS/Generating-Clusters/AIREBO/with-SteepDescent/Higher-Symm/SD-CG/HFTN-CG
REM
REM
REM
REM
REM
REM ./C.cell (b20cbc046b6831c77cfcea5457e17084)
REM
REM compiler GCC version 9.2.1 20190827 (Red Hat 9.2.1-1)
REM options -cpp -mtune=generic -march=x86-64 -g -O0 -fpre-include=/usr/include/finclude/math-vector-fortran.h
REM seed 616528645 309681481 2050034420 -1235076683 -1319982609 -142919236 252836417 1144741166 342077205 135869377 -1692981663 947919327 460891142 1588859211 423040728 442132725 -898549139 -467104240 -1348837438 749870208 1111519457 -412088145 586843932 -1060722606 -989949379 869387178 -1651282030 1507263158 458879220 808703301 -1558870851 41030030 -1586602324
REM
CELL 1.54180   50.00000   50.00000   50.00000   90.00000   90.00000   90.00000
LATT -1
SFAC C  
C      1  0.4009480000000  0.4747650000000  0.4918370000000 1.0
C      1  0.3971630000000  0.4946440000000  0.4720650000000 1.0
C      1  0.3908200000000  0.5204570000000  0.4823910000000 1.0
C      1  0.3981450000000  0.5276560000000  0.5108240000000 1.0
C      1  0.4080770000000  0.5193030000000  0.5370380000000 1.0
C      1  0.4100080000000  0.4919520000000  0.5421900000000 1.0
C      1  0.4012770000000  0.4746400000000  0.5225240000000 1.0
C      1  0.4779300000000  0.4413980000000  0.5029520000000 1.0
C      1  0.4785830000000  0.4602190000000  0.4577970000000 1.0
C      1  0.4978140000000  0.4997070000000  0.4148900000000 1.0
C      1  0.4871050000000  0.5533690000000  0.4649140000000 1.0
C      1  0.4791250000000  0.5575430000000  0.5194170000000 1.0
C      1  0.4842260000000  0.5216420000000  0.5494920000000 1.0
C      1  0.4863150000000  0.4668440000000  0.5483750000000 1.0
C      1  0.5770720000000  0.4894230000000  0.5410980000000 1.0
C      1  0.5764400000000  0.4639690000000  0.5201000000000 1.0
C      1  0.5780310000000  0.4675860000000  0.4885350000000 1.0
C      1  0.5810960000000  0.4959850000000  0.4727130000000 1.0
C      1  0.5781760000000  0.5289180000000  0.4726430000000 1.0
C      1  0.5807210000000  0.5374260000000  0.5039250000000 1.0
C      1  0.5776380000000  0.5171480000000  0.5232280000000 1.0
C      1  0.5470020000000  0.5154970000000  0.5379480000000 1.0
C      1  0.5444830000000  0.4828560000000  0.5339570000000 1.0
C      1  0.5428160000000  0.4665620000000  0.5070490000000 1.0
C      1  0.5469050000000  0.4771700000000  0.4787710000000 1.0
C      1  0.5474270000000  0.5051080000000  0.4658160000000 1.0
C      1  0.5464070000000  0.5301200000000  0.4847220000000 1.0
C      1  0.5365660000000  0.5289480000000  0.5120610000000 1.0
C      1  0.4176210000000  0.5380330000000  0.4776050000000 1.0
C      1  0.4239470000000  0.5462330000000  0.5089210000000 1.0
C      1  0.4330390000000  0.5347400000000  0.5460110000000 1.0
C      1  0.4354650000000  0.4829880000000  0.5563040000000 1.0
C      1  0.4225850000000  0.4516740000000  0.5159440000000 1.0
C      1  0.4268680000000  0.4588930000000  0.4835720000000 1.0
C      1  0.4204010000000  0.4956380000000  0.4554020000000 1.0
C      1  0.4466190000000  0.5282930000000  0.5728160000000 1.0
C      1  0.4484460000000  0.4540250000000  0.5629060000000 1.0
C      1  0.4408580000000  0.4257330000000  0.5089260000000 1.0
C      1  0.4377620000000  0.4463300000000  0.4565140000000 1.0
C      1  0.4449530000000  0.5017390000000  0.4328240000000 1.0
C      1  0.4421710000000  0.5513830000000  0.4622560000000 1.0
C      1  0.4428140000000  0.5717500000000  0.5072680000000 1.0
C      1  0.5534870000000  0.4162220000000  0.5523310000000 1.0
C      1  0.5564540000000  0.4126950000000  0.4683710000000 1.0
C      1  0.5556570000000  0.4675100000000  0.3974980000000 1.0
C      1  0.5573290000000  0.5465170000000  0.4142450000000 1.0
C      1  0.5599120000000  0.5949170000000  0.4863830000000 1.0
C      1  0.5504060000000  0.5710840000000  0.5659570000000 1.0
C      1  0.5506710000000  0.4877410000000  0.6005080000000 1.0
C      1  0.5250690000000  0.4712640000000  0.4551750000000 1.0
C      1  0.5254850000000  0.5092410000000  0.4429930000000 1.0
C      1  0.5262010000000  0.5526360000000  0.4715660000000 1.0
C      1  0.5186530000000  0.5534400000000  0.5226230000000 1.0
C      1  0.5213890000000  0.5117170000000  0.5600090000000 1.0
C      1  0.5247270000000  0.4581800000000  0.5432350000000 1.0
C      1  0.5267090000000  0.4400040000000  0.5015750000000 1.0
C      1  0.4460290000000  0.5008800000000  0.5782110000000 1.0
C      1  0.4481470000000  0.4330040000000  0.5404160000000 1.0
C      1  0.4479510000000  0.4251930000000  0.4811730000000 1.0
C      1  0.4439840000000  0.4682280000000  0.4388490000000 1.0
C      1  0.4534010000000  0.5334540000000  0.4421230000000 1.0
C      1  0.4516030000000  0.5727160000000  0.4797390000000 1.0
C      1  0.4437060000000  0.5630170000000  0.5388150000000 1.0
C      1  0.4759120000000  0.5901850000000  0.4754550000000 1.0
C      1  0.4682820000000  0.5691080000000  0.5560920000000 1.0
C      1  0.4715370000000  0.4905500000000  0.5903970000000 1.0
C      1  0.4735470000000  0.4166790000000  0.5493320000000 1.0
C      1  0.4742400000000  0.4122900000000  0.4741700000000 1.0
C      1  0.4693720000000  0.4724530000000  0.4208980000000 1.0
C      1  0.4777080000000  0.5440190000000  0.4272200000000 1.0
C      1  0.5088360000000  0.5173100000000  0.6102660000000 1.0
C      1  0.5125570000000  0.4205620000000  0.5798360000000 1.0
C      1  0.5155940000000  0.3862780000000  0.4885310000000 1.0
C      1  0.5134360000000  0.4492680000000  0.4094690000000 1.0
C      1  0.5104220000000  0.5325330000000  0.3880880000000 1.0
C      1  0.5196190000000  0.6095140000000  0.4536580000000 1.0
C      1  0.5080900000000  0.5998340000000  0.5507390000000 1.0
C      1  0.4998870000000  0.4763250000000  0.4765670000000 1.0
C      1  0.5076110000000  0.5046890000000  0.4683830000000 1.0
C      1  0.5025380000000  0.5303540000000  0.4811120000000 1.0
C      1  0.4969580000000  0.5310490000000  0.5100440000000 1.0
C      1  0.5076010000000  0.5089690000000  0.5309730000000 1.0
C      1  0.5053850000000  0.4797440000000  0.5262290000000 1.0
C      1  0.5032420000000  0.4626480000000  0.5016160000000 1.0
C      1  0.5494920000000  0.4568070000000  0.5638390000000 1.0
C      1  0.5571130000000  0.4294590000000  0.5045680000000 1.0
C      1  0.5521480000000  0.4561590000000  0.4452860000000 1.0
C      1  0.5545860000000  0.5089580000000  0.4268450000000 1.0
C      1  0.5569690000000  0.5621940000000  0.4637430000000 1.0
C      1  0.5498450000000  0.5635280000000  0.5268300000000 1.0
C      1  0.5491340000000  0.5202290000000  0.5773770000000 1.0
C      1  0.4894210000000  0.5721710000000  0.4385750000000 1.0
C      1  0.4847060000000  0.5879420000000  0.5071330000000 1.0
C      1  0.4775060000000  0.5423490000000  0.5749970000000 1.0
C      1  0.4779090000000  0.4590910000000  0.5791560000000 1.0
C      1  0.4833650000000  0.4128190000000  0.5179300000000 1.0
C      1  0.4838310000000  0.4300490000000  0.4481670000000 1.0
C      1  0.4657860000000  0.5025790000000  0.4057410000000 1.0
C      1  0.5660510000000  0.5371000000000  0.4423020000000 1.0
C      1  0.5654010000000  0.5647000000000  0.4966660000000 1.0
C      1  0.5565510000000  0.5439700000000  0.5539200000000 1.0
C      1  0.5597380000000  0.4885900000000  0.5704630000000 1.0
C      1  0.5616690000000  0.4403260000000  0.5365390000000 1.0
C      1  0.5643950000000  0.4416370000000  0.4735420000000 1.0
C      1  0.5622390000000  0.4769840000000  0.4228050000000 1.0
C      1  0.5137440000000  0.4037940000000  0.5244080000000 1.0
C      1  0.5135810000000  0.4207090000000  0.4441770000000 1.0
C      1  0.5173280000000  0.4934390000000  0.3929790000000 1.0
C      1  0.5187760000000  0.5740660000000  0.4279640000000 1.0
C      1  0.5145930000000  0.5988110000000  0.5091620000000 1.0
C      1  0.5072040000000  0.5551830000000  0.5854920000000 1.0
C      1  0.5066630000000  0.4614610000000  0.5972050000000 1.0
C      1  0.4988200000000  0.4779360000000  0.4369980000000 1.0
C      1  0.5063120000000  0.5276250000000  0.4272860000000 1.0
C      1  0.5077520000000  0.5783430000000  0.4756010000000 1.0
C      1  0.4995760000000  0.5597840000000  0.5466130000000 1.0
C      1  0.5027970000000  0.4953030000000  0.5776350000000 1.0
C      1  0.5011050000000  0.4361080000000  0.5449290000000 1.0
C      1  0.5030780000000  0.4260460000000  0.4858130000000 1.0
C      1  0.4836940000000  0.4255790000000  0.5790370000000 1.0
C      1  0.4881740000000  0.3902090000000  0.4947820000000 1.0
C      1  0.4861290000000  0.4454630000000  0.4176980000000 1.0
C      1  0.4818480000000  0.5310390000000  0.3961100000000 1.0
C      1  0.4918070000000  0.6031590000000  0.4487510000000 1.0
C      1  0.4820980000000  0.5947510000000  0.5397770000000 1.0
C      1  0.4816920000000  0.5200400000000  0.6003350000000 1.0
C      1  0.5309570000000  0.5902390000000  0.5321270000000 1.0
C      1  0.5247280000000  0.5351100000000  0.5958000000000 1.0
C      1  0.5267160000000  0.4442930000000  0.5859240000000 1.0
C      1  0.5373020000000  0.4018370000000  0.5055880000000 1.0
C      1  0.5295080000000  0.4381130000000  0.4296480000000 1.0
C      1  0.5377840000000  0.5148280000000  0.3978130000000 1.0
C      1  0.5379640000000  0.5849060000000  0.4474520000000 1.0
C      1  0.5301470000000  0.6015590000000  0.4829420000000 1.0
C      1  0.5202720000000  0.5760300000000  0.5679220000000 1.0
C      1  0.5197570000000  0.4882630000000  0.6062500000000 1.0
C      1  0.5230520000000  0.4112800000000  0.5526250000000 1.0
C      1  0.5259990000000  0.4083910000000  0.4678930000000 1.0
C      1  0.5273070000000  0.4673430000000  0.3926670000000 1.0
C      1  0.5265260000000  0.5501830000000  0.4119610000000 1.0
C      1  0.4556010000000  0.5344230000000  0.5131490000000 1.0
C      1  0.4573970000000  0.5127500000000  0.5371000000000 1.0
C      1  0.4610460000000  0.4799230000000  0.5351690000000 1.0
C      1  0.4543750000000  0.4630330000000  0.5118810000000 1.0
C      1  0.4584440000000  0.4710420000000  0.4798980000000 1.0
C      1  0.4449450000000  0.4973460000000  0.4724970000000 1.0
C      1  0.4443300000000  0.5202910000000  0.4871020000000 1.0
END
