TITL C-3289321-8710-63 0.00269422371406817 125000 -585.087437792881 0 0 103 (C1) n - 1
REM
REM in /nfs/bkarasulu/CARBON/AIRSS/Generating-Clusters/AIREBO/with-SteepDescent/Higher-Symm/SD-CG/HFTN-CG
REM
REM
REM
REM
REM
REM ./C.cell (b20cbc046b6831c77cfcea5457e17084)
REM
REM compiler GCC version 9.2.1 20190827 (Red Hat 9.2.1-1)
REM options -cpp -mtune=generic -march=x86-64 -g -O0 -fpre-include=/usr/include/finclude/math-vector-fortran.h
REM seed -1046048760 85609298 -1929538317 441409720 -1490492233 930606448 475977472 1040239584 2057007199 2059201088 -1680044657 -1579236222 -1276203033 1937931142 485400948 461421868 1241168966 946628666 -1967247775 -927616266 533174800 1583713015 1081144983 -1470144106 -1785989812 -2026576928 -484229895 90696011 -625218560 996792760 131740990 18839209 -1774367174
REM
CELL 1.54180   50.00000   50.00000   50.00000   90.00000   90.00000   90.00000
LATT -1
SFAC C  
C      1  0.5199660000000  0.5787470000000  0.4691010000000 1.0
C      1  0.4662580000000  0.4206370000000  0.5317250000000 1.0
C      1  0.5454530000000  0.4273120000000  0.5124880000000 1.0
C      1  0.4668500000000  0.5635150000000  0.4939090000000 1.0
C      1  0.5074890000000  0.4369140000000  0.4690840000000 1.0
C      1  0.4971140000000  0.5372210000000  0.5176160000000 1.0
C      1  0.4406190000000  0.4715230000000  0.5735640000000 1.0
C      1  0.5648030000000  0.5378110000000  0.4250130000000 1.0
C      1  0.4767750000000  0.4943190000000  0.5383780000000 1.0
C      1  0.5385310000000  0.5073920000000  0.4612440000000 1.0
C      1  0.4573800000000  0.4390500000000  0.4538160000000 1.0
C      1  0.5349410000000  0.5580180000000  0.5534270000000 1.0
C      1  0.5127740000000  0.4727520000000  0.4114680000000 1.0
C      1  0.4911950000000  0.5284370000000  0.5873800000000 1.0
C      1  0.5454600000000  0.5214880000000  0.4926850000000 1.0
C      1  0.4671130000000  0.4869370000000  0.5075300000000 1.0
C      1  0.4160590000000  0.4629870000000  0.4688680000000 1.0
C      1  0.5760900000000  0.5439040000000  0.5295480000000 1.0
C      1  0.4729060000000  0.5252520000000  0.5325440000000 1.0
C      1  0.5353320000000  0.4843160000000  0.4842910000000 1.0
C      1  0.5546520000000  0.5140170000000  0.5598600000000 1.0
C      1  0.4432720000000  0.4815190000000  0.4348270000000 1.0
C      1  0.4266630000000  0.4554130000000  0.5206950000000 1.0
C      1  0.5647450000000  0.5534540000000  0.4785850000000 1.0
C      1  0.4199620000000  0.5122260000000  0.5277390000000 1.0
C      1  0.5837960000000  0.4913620000000  0.4717190000000 1.0
C      1  0.5954040000000  0.5229580000000  0.5250810000000 1.0
C      1  0.4119430000000  0.4917040000000  0.4691420000000 1.0
C      1  0.4470500000000  0.5410130000000  0.5230510000000 1.0
C      1  0.5539620000000  0.4629300000000  0.4795400000000 1.0
C      1  0.4491980000000  0.5207090000000  0.4318060000000 1.0
C      1  0.5461540000000  0.4753350000000  0.5595290000000 1.0
C      1  0.5532050000000  0.4119530000000  0.5346490000000 1.0
C      1  0.4516230000000  0.5930130000000  0.4926970000000 1.0
C      1  0.4876470000000  0.4914850000000  0.4056450000000 1.0
C      1  0.5102160000000  0.5073660000000  0.5931160000000 1.0
C      1  0.5048260000000  0.5113280000000  0.4200750000000 1.0
C      1  0.4947750000000  0.4828400000000  0.6022890000000 1.0
C      1  0.4835250000000  0.4558190000000  0.4575860000000 1.0
C      1  0.5188150000000  0.5303500000000  0.5419170000000 1.0
C      1  0.5190830000000  0.4990830000000  0.4406590000000 1.0
C      1  0.4812540000000  0.4899250000000  0.5718010000000 1.0
C      1  0.5096070000000  0.4686550000000  0.4450630000000 1.0
C      1  0.4912670000000  0.5363690000000  0.5569120000000 1.0
C      1  0.5104410000000  0.4979370000000  0.5351170000000 1.0
C      1  0.4825840000000  0.4870080000000  0.4681210000000 1.0
C      1  0.4621000000000  0.5612320000000  0.5458720000000 1.0
C      1  0.5493000000000  0.4480100000000  0.4562380000000 1.0
C      1  0.5323560000000  0.4266120000000  0.4634870000000 1.0
C      1  0.4905530000000  0.5680480000000  0.5276340000000 1.0
C      1  0.5849160000000  0.4968870000000  0.5202540000000 1.0
C      1  0.3996820000000  0.5115550000000  0.4844140000000 1.0
C      1  0.5429340000000  0.4108600000000  0.4847180000000 1.0
C      1  0.4618530000000  0.5834740000000  0.5212840000000 1.0
C      1  0.5039520000000  0.4606620000000  0.4915510000000 1.0
C      1  0.5066990000000  0.5286890000000  0.4893500000000 1.0
C      1  0.4742490000000  0.4616480000000  0.4977840000000 1.0
C      1  0.5312280000000  0.5492010000000  0.5010050000000 1.0
C      1  0.4726770000000  0.5545650000000  0.4416670000000 1.0
C      1  0.5025100000000  0.4415830000000  0.5551810000000 1.0
C      1  0.5161580000000  0.4727510000000  0.5533740000000 1.0
C      1  0.4764970000000  0.5083040000000  0.4478000000000 1.0
C      1  0.5134610000000  0.4363290000000  0.5111070000000 1.0
C      1  0.4963090000000  0.5597710000000  0.4846080000000 1.0
C      1  0.4591130000000  0.5061090000000  0.4836400000000 1.0
C      1  0.5361340000000  0.4992300000000  0.5147130000000 1.0
C      1  0.4606720000000  0.4939130000000  0.4140870000000 1.0
C      1  0.5364640000000  0.5002330000000  0.5810080000000 1.0
C      1  0.5334940000000  0.5750700000000  0.5749900000000 1.0
C      1  0.4588410000000  0.4138410000000  0.4426770000000 1.0
C      1  0.5235030000000  0.6051490000000  0.4778960000000 1.0
C      1  0.4616250000000  0.3946350000000  0.5254710000000 1.0
C      1  0.4392140000000  0.4451200000000  0.5657490000000 1.0
C      1  0.5526080000000  0.5609390000000  0.4337480000000 1.0
C      1  0.4623690000000  0.5411200000000  0.5729640000000 1.0
C      1  0.5404660000000  0.4667270000000  0.4309210000000 1.0
C      1  0.4386610000000  0.5267850000000  0.5527800000000 1.0
C      1  0.5678750000000  0.4810000000000  0.4437880000000 1.0
C      1  0.4555700000000  0.4467070000000  0.4846520000000 1.0
C      1  0.5221050000000  0.5668120000000  0.5260610000000 1.0
C      1  0.5662160000000  0.5139940000000  0.4440640000000 1.0
C      1  0.4454690000000  0.4934430000000  0.5516300000000 1.0
C      1  0.5593270000000  0.5398970000000  0.5518570000000 1.0
C      1  0.4339700000000  0.4574100000000  0.4458810000000 1.0
C      1  0.4877240000000  0.5331710000000  0.4311140000000 1.0
C      1  0.4971710000000  0.4621380000000  0.5781480000000 1.0
C      1  0.5618120000000  0.4544340000000  0.5390540000000 1.0
C      1  0.4467930000000  0.5445580000000  0.4559620000000 1.0
C      1  0.5854990000000  0.4790400000000  0.4980440000000 1.0
C      1  0.4171320000000  0.5246810000000  0.5022860000000 1.0
C      1  0.4426610000000  0.4379170000000  0.5383240000000 1.0
C      1  0.5462500000000  0.5649320000000  0.4609410000000 1.0
C      1  0.5588140000000  0.4940710000000  0.5349120000000 1.0
C      1  0.4385100000000  0.5029170000000  0.4587380000000 1.0
C      1  0.4898170000000  0.5718590000000  0.4549640000000 1.0
C      1  0.4943140000000  0.4302130000000  0.5317500000000 1.0
C      1  0.5637450000000  0.5564610000000  0.5077830000000 1.0
C      1  0.4287250000000  0.4513740000000  0.4925800000000 1.0
C      1  0.4460540000000  0.5370040000000  0.4892940000000 1.0
C      1  0.5660540000000  0.4528570000000  0.5057470000000 1.0
C      1  0.5726740000000  0.5225040000000  0.4747880000000 1.0
C      1  0.4248940000000  0.4822460000000  0.5289520000000 1.0
C      1  0.5053440000000  0.4946960000000  0.4897120000000 1.0
END
