TITL C-3289326-3776-296 0.00287798519295041 125000 -556.848206537241 0 0 98 (C1) n - 1
REM
REM in /nfs/bkarasulu/CARBON/AIRSS/Generating-Clusters/AIREBO/with-SteepDescent/Higher-Symm/SD-CG/HFTN-CG
REM
REM
REM
REM
REM
REM ./C.cell (b20cbc046b6831c77cfcea5457e17084)
REM
REM compiler GCC version 9.2.1 20190827 (Red Hat 9.2.1-1)
REM options -cpp -mtune=generic -march=x86-64 -g -O0 -fpre-include=/usr/include/finclude/math-vector-fortran.h
REM seed 1290979025 160323790 1012100120 514885049 2107907461 893320550 -1696044305 -1340298154 -421780472 1110513163 410248559 722203759 1469332732 -149074734 -318132433 -714221232 834139691 1390119140 551483289 1926987208 1763167474 -1799472101 -993050012 828563024 422278996 435400675 1546688572 901900798 -357472379 -127640577 1385294964 -1740784968 -297480790
REM
CELL 1.54180   50.00000   50.00000   50.00000   90.00000   90.00000   90.00000
LATT -1
SFAC C  
C      1  0.5407130000000  0.5747390000000  0.4821340000000 1.0
C      1  0.4067960000000  0.5054260000000  0.4955680000000 1.0
C      1  0.5436980000000  0.4183500000000  0.4889380000000 1.0
C      1  0.5391490000000  0.5884520000000  0.5125580000000 1.0
C      1  0.4039880000000  0.4897340000000  0.5185140000000 1.0
C      1  0.5601430000000  0.4215480000000  0.5114460000000 1.0
C      1  0.5480320000000  0.5151620000000  0.4761550000000 1.0
C      1  0.4663330000000  0.5448240000000  0.4695240000000 1.0
C      1  0.4753910000000  0.4515400000000  0.4668920000000 1.0
C      1  0.5566280000000  0.5080580000000  0.5347110000000 1.0
C      1  0.4648190000000  0.5352250000000  0.5238540000000 1.0
C      1  0.4792200000000  0.4474190000000  0.5293750000000 1.0
C      1  0.4378200000000  0.5379760000000  0.4815790000000 1.0
C      1  0.4956550000000  0.4307390000000  0.4830050000000 1.0
C      1  0.5840110000000  0.5370920000000  0.5040570000000 1.0
C      1  0.4269960000000  0.5591250000000  0.4946220000000 1.0
C      1  0.5022970000000  0.4346320000000  0.5132540000000 1.0
C      1  0.5616890000000  0.5353300000000  0.5191050000000 1.0
C      1  0.5262740000000  0.4538050000000  0.5168340000000 1.0
C      1  0.5309720000000  0.5416580000000  0.5158270000000 1.0
C      1  0.4531890000000  0.5053530000000  0.5159360000000 1.0
C      1  0.5259830000000  0.4468710000000  0.4835430000000 1.0
C      1  0.5393880000000  0.5424870000000  0.4866970000000 1.0
C      1  0.4392940000000  0.5064890000000  0.4856180000000 1.0
C      1  0.4537890000000  0.4311250000000  0.5288160000000 1.0
C      1  0.5818130000000  0.4913040000000  0.5361200000000 1.0
C      1  0.4635350000000  0.5657440000000  0.5257020000000 1.0
C      1  0.4524740000000  0.4281990000000  0.4572770000000 1.0
C      1  0.5765100000000  0.5015840000000  0.4746470000000 1.0
C      1  0.4714200000000  0.5912140000000  0.4584320000000 1.0
C      1  0.5479640000000  0.4502180000000  0.4573300000000 1.0
C      1  0.5267920000000  0.5771350000000  0.4339940000000 1.0
C      1  0.4278950000000  0.4875490000000  0.4593510000000 1.0
C      1  0.5449620000000  0.4464100000000  0.5386520000000 1.0
C      1  0.5224840000000  0.5615410000000  0.5368780000000 1.0
C      1  0.4390320000000  0.4889590000000  0.5375590000000 1.0
C      1  0.5109730000000  0.5242310000000  0.5717950000000 1.0
C      1  0.4752900000000  0.4926990000000  0.5696170000000 1.0
C      1  0.5192910000000  0.4743910000000  0.5702620000000 1.0
C      1  0.5070300000000  0.5280170000000  0.4293610000000 1.0
C      1  0.4682910000000  0.4990430000000  0.4315830000000 1.0
C      1  0.5133640000000  0.4799040000000  0.4326320000000 1.0
C      1  0.5376370000000  0.5279160000000  0.5525660000000 1.0
C      1  0.4638870000000  0.5168750000000  0.5524670000000 1.0
C      1  0.5052820000000  0.4504410000000  0.5506100000000 1.0
C      1  0.5280900000000  0.5218510000000  0.4510320000000 1.0
C      1  0.4545190000000  0.5230070000000  0.4484710000000 1.0
C      1  0.5025750000000  0.4566170000000  0.4522090000000 1.0
C      1  0.5032000000000  0.5070090000000  0.4688160000000 1.0
C      1  0.4699490000000  0.5030630000000  0.4712900000000 1.0
C      1  0.5148700000000  0.4779260000000  0.4752390000000 1.0
C      1  0.5112150000000  0.5208670000000  0.5321340000000 1.0
C      1  0.4839260000000  0.5006840000000  0.5297430000000 1.0
C      1  0.5095750000000  0.4784400000000  0.5317550000000 1.0
C      1  0.4919320000000  0.5725730000000  0.5334400000000 1.0
C      1  0.4368620000000  0.4550640000000  0.5391920000000 1.0
C      1  0.5728170000000  0.4634450000000  0.5411580000000 1.0
C      1  0.4979550000000  0.5790250000000  0.4496750000000 1.0
C      1  0.4367290000000  0.4553460000000  0.4581340000000 1.0
C      1  0.5683350000000  0.4765870000000  0.4565520000000 1.0
C      1  0.4314980000000  0.5228600000000  0.5570870000000 1.0
C      1  0.5183070000000  0.4198790000000  0.5515210000000 1.0
C      1  0.5561280000000  0.5552840000000  0.5570080000000 1.0
C      1  0.4230640000000  0.5251760000000  0.4467640000000 1.0
C      1  0.5159000000000  0.4290120000000  0.4462860000000 1.0
C      1  0.5536050000000  0.5418940000000  0.4471590000000 1.0
C      1  0.5733230000000  0.4479260000000  0.5108420000000 1.0
C      1  0.5093640000000  0.5820560000000  0.5056310000000 1.0
C      1  0.4176570000000  0.4646560000000  0.5144330000000 1.0
C      1  0.5676600000000  0.4652070000000  0.4885860000000 1.0
C      1  0.5084200000000  0.5654810000000  0.4766370000000 1.0
C      1  0.4310980000000  0.4624080000000  0.4899080000000 1.0
C      1  0.5043040000000  0.5553320000000  0.4259690000000 1.0
C      1  0.4491710000000  0.4784710000000  0.4365020000000 1.0
C      1  0.5419740000000  0.4739120000000  0.4350610000000 1.0
C      1  0.5024030000000  0.5524930000000  0.5598540000000 1.0
C      1  0.4538550000000  0.4737290000000  0.5622820000000 1.0
C      1  0.5472030000000  0.4657950000000  0.5640620000000 1.0
C      1  0.6012640000000  0.4964340000000  0.5174500000000 1.0
C      1  0.4483030000000  0.5772740000000  0.5050510000000 1.0
C      1  0.4537940000000  0.4128890000000  0.5085500000000 1.0
C      1  0.5935790000000  0.5118810000000  0.4944300000000 1.0
C      1  0.4587500000000  0.5749710000000  0.4762250000000 1.0
C      1  0.4658010000000  0.4164650000000  0.4829030000000 1.0
C      1  0.5469630000000  0.5681790000000  0.4512790000000 1.0
C      1  0.4054050000000  0.5102180000000  0.4648100000000 1.0
C      1  0.5399170000000  0.4188650000000  0.4586940000000 1.0
C      1  0.5486870000000  0.5796860000000  0.5403690000000 1.0
C      1  0.4115150000000  0.5040940000000  0.5450880000000 1.0
C      1  0.5457290000000  0.4146120000000  0.5391850000000 1.0
C      1  0.5358230000000  0.4922490000000  0.5190790000000 1.0
C      1  0.4921300000000  0.5343170000000  0.5100820000000 1.0
C      1  0.4750160000000  0.4724650000000  0.5129840000000 1.0
C      1  0.5421660000000  0.4866130000000  0.4900900000000 1.0
C      1  0.4941270000000  0.5375770000000  0.4806890000000 1.0
C      1  0.4629330000000  0.4731500000000  0.4846860000000 1.0
C      1  0.4956840000000  0.5014650000000  0.4259870000000 1.0
C      1  0.5025370000000  0.4968120000000  0.5749870000000 1.0
END
