TITL C-3289325-7307-585 -0.00181531076643405 125000 -805.252439738368 0 0 153 (C1) n - 1
REM
REM in /nfs/bkarasulu/CARBON/AIRSS/Generating-Clusters/AIREBO/with-SteepDescent/Higher-Symm/SD-CG/HFTN-CG
REM
REM
REM
REM
REM
REM ./C.cell (b20cbc046b6831c77cfcea5457e17084)
REM
REM compiler GCC version 9.2.1 20190827 (Red Hat 9.2.1-1)
REM options -cpp -mtune=generic -march=x86-64 -g -O0 -fpre-include=/usr/include/finclude/math-vector-fortran.h
REM seed 1586480660 753138694 -1534925745 247637353 980492659 428639803 -53745277 338882282 -75978372 -2014063372 -42724775 192022623 -617136238 -721111244 1864585574 -589783014 1186249349 224538781 2139229902 -1387964132 859277169 1495905229 -1387569174 269505123 -1553649561 254933546 -702079536 586103028 -1211393098 868468456 -913361706 481341883 1299771722
REM
CELL 1.54180   50.00000   50.00000   50.00000   90.00000   90.00000   90.00000
LATT -1
SFAC C  
C      1  0.5786710000000  0.5638470000000  0.4822690000000 1.0
C      1  0.5429340000000  0.5583780000000  0.5724840000000 1.0
C      1  0.4368780000000  0.5623360000000  0.5602510000000 1.0
C      1  0.4271960000000  0.5673000000000  0.4634550000000 1.0
C      1  0.5022780000000  0.5640040000000  0.4116870000000 1.0
C      1  0.4983370000000  0.4927510000000  0.5227560000000 1.0
C      1  0.4761660000000  0.4992020000000  0.4991140000000 1.0
C      1  0.4924580000000  0.5083890000000  0.4722560000000 1.0
C      1  0.5212610000000  0.4980350000000  0.4834560000000 1.0
C      1  0.5202490000000  0.4785630000000  0.5078060000000 1.0
C      1  0.4208400000000  0.5628380000000  0.4946020000000 1.0
C      1  0.4729750000000  0.5671710000000  0.4212480000000 1.0
C      1  0.5573500000000  0.5641180000000  0.4561410000000 1.0
C      1  0.5679080000000  0.5583490000000  0.5536480000000 1.0
C      1  0.4669400000000  0.5532950000000  0.5733450000000 1.0
C      1  0.5058290000000  0.5281890000000  0.4288940000000 1.0
C      1  0.5683580000000  0.5254950000000  0.4844300000000 1.0
C      1  0.5345810000000  0.5236900000000  0.5545260000000 1.0
C      1  0.4542000000000  0.5200160000000  0.5469680000000 1.0
C      1  0.4408980000000  0.5310750000000  0.4728150000000 1.0
C      1  0.5392400000000  0.5289320000000  0.5872550000000 1.0
C      1  0.4322290000000  0.5306820000000  0.5674850000000 1.0
C      1  0.4179980000000  0.5381580000000  0.4487020000000 1.0
C      1  0.5161310000000  0.5362150000000  0.3974990000000 1.0
C      1  0.6001240000000  0.5373910000000  0.4820930000000 1.0
C      1  0.5896660000000  0.5343470000000  0.5629020000000 1.0
C      1  0.4606440000000  0.5279870000000  0.5952320000000 1.0
C      1  0.4123570000000  0.5296590000000  0.4912450000000 1.0
C      1  0.4797070000000  0.5239510000000  0.4075270000000 1.0
C      1  0.5779210000000  0.5233190000000  0.4521220000000 1.0
C      1  0.5180770000000  0.4803740000000  0.5986810000000 1.0
C      1  0.4087850000000  0.4846670000000  0.5550920000000 1.0
C      1  0.4205620000000  0.4868630000000  0.4335600000000 1.0
C      1  0.5386660000000  0.4844000000000  0.4033450000000 1.0
C      1  0.6131620000000  0.4883180000000  0.5023680000000 1.0
C      1  0.4389760000000  0.4113400000000  0.5101190000000 1.0
C      1  0.4706800000000  0.4090290000000  0.4517710000000 1.0
C      1  0.5298040000000  0.4182230000000  0.4621550000000 1.0
C      1  0.5566990000000  0.4037570000000  0.5322340000000 1.0
C      1  0.4924860000000  0.4115800000000  0.5608940000000 1.0
C      1  0.5249710000000  0.4670210000000  0.4700100000000 1.0
C      1  0.5428360000000  0.4607860000000  0.5121430000000 1.0
C      1  0.4860370000000  0.4658590000000  0.5395540000000 1.0
C      1  0.4690450000000  0.4690960000000  0.5102440000000 1.0
C      1  0.4916520000000  0.4744100000000  0.4710720000000 1.0
C      1  0.5090280000000  0.5382480000000  0.5997640000000 1.0
C      1  0.4179860000000  0.5347320000000  0.5386510000000 1.0
C      1  0.4348700000000  0.5382420000000  0.4214170000000 1.0
C      1  0.5421880000000  0.5402410000000  0.4178120000000 1.0
C      1  0.5923200000000  0.5433050000000  0.5133160000000 1.0
C      1  0.4733840000000  0.4394400000000  0.5569450000000 1.0
C      1  0.4308410000000  0.4367980000000  0.4943950000000 1.0
C      1  0.4811630000000  0.4350100000000  0.4351000000000 1.0
C      1  0.5499100000000  0.4438630000000  0.4718700000000 1.0
C      1  0.5399480000000  0.4342280000000  0.5348930000000 1.0
C      1  0.4074160000000  0.4677900000000  0.4861040000000 1.0
C      1  0.4842560000000  0.4653860000000  0.4095270000000 1.0
C      1  0.5815950000000  0.4638540000000  0.4569250000000 1.0
C      1  0.5630450000000  0.4688230000000  0.5570280000000 1.0
C      1  0.4568130000000  0.4663670000000  0.5813590000000 1.0
C      1  0.4566570000000  0.4508420000000  0.4215110000000 1.0
C      1  0.5593430000000  0.4494350000000  0.4391710000000 1.0
C      1  0.5861940000000  0.4656390000000  0.5423300000000 1.0
C      1  0.4879840000000  0.4543490000000  0.5849080000000 1.0
C      1  0.4098880000000  0.4520330000000  0.5147750000000 1.0
C      1  0.4976590000000  0.5607790000000  0.5835790000000 1.0
C      1  0.4137420000000  0.5614530000000  0.5278270000000 1.0
C      1  0.4467270000000  0.5590580000000  0.4076120000000 1.0
C      1  0.5443280000000  0.5660840000000  0.4302650000000 1.0
C      1  0.5939450000000  0.5615310000000  0.5340980000000 1.0
C      1  0.5108370000000  0.4279470000000  0.5378480000000 1.0
C      1  0.4610150000000  0.4183830000000  0.5332600000000 1.0
C      1  0.4647750000000  0.4393500000000  0.4943060000000 1.0
C      1  0.4858450000000  0.4423470000000  0.4677760000000 1.0
C      1  0.5440040000000  0.4284770000000  0.5016180000000 1.0
C      1  0.5014390000000  0.3957860000000  0.5320680000000 1.0
C      1  0.4691510000000  0.3963000000000  0.5086320000000 1.0
C      1  0.4660830000000  0.4092660000000  0.4784880000000 1.0
C      1  0.5049420000000  0.4175680000000  0.4742110000000 1.0
C      1  0.5297690000000  0.4010620000000  0.5151370000000 1.0
C      1  0.5507230000000  0.4944800000000  0.4567300000000 1.0
C      1  0.5674360000000  0.4985300000000  0.5296160000000 1.0
C      1  0.4891400000000  0.4959030000000  0.5698590000000 1.0
C      1  0.4363320000000  0.4921290000000  0.5055340000000 1.0
C      1  0.4712840000000  0.4984610000000  0.4371310000000 1.0
C      1  0.4468290000000  0.4747490000000  0.5324740000000 1.0
C      1  0.4602290000000  0.4773140000000  0.4584560000000 1.0
C      1  0.5251360000000  0.4790960000000  0.4405880000000 1.0
C      1  0.5671730000000  0.4763930000000  0.5088270000000 1.0
C      1  0.5125550000000  0.4785420000000  0.5567340000000 1.0
C      1  0.4803040000000  0.5427900000000  0.4423910000000 1.0
C      1  0.5449390000000  0.5379460000000  0.4688890000000 1.0
C      1  0.5456350000000  0.5461010000000  0.5310660000000 1.0
C      1  0.4813050000000  0.5334780000000  0.5497420000000 1.0
C      1  0.4477520000000  0.5440250000000  0.5034410000000 1.0
C      1  0.5070850000000  0.4418580000000  0.4142290000000 1.0
C      1  0.5810860000000  0.4475370000000  0.4849550000000 1.0
C      1  0.5466820000000  0.4462010000000  0.5627020000000 1.0
C      1  0.4408080000000  0.4441050000000  0.5655230000000 1.0
C      1  0.4194090000000  0.4458400000000  0.4649780000000 1.0
C      1  0.6006560000000  0.4933870000000  0.5328850000000 1.0
C      1  0.4859380000000  0.4839670000000  0.6015350000000 1.0
C      1  0.4070850000000  0.4864030000000  0.5211720000000 1.0
C      1  0.4499890000000  0.4842210000000  0.4167270000000 1.0
C      1  0.5626290000000  0.4824440000000  0.4273530000000 1.0
C      1  0.4001860000000  0.5005910000000  0.4906490000000 1.0
C      1  0.4753760000000  0.4958030000000  0.3971720000000 1.0
C      1  0.5888960000000  0.4949200000000  0.4451620000000 1.0
C      1  0.6036250000000  0.5148740000000  0.5561710000000 1.0
C      1  0.4546840000000  0.4965680000000  0.5969450000000 1.0
C      1  0.5097780000000  0.5707840000000  0.5334870000000 1.0
C      1  0.4804500000000  0.5809840000000  0.5287820000000 1.0
C      1  0.4665220000000  0.5899530000000  0.4990880000000 1.0
C      1  0.5044220000000  0.5739660000000  0.4630620000000 1.0
C      1  0.5289370000000  0.5810670000000  0.4855440000000 1.0
C      1  0.5167490000000  0.5426350000000  0.5157300000000 1.0
C      1  0.4938340000000  0.5244710000000  0.5242720000000 1.0
C      1  0.4765950000000  0.5332370000000  0.4990730000000 1.0
C      1  0.4940340000000  0.5426900000000  0.4714560000000 1.0
C      1  0.5213720000000  0.5318670000000  0.4868330000000 1.0
C      1  0.4741020000000  0.5815960000000  0.4497020000000 1.0
C      1  0.5597750000000  0.5916030000000  0.4758510000000 1.0
C      1  0.5370150000000  0.5845550000000  0.5243580000000 1.0
C      1  0.4711630000000  0.5833600000000  0.5580180000000 1.0
C      1  0.4344500000000  0.5927310000000  0.5022560000000 1.0
C      1  0.5211940000000  0.4553190000000  0.5776590000000 1.0
C      1  0.4230810000000  0.4571590000000  0.5431910000000 1.0
C      1  0.4357560000000  0.4596240000000  0.4446340000000 1.0
C      1  0.5337170000000  0.4556670000000  0.4206150000000 1.0
C      1  0.5957090000000  0.4609230000000  0.5100980000000 1.0
C      1  0.4127230000000  0.5068850000000  0.4584200000000 1.0
C      1  0.5115210000000  0.5025300000000  0.3982130000000 1.0
C      1  0.6010000000000  0.5037010000000  0.4774840000000 1.0
C      1  0.5348150000000  0.5016970000000  0.6039330000000 1.0
C      1  0.4292430000000  0.4992210000000  0.5740430000000 1.0
C      1  0.5427510000000  0.4936180000000  0.5513450000000 1.0
C      1  0.4578070000000  0.4904140000000  0.5577480000000 1.0
C      1  0.4336100000000  0.4860890000000  0.4744800000000 1.0
C      1  0.5010900000000  0.4887180000000  0.4263480000000 1.0
C      1  0.5720030000000  0.4861250000000  0.4800200000000 1.0
C      1  0.4379730000000  0.5191000000000  0.5200180000000 1.0
C      1  0.4554470000000  0.5250960000000  0.4443580000000 1.0
C      1  0.5361940000000  0.5206570000000  0.4424580000000 1.0
C      1  0.5657700000000  0.5248490000000  0.5160990000000 1.0
C      1  0.5040430000000  0.5238880000000  0.5695810000000 1.0
C      1  0.4535590000000  0.5812670000000  0.4688300000000 1.0
C      1  0.5185740000000  0.5755220000000  0.4324300000000 1.0
C      1  0.5529120000000  0.5661340000000  0.5045390000000 1.0
C      1  0.5169020000000  0.5682490000000  0.5645530000000 1.0
C      1  0.4497320000000  0.5664090000000  0.5289630000000 1.0
C      1  0.4872790000000  0.4305390000000  0.5182230000000 1.0
C      1  0.4973720000000  0.5920460000000  0.4918790000000 1.0
C      1  0.5007630000000  0.3991100000000  0.4978600000000 1.0
END
