TITL C-3289335-9438-465 -15304.3352508145 125000 -797.600327628405 0 0 145 (C1) n - 1
REM
REM in /nfs/bkarasulu/CARBON/AIRSS/Generating-Clusters/AIREBO/with-SteepDescent/Higher-Symm/SD-CG/HFTN-CG
REM
REM
REM
REM
REM
REM ./C.cell (b20cbc046b6831c77cfcea5457e17084)
REM
REM compiler GCC version 9.2.1 20190827 (Red Hat 9.2.1-1)
REM options -cpp -mtune=generic -march=x86-64 -g -O0 -fpre-include=/usr/include/finclude/math-vector-fortran.h
REM seed 997267543 788148469 -529312626 -908548502 -1501500019 -1898056002 -868626103 -1858210400 891793601 -133272269 -1437953271 237740048 -1170329527 -1440491982 418875501 -1364918885 940395867 -1270833667 1888689971 -1411707244 834500413 -453743344 1859391503 523133651 761888428 1119947152 2137375656 438431855 2020434608 -1131041974 888803274 -2056162901 1525229203
REM
CELL 1.54180   50.00000   50.00000   50.00000   90.00000   90.00000   90.00000
LATT -1
SFAC C  
C      1  0.4503570000000  0.5230480000000  0.4140630000000 1.0
C      1  0.4514630000000  0.4138510000000  0.4602670000000 1.0
C      1  0.4447430000000  0.4291160000000  0.5700210000000 1.0
C      1  0.4594690000000  0.5370660000000  0.5842180000000 1.0
C      1  0.4527380000000  0.5889430000000  0.4996680000000 1.0
C      1  0.4240330000000  0.5048790000000  0.5576120000000 1.0
C      1  0.4213760000000  0.5507110000000  0.5099820000000 1.0
C      1  0.4213350000000  0.5255560000000  0.4544370000000 1.0
C      1  0.4290330000000  0.4653240000000  0.4670070000000 1.0
C      1  0.4251180000000  0.4501340000000  0.5254170000000 1.0
C      1  0.4738000000000  0.4410550000000  0.5344050000000 1.0
C      1  0.4822540000000  0.5124820000000  0.5577170000000 1.0
C      1  0.4898660000000  0.5667190000000  0.5084040000000 1.0
C      1  0.4893510000000  0.5329050000000  0.4452790000000 1.0
C      1  0.4747890000000  0.4383010000000  0.4563100000000 1.0
C      1  0.4444330000000  0.4442890000000  0.4483980000000 1.0
C      1  0.4452450000000  0.4294360000000  0.5410960000000 1.0
C      1  0.4532150000000  0.5071740000000  0.5749100000000 1.0
C      1  0.4340100000000  0.5787440000000  0.5168490000000 1.0
C      1  0.4350800000000  0.5398550000000  0.4295620000000 1.0
C      1  0.4727920000000  0.4687840000000  0.5540560000000 1.0
C      1  0.4744500000000  0.5372450000000  0.5372950000000 1.0
C      1  0.4792720000000  0.5567710000000  0.4812450000000 1.0
C      1  0.4861460000000  0.4991170000000  0.4430800000000 1.0
C      1  0.4846040000000  0.4523870000000  0.4813290000000 1.0
C      1  0.4305840000000  0.5625620000000  0.5444430000000 1.0
C      1  0.4345990000000  0.5602460000000  0.4554120000000 1.0
C      1  0.4382240000000  0.4727890000000  0.4339980000000 1.0
C      1  0.4441640000000  0.4270250000000  0.5072730000000 1.0
C      1  0.4392580000000  0.4781200000000  0.5742400000000 1.0
C      1  0.4847340000000  0.5667610000000  0.5621080000000 1.0
C      1  0.4840470000000  0.5878580000000  0.4569760000000 1.0
C      1  0.4832250000000  0.4789010000000  0.4021390000000 1.0
C      1  0.4924240000000  0.4111980000000  0.4900770000000 1.0
C      1  0.4926280000000  0.4520250000000  0.5843610000000 1.0
C      1  0.5696120000000  0.5540150000000  0.5298190000000 1.0
C      1  0.5457400000000  0.5410460000000  0.4700280000000 1.0
C      1  0.5566310000000  0.4735730000000  0.4363480000000 1.0
C      1  0.5580270000000  0.4357980000000  0.5056720000000 1.0
C      1  0.5594660000000  0.4876600000000  0.5570180000000 1.0
C      1  0.4557490000000  0.4886460000000  0.5396080000000 1.0
C      1  0.4536550000000  0.5154140000000  0.5238310000000 1.0
C      1  0.4601990000000  0.5323090000000  0.4800440000000 1.0
C      1  0.4611920000000  0.4941630000000  0.4616010000000 1.0
C      1  0.4661550000000  0.4710220000000  0.5004790000000 1.0
C      1  0.4947690000000  0.4544730000000  0.4106190000000 1.0
C      1  0.5025720000000  0.4065090000000  0.5170140000000 1.0
C      1  0.4891170000000  0.4856470000000  0.5862650000000 1.0
C      1  0.4939760000000  0.5809960000000  0.5376830000000 1.0
C      1  0.4943670000000  0.5659400000000  0.4408840000000 1.0
C      1  0.4587930000000  0.4533280000000  0.5801440000000 1.0
C      1  0.4562110000000  0.5555860000000  0.5588440000000 1.0
C      1  0.4561350000000  0.5777870000000  0.4693800000000 1.0
C      1  0.4605040000000  0.4919300000000  0.4218220000000 1.0
C      1  0.4638460000000  0.4132840000000  0.4881000000000 1.0
C      1  0.5638100000000  0.5096210000000  0.5826130000000 1.0
C      1  0.5687400000000  0.5866780000000  0.5204060000000 1.0
C      1  0.5685490000000  0.5365860000000  0.4239320000000 1.0
C      1  0.5658450000000  0.4413870000000  0.4352150000000 1.0
C      1  0.5736640000000  0.4276620000000  0.5311240000000 1.0
C      1  0.5475290000000  0.4212050000000  0.4823080000000 1.0
C      1  0.5444430000000  0.4671090000000  0.5795560000000 1.0
C      1  0.5527480000000  0.5617100000000  0.5583340000000 1.0
C      1  0.5488540000000  0.5750050000000  0.4668620000000 1.0
C      1  0.5466590000000  0.4851130000000  0.4088220000000 1.0
C      1  0.5415140000000  0.5920810000000  0.5126350000000 1.0
C      1  0.5406030000000  0.5354640000000  0.4237310000000 1.0
C      1  0.5328900000000  0.4410920000000  0.4454150000000 1.0
C      1  0.5414880000000  0.4362690000000  0.5420580000000 1.0
C      1  0.5357930000000  0.5152860000000  0.5766750000000 1.0
C      1  0.5158740000000  0.4287910000000  0.4724850000000 1.0
C      1  0.5208440000000  0.4501990000000  0.5654340000000 1.0
C      1  0.5282180000000  0.5424380000000  0.5647690000000 1.0
C      1  0.5282180000000  0.5909560000000  0.4843720000000 1.0
C      1  0.5269650000000  0.5101430000000  0.4130310000000 1.0
C      1  0.5246630000000  0.5513580000000  0.4459500000000 1.0
C      1  0.5170490000000  0.4596980000000  0.4281390000000 1.0
C      1  0.5218810000000  0.4281790000000  0.5203470000000 1.0
C      1  0.5166650000000  0.4956850000000  0.5762080000000 1.0
C      1  0.5237340000000  0.5709170000000  0.5288910000000 1.0
C      1  0.4817870000000  0.5988400000000  0.5107490000000 1.0
C      1  0.4798880000000  0.5261060000000  0.4145220000000 1.0
C      1  0.4883670000000  0.4318860000000  0.4279900000000 1.0
C      1  0.4902090000000  0.4170500000000  0.5419730000000 1.0
C      1  0.4878200000000  0.5193830000000  0.5905450000000 1.0
C      1  0.4269500000000  0.4743000000000  0.5427710000000 1.0
C      1  0.4256180000000  0.5298440000000  0.5365560000000 1.0
C      1  0.4291330000000  0.5415040000000  0.4832150000000 1.0
C      1  0.4293330000000  0.4974050000000  0.4555580000000 1.0
C      1  0.4380510000000  0.4576290000000  0.4952050000000 1.0
C      1  0.5689780000000  0.5575720000000  0.4862030000000 1.0
C      1  0.5635840000000  0.5016360000000  0.4506620000000 1.0
C      1  0.5524360000000  0.4525390000000  0.4700480000000 1.0
C      1  0.5585570000000  0.4633880000000  0.5359250000000 1.0
C      1  0.5646650000000  0.5257100000000  0.5460360000000 1.0
C      1  0.5131480000000  0.5420580000000  0.5033020000000 1.0
C      1  0.4915290000000  0.5195690000000  0.4765120000000 1.0
C      1  0.5166660000000  0.4828030000000  0.4837810000000 1.0
C      1  0.4932110000000  0.4650840000000  0.5201990000000 1.0
C      1  0.5102680000000  0.5080590000000  0.5388660000000 1.0
C      1  0.4997310000000  0.5477390000000  0.5759260000000 1.0
C      1  0.4980020000000  0.5989520000000  0.4808380000000 1.0
C      1  0.4964620000000  0.5062710000000  0.4032950000000 1.0
C      1  0.5038430000000  0.4136190000000  0.4445270000000 1.0
C      1  0.5008970000000  0.4227410000000  0.5675130000000 1.0
C      1  0.5944460000000  0.4769300000000  0.5017790000000 1.0
C      1  0.5884760000000  0.4942570000000  0.5402010000000 1.0
C      1  0.5892990000000  0.5337030000000  0.5109200000000 1.0
C      1  0.6032280000000  0.5232950000000  0.4650620000000 1.0
C      1  0.5993150000000  0.4739790000000  0.4695060000000 1.0
C      1  0.5877210000000  0.5151340000000  0.5636020000000 1.0
C      1  0.5963090000000  0.5431470000000  0.4839460000000 1.0
C      1  0.5841810000000  0.5200780000000  0.4427220000000 1.0
C      1  0.5838110000000  0.4523120000000  0.4619380000000 1.0
C      1  0.5880100000000  0.4568010000000  0.5209220000000 1.0
C      1  0.5146880000000  0.4520900000000  0.4972670000000 1.0
C      1  0.5052920000000  0.4765060000000  0.5505170000000 1.0
C      1  0.5081470000000  0.5418840000000  0.5373140000000 1.0
C      1  0.5124220000000  0.5620670000000  0.4758200000000 1.0
C      1  0.5144690000000  0.4897760000000  0.4352680000000 1.0
C      1  0.5410350000000  0.5069450000000  0.5359200000000 1.0
C      1  0.5439240000000  0.5525080000000  0.5086440000000 1.0
C      1  0.5499180000000  0.5120140000000  0.4725920000000 1.0
C      1  0.5326800000000  0.4782970000000  0.4597660000000 1.0
C      1  0.5443450000000  0.4657580000000  0.5067840000000 1.0
C      1  0.4268520000000  0.5050360000000  0.5041440000000 1.0
C      1  0.3482520000000  0.4946040000000  0.5029500000000 1.0
C      1  0.5165260000000  0.5117210000000  0.4950860000000 1.0
C      1  0.7667940000000  0.4868930000000  0.5276930000000 1.0
C      1  0.2684870000000  0.4941390000000  0.5007530000000 1.0
C      1  0.7159230000000  0.4925330000000  0.5147690000000 1.0
C      1  0.6905740000000  0.4939350000000  0.5066980000000 1.0
C      1  0.2950620000000  0.4932380000000  0.5023760000000 1.0
C      1  0.2159530000000  0.4992060000000  0.4995930000000 1.0
C      1  0.5800150000000  0.5041020000000  0.5106470000000 1.0
C      1  0.6160700000000  0.4986090000000  0.4761320000000 1.0
C      1  0.6660200000000  0.4971700000000  0.4968940000000 1.0
C      1  0.4588920000000  0.5010820000000  0.4934310000000 1.0
C      1  0.4011700000000  0.5000300000000  0.5037680000000 1.0
C      1  0.5469380000000  0.4993440000000  0.5040020000000 1.0
C      1  0.3216870000000  0.4932520000000  0.5015290000000 1.0
C      1  0.7412720000000  0.4886410000000  0.5219780000000 1.0
C      1  0.6409530000000  0.4979770000000  0.4879340000000 1.0
C      1  0.3747390000000  0.4972020000000  0.5020490000000 1.0
C      1  0.2419470000000  0.4963560000000  0.5014110000000 1.0
END
