TITL C-3289323-3850-206 -0.00134321600189031 125000 -459.166571560054 0 0 83 (C1) n - 1
REM
REM in /nfs/bkarasulu/CARBON/AIRSS/Generating-Clusters/AIREBO/with-SteepDescent/Higher-Symm/SD-CG/HFTN-CG
REM
REM
REM
REM
REM
REM ./C.cell (b20cbc046b6831c77cfcea5457e17084)
REM
REM compiler GCC version 9.2.1 20190827 (Red Hat 9.2.1-1)
REM options -cpp -mtune=generic -march=x86-64 -g -O0 -fpre-include=/usr/include/finclude/math-vector-fortran.h
REM seed -422080164 58056742 1619728946 -1341463326 -2134174849 -949440348 -1966859943 21281036 -938510358 647861356 -1333807684 -1042160165 1313797371 1869405934 1940013409 704536599 -2139979329 757478695 1415801531 -1637144877 1146984330 300769410 1077949739 -557745315 -325060259 -1173062186 777300345 1791934197 50494234 -520614866 -1878718987 1589620725 -1324979924
REM
CELL 1.54180   50.00000   50.00000   50.00000   90.00000   90.00000   90.00000
LATT -1
SFAC C  
C      1  0.5247230000000  0.4988130000000  0.4612860000000 1.0
C      1  0.5311970000000  0.4769440000000  0.4830830000000 1.0
C      1  0.5520410000000  0.4774670000000  0.5099850000000 1.0
C      1  0.5373610000000  0.4840920000000  0.5399430000000 1.0
C      1  0.5199640000000  0.5216810000000  0.5287510000000 1.0
C      1  0.5368680000000  0.5296410000000  0.4998540000000 1.0
C      1  0.5413430000000  0.5256940000000  0.4684580000000 1.0
C      1  0.5560530000000  0.4864670000000  0.5748850000000 1.0
C      1  0.5564380000000  0.5399610000000  0.5594300000000 1.0
C      1  0.5516940000000  0.5658690000000  0.5072260000000 1.0
C      1  0.5617230000000  0.5395450000000  0.4372180000000 1.0
C      1  0.5491030000000  0.4787150000000  0.4268580000000 1.0
C      1  0.5516720000000  0.4339200000000  0.4717030000000 1.0
C      1  0.5582450000000  0.4389290000000  0.5418810000000 1.0
C      1  0.4625270000000  0.5363710000000  0.4464950000000 1.0
C      1  0.4501150000000  0.4943350000000  0.4409240000000 1.0
C      1  0.4575490000000  0.4277390000000  0.4769900000000 1.0
C      1  0.4604080000000  0.4593960000000  0.5316330000000 1.0
C      1  0.4444800000000  0.4950890000000  0.5645500000000 1.0
C      1  0.4456460000000  0.5471900000000  0.5435100000000 1.0
C      1  0.4462310000000  0.5671310000000  0.5170060000000 1.0
C      1  0.5051560000000  0.5393640000000  0.5073530000000 1.0
C      1  0.5087840000000  0.5468790000000  0.4773030000000 1.0
C      1  0.5031150000000  0.5164490000000  0.4747980000000 1.0
C      1  0.4972440000000  0.4773390000000  0.4803930000000 1.0
C      1  0.5019860000000  0.4495130000000  0.4929480000000 1.0
C      1  0.5147370000000  0.4587630000000  0.5188810000000 1.0
C      1  0.5064450000000  0.4904960000000  0.5278670000000 1.0
C      1  0.5282640000000  0.4346530000000  0.5364810000000 1.0
C      1  0.5239240000000  0.4816960000000  0.5707620000000 1.0
C      1  0.5267850000000  0.5406840000000  0.5538170000000 1.0
C      1  0.5267820000000  0.5755450000000  0.5051540000000 1.0
C      1  0.5309290000000  0.5471190000000  0.4440180000000 1.0
C      1  0.5191060000000  0.4861100000000  0.4332380000000 1.0
C      1  0.5215060000000  0.4301360000000  0.4731980000000 1.0
C      1  0.4297010000000  0.5374890000000  0.5148910000000 1.0
C      1  0.4242600000000  0.5321340000000  0.4817460000000 1.0
C      1  0.4376100000000  0.5197550000000  0.4529510000000 1.0
C      1  0.4480480000000  0.4569980000000  0.4806230000000 1.0
C      1  0.4341430000000  0.4601910000000  0.5115460000000 1.0
C      1  0.4384100000000  0.4853850000000  0.5336910000000 1.0
C      1  0.4302470000000  0.5171960000000  0.5427470000000 1.0
C      1  0.5034560000000  0.4096510000000  0.4929650000000 1.0
C      1  0.4999210000000  0.4415590000000  0.5517210000000 1.0
C      1  0.4991130000000  0.5019860000000  0.5724450000000 1.0
C      1  0.5019190000000  0.5619260000000  0.5475400000000 1.0
C      1  0.5008810000000  0.5791400000000  0.4833880000000 1.0
C      1  0.5053910000000  0.5363480000000  0.4254850000000 1.0
C      1  0.4965390000000  0.4604850000000  0.4326680000000 1.0
C      1  0.5682490000000  0.4836700000000  0.4516740000000 1.0
C      1  0.5584480000000  0.4608660000000  0.4742640000000 1.0
C      1  0.5700980000000  0.4626090000000  0.5332250000000 1.0
C      1  0.5686370000000  0.4949500000000  0.5444360000000 1.0
C      1  0.5708420000000  0.5251000000000  0.5406270000000 1.0
C      1  0.5665100000000  0.5356510000000  0.5121850000000 1.0
C      1  0.5692660000000  0.5154510000000  0.4530460000000 1.0
C      1  0.5039450000000  0.5662840000000  0.4518140000000 1.0
C      1  0.5005750000000  0.5096400000000  0.4193360000000 1.0
C      1  0.4998520000000  0.4380010000000  0.4481310000000 1.0
C      1  0.5038850000000  0.4169220000000  0.5206690000000 1.0
C      1  0.4978830000000  0.4624740000000  0.5681020000000 1.0
C      1  0.4999880000000  0.5258560000000  0.5631400000000 1.0
C      1  0.5026660000000  0.5760020000000  0.5231170000000 1.0
C      1  0.4754550000000  0.4368920000000  0.5013780000000 1.0
C      1  0.4770700000000  0.4858020000000  0.5433120000000 1.0
C      1  0.4692840000000  0.5163630000000  0.5343070000000 1.0
C      1  0.4746900000000  0.5397660000000  0.5114400000000 1.0
C      1  0.4565330000000  0.5306020000000  0.4863680000000 1.0
C      1  0.4740660000000  0.5119130000000  0.4671130000000 1.0
C      1  0.4670680000000  0.4786130000000  0.4658520000000 1.0
C      1  0.4758420000000  0.5722550000000  0.5055960000000 1.0
C      1  0.4812240000000  0.5516680000000  0.4341560000000 1.0
C      1  0.4795990000000  0.4876100000000  0.4290630000000 1.0
C      1  0.4843540000000  0.4179030000000  0.4674640000000 1.0
C      1  0.4758700000000  0.4313220000000  0.5335280000000 1.0
C      1  0.4722460000000  0.4831630000000  0.5766950000000 1.0
C      1  0.4747410000000  0.5435510000000  0.5539980000000 1.0
C      1  0.4916110000000  0.4997450000000  0.5008730000000 1.0
C      1  0.4168790000000  0.5009830000000  0.4814710000000 1.0
C      1  0.4610740000000  0.5031490000000  0.5038450000000 1.0
C      1  0.5815980000000  0.5158080000000  0.4925190000000 1.0
C      1  0.4383030000000  0.4861550000000  0.4925910000000 1.0
C      1  0.5696680000000  0.4913410000000  0.4847710000000 1.0
END
