TITL C-3289335-9438-169 -4.68715591577371e-05 125000 -996.755701153089 0 0 181 (C1) n - 1
REM
REM in /nfs/bkarasulu/CARBON/AIRSS/Generating-Clusters/AIREBO/with-SteepDescent/Higher-Symm/SD-CG/HFTN-CG
REM
REM
REM
REM
REM
REM ./C.cell (b20cbc046b6831c77cfcea5457e17084)
REM
REM compiler GCC version 9.2.1 20190827 (Red Hat 9.2.1-1)
REM options -cpp -mtune=generic -march=x86-64 -g -O0 -fpre-include=/usr/include/finclude/math-vector-fortran.h
REM seed 1004284699 -104529797 -466833603 394968030 -1734091275 870845387 -2055269716 -1255376013 314358958 1164751320 -1943184821 -594990771 -680017686 -677167452 -1456036876 1237442923 -1025126244 -569148900 -570226614 1989658725 265005321 -1649856512 1699723819 2029934907 694529397 2133636500 -424811058 -623348576 -988420321 -1339303744 57355410 230509198 1071863146
REM
CELL 1.54180   50.00000   50.00000   50.00000   90.00000   90.00000   90.00000
LATT -1
SFAC C  
C      1  0.4314870000000  0.4591800000000  0.4214910000000 1.0
C      1  0.5672250000000  0.4755550000000  0.4370520000000 1.0
C      1  0.5669120000000  0.4544060000000  0.5772710000000 1.0
C      1  0.4296770000000  0.4699900000000  0.5702870000000 1.0
C      1  0.5700080000000  0.5414320000000  0.4209770000000 1.0
C      1  0.4337950000000  0.5268350000000  0.4390730000000 1.0
C      1  0.4361980000000  0.5463850000000  0.5797860000000 1.0
C      1  0.5820680000000  0.5384240000000  0.5719070000000 1.0
C      1  0.4378520000000  0.5985840000000  0.5059340000000 1.0
C      1  0.4910290000000  0.5986620000000  0.4446180000000 1.0
C      1  0.5478570000000  0.6013400000000  0.5011810000000 1.0
C      1  0.5027080000000  0.5951990000000  0.5479480000000 1.0
C      1  0.5591230000000  0.3990210000000  0.5013420000000 1.0
C      1  0.5033150000000  0.3962130000000  0.4476070000000 1.0
C      1  0.4446480000000  0.4006250000000  0.4950360000000 1.0
C      1  0.4926850000000  0.3948290000000  0.5473990000000 1.0
C      1  0.4133560000000  0.5268560000000  0.4827690000000 1.0
C      1  0.5262420000000  0.5316030000000  0.3896340000000 1.0
C      1  0.5952770000000  0.5300530000000  0.5255520000000 1.0
C      1  0.4791270000000  0.5368490000000  0.6056080000000 1.0
C      1  0.5951550000000  0.4751520000000  0.4782260000000 1.0
C      1  0.4747890000000  0.4653040000000  0.3930480000000 1.0
C      1  0.4052800000000  0.4715240000000  0.5274200000000 1.0
C      1  0.5223620000000  0.4650640000000  0.6022240000000 1.0
C      1  0.5816070000000  0.4239900000000  0.4960950000000 1.0
C      1  0.5024340000000  0.4059580000000  0.5768940000000 1.0
C      1  0.4220960000000  0.4205780000000  0.5079290000000 1.0
C      1  0.4906390000000  0.4069650000000  0.4178820000000 1.0
C      1  0.4177960000000  0.5803550000000  0.4931300000000 1.0
C      1  0.5012400000000  0.5878580000000  0.5816240000000 1.0
C      1  0.5762490000000  0.5849080000000  0.5105320000000 1.0
C      1  0.5066670000000  0.5922210000000  0.4218150000000 1.0
C      1  0.5340430000000  0.4893410000000  0.5201090000000 1.0
C      1  0.4773130000000  0.4974180000000  0.5433810000000 1.0
C      1  0.4723830000000  0.4937730000000  0.4956340000000 1.0
C      1  0.5137680000000  0.4857260000000  0.4601470000000 1.0
C      1  0.4651860000000  0.5123530000000  0.5180150000000 1.0
C      1  0.5093970000000  0.5070780000000  0.5354160000000 1.0
C      1  0.5275430000000  0.5063500000000  0.4913820000000 1.0
C      1  0.4898160000000  0.5089200000000  0.4569260000000 1.0
C      1  0.4793850000000  0.4139750000000  0.5092740000000 1.0
C      1  0.4862160000000  0.4230590000000  0.4772290000000 1.0
C      1  0.5279750000000  0.4224240000000  0.4948160000000 1.0
C      1  0.5094020000000  0.4188710000000  0.5203000000000 1.0
C      1  0.5173560000000  0.5760050000000  0.5047300000000 1.0
C      1  0.5192180000000  0.5900480000000  0.4758340000000 1.0
C      1  0.4674410000000  0.5795410000000  0.4871630000000 1.0
C      1  0.4872210000000  0.5783610000000  0.5136780000000 1.0
C      1  0.4188000000000  0.4327340000000  0.4581350000000 1.0
C      1  0.5317030000000  0.4308100000000  0.4174330000000 1.0
C      1  0.5775350000000  0.4246840000000  0.5409760000000 1.0
C      1  0.4616530000000  0.4351230000000  0.5793220000000 1.0
C      1  0.5915800000000  0.5860550000000  0.4799560000000 1.0
C      1  0.4718950000000  0.5561700000000  0.4000420000000 1.0
C      1  0.4129620000000  0.5694380000000  0.5419410000000 1.0
C      1  0.5335390000000  0.5841700000000  0.5913010000000 1.0
C      1  0.4339360000000  0.5189380000000  0.5159650000000 1.0
C      1  0.4907920000000  0.5155470000000  0.4253230000000 1.0
C      1  0.5674680000000  0.5119080000000  0.4938550000000 1.0
C      1  0.5070770000000  0.5078550000000  0.5678890000000 1.0
C      1  0.5667680000000  0.4847690000000  0.5120220000000 1.0
C      1  0.5087250000000  0.4881050000000  0.4286150000000 1.0
C      1  0.4321020000000  0.4934580000000  0.4961430000000 1.0
C      1  0.4897970000000  0.4817780000000  0.5705210000000 1.0
C      1  0.4504200000000  0.5819120000000  0.4628130000000 1.0
C      1  0.5385030000000  0.5888250000000  0.4507580000000 1.0
C      1  0.5401710000000  0.5842990000000  0.5274850000000 1.0
C      1  0.4706830000000  0.5867360000000  0.5402680000000 1.0
C      1  0.5487410000000  0.4113970000000  0.4701550000000 1.0
C      1  0.4707330000000  0.4065230000000  0.4518700000000 1.0
C      1  0.4524810000000  0.4046960000000  0.5279060000000 1.0
C      1  0.5257820000000  0.4022510000000  0.5450390000000 1.0
C      1  0.5096950000000  0.4591910000000  0.5716750000000 1.0
C      1  0.4342190000000  0.4647560000000  0.5114550000000 1.0
C      1  0.4893100000000  0.4621940000000  0.4236410000000 1.0
C      1  0.5618240000000  0.4739690000000  0.4829570000000 1.0
C      1  0.4903500000000  0.5348130000000  0.5735700000000 1.0
C      1  0.5638030000000  0.5374200000000  0.5149660000000 1.0
C      1  0.5123890000000  0.5389290000000  0.4198150000000 1.0
C      1  0.4471870000000  0.5287050000000  0.4862110000000 1.0
C      1  0.6052610000000  0.4872290000000  0.5014960000000 1.0
C      1  0.4989880000000  0.4868500000000  0.6089520000000 1.0
C      1  0.3937600000000  0.4883810000000  0.5059660000000 1.0
C      1  0.5011450000000  0.4819140000000  0.3898830000000 1.0
C      1  0.3963280000000  0.5165610000000  0.5032750000000 1.0
C      1  0.5023860000000  0.5155120000000  0.6068460000000 1.0
C      1  0.6059770000000  0.5152350000000  0.5033340000000 1.0
C      1  0.5020620000000  0.5103860000000  0.3873800000000 1.0
C      1  0.5214820000000  0.6189910000000  0.4946770000000 1.0
C      1  0.4980400000000  0.6103630000000  0.5175470000000 1.0
C      1  0.4689140000000  0.6104430000000  0.4986810000000 1.0
C      1  0.4940920000000  0.6119740000000  0.4757810000000 1.0
C      1  0.4725800000000  0.3817860000000  0.4997170000000 1.0
C      1  0.4996050000000  0.3802830000000  0.5190790000000 1.0
C      1  0.5265990000000  0.3889290000000  0.5004960000000 1.0
C      1  0.4990560000000  0.3922040000000  0.4811000000000 1.0
C      1  0.5446990000000  0.4500170000000  0.5295330000000 1.0
C      1  0.4728970000000  0.4519500000000  0.5441460000000 1.0
C      1  0.4538690000000  0.4510710000000  0.4711570000000 1.0
C      1  0.5292170000000  0.4425330000000  0.4544180000000 1.0
C      1  0.4420910000000  0.5527710000000  0.5354890000000 1.0
C      1  0.5430250000000  0.5492090000000  0.5517180000000 1.0
C      1  0.5479740000000  0.5516430000000  0.4669830000000 1.0
C      1  0.4768840000000  0.5529240000000  0.4406880000000 1.0
C      1  0.4780280000000  0.4606200000000  0.4931000000000 1.0
C      1  0.5068970000000  0.4572170000000  0.4754540000000 1.0
C      1  0.5235860000000  0.4606720000000  0.5050770000000 1.0
C      1  0.4951950000000  0.4560790000000  0.5220960000000 1.0
C      1  0.5239310000000  0.5353430000000  0.4846620000000 1.0
C      1  0.4950730000000  0.5405520000000  0.4666330000000 1.0
C      1  0.4680510000000  0.5435730000000  0.5236370000000 1.0
C      1  0.5162980000000  0.5379190000000  0.5365010000000 1.0
C      1  0.4629050000000  0.4797670000000  0.4358870000000 1.0
C      1  0.5436930000000  0.4922170000000  0.4684300000000 1.0
C      1  0.5316080000000  0.4737090000000  0.5507580000000 1.0
C      1  0.4525750000000  0.4746840000000  0.5381520000000 1.0
C      1  0.5357570000000  0.5148820000000  0.4254550000000 1.0
C      1  0.4610400000000  0.5045990000000  0.4689960000000 1.0
C      1  0.4636090000000  0.5168830000000  0.5676890000000 1.0
C      1  0.5520360000000  0.5144730000000  0.5342870000000 1.0
C      1  0.5240850000000  0.4688970000000  0.4051350000000 1.0
C      1  0.5934720000000  0.4695040000000  0.5251650000000 1.0
C      1  0.4709870000000  0.4776520000000  0.5951590000000 1.0
C      1  0.4080310000000  0.4756600000000  0.4800220000000 1.0
C      1  0.4742550000000  0.5233430000000  0.3972020000000 1.0
C      1  0.4060100000000  0.5322450000000  0.5301030000000 1.0
C      1  0.5267210000000  0.5258160000000  0.5872870000000 1.0
C      1  0.5914090000000  0.5283920000000  0.4762120000000 1.0
C      1  0.5433920000000  0.4452940000000  0.5878330000000 1.0
C      1  0.4180280000000  0.4547730000000  0.5488690000000 1.0
C      1  0.4540710000000  0.4492720000000  0.4100680000000 1.0
C      1  0.5851790000000  0.4607920000000  0.4535400000000 1.0
C      1  0.4600510000000  0.5557080000000  0.5887190000000 1.0
C      1  0.5879520000000  0.5485080000000  0.5473060000000 1.0
C      1  0.5480880000000  0.5510380000000  0.4069910000000 1.0
C      1  0.4217330000000  0.5434110000000  0.4591000000000 1.0
C      1  0.5213670000000  0.5529480000000  0.4489910000000 1.0
C      1  0.5322120000000  0.5486850000000  0.5113520000000 1.0
C      1  0.4890150000000  0.5514300000000  0.5439320000000 1.0
C      1  0.4729380000000  0.5485330000000  0.4912580000000 1.0
C      1  0.4876920000000  0.4426710000000  0.4514370000000 1.0
C      1  0.4570970000000  0.4396560000000  0.5098060000000 1.0
C      1  0.5100680000000  0.4385730000000  0.5456420000000 1.0
C      1  0.5495080000000  0.4463880000000  0.4883420000000 1.0
C      1  0.4183210000000  0.4451820000000  0.4885150000000 1.0
C      1  0.5037880000000  0.4341290000000  0.4109870000000 1.0
C      1  0.5904620000000  0.4376520000000  0.5198690000000 1.0
C      1  0.4909300000000  0.4329570000000  0.5824430000000 1.0
C      1  0.5821990000000  0.5562680000000  0.4931990000000 1.0
C      1  0.4969090000000  0.5664380000000  0.4088350000000 1.0
C      1  0.4119840000000  0.5590260000000  0.5101640000000 1.0
C      1  0.5143870000000  0.5566560000000  0.5847830000000 1.0
C      1  0.4284470000000  0.4656660000000  0.4547320000000 1.0
C      1  0.5443040000000  0.4589700000000  0.4288350000000 1.0
C      1  0.5698790000000  0.4651260000000  0.5466920000000 1.0
C      1  0.4502710000000  0.4595470000000  0.5872060000000 1.0
C      1  0.5697570000000  0.5332140000000  0.4531250000000 1.0
C      1  0.4567510000000  0.5364340000000  0.4232460000000 1.0
C      1  0.4279980000000  0.5286080000000  0.5542910000000 1.0
C      1  0.5536590000000  0.5246320000000  0.5727170000000 1.0
C      1  0.4250770000000  0.5715360000000  0.4664240000000 1.0
C      1  0.5333050000000  0.5726280000000  0.4239630000000 1.0
C      1  0.5678830000000  0.5696010000000  0.5382110000000 1.0
C      1  0.4772550000000  0.5720500000000  0.5683140000000 1.0
C      1  0.5726770000000  0.4352330000000  0.4662550000000 1.0
C      1  0.4675740000000  0.4289880000000  0.4271190000000 1.0
C      1  0.4354620000000  0.4330650000000  0.5357660000000 1.0
C      1  0.5295410000000  0.4246340000000  0.5703800000000 1.0
C      1  0.5319090000000  0.5804720000000  0.5578530000000 1.0
C      1  0.4409460000000  0.5867330000000  0.5343520000000 1.0
C      1  0.4697970000000  0.5798090000000  0.4434800000000 1.0
C      1  0.5584020000000  0.5825720000000  0.4750470000000 1.0
C      1  0.4703430000000  0.4203230000000  0.5506130000000 1.0
C      1  0.5486000000000  0.4166550000000  0.5285810000000 1.0
C      1  0.5311330000000  0.4102300000000  0.4444150000000 1.0
C      1  0.4473780000000  0.4183670000000  0.4696930000000 1.0
C      1  0.4383030000000  0.4985690000000  0.5576990000000 1.0
C      1  0.5576930000000  0.5052830000000  0.4446910000000 1.0
C      1  0.5573940000000  0.4944940000000  0.5584450000000 1.0
C      1  0.4382650000000  0.4975290000000  0.4480740000000 1.0
C      1  0.5015260000000  0.4930490000000  0.4973110000000 1.0
END
