TITL C-3289321-8710-465 -200.888578576555 125000 -735.739153424382 0 0 137 (C1) n - 1
REM
REM in /nfs/bkarasulu/CARBON/AIRSS/Generating-Clusters/AIREBO/with-SteepDescent/Higher-Symm/SD-CG/HFTN-CG
REM
REM
REM
REM
REM
REM ./C.cell (b20cbc046b6831c77cfcea5457e17084)
REM
REM compiler GCC version 9.2.1 20190827 (Red Hat 9.2.1-1)
REM options -cpp -mtune=generic -march=x86-64 -g -O0 -fpre-include=/usr/include/finclude/math-vector-fortran.h
REM seed -158567780 -1398445738 -435223438 436403405 29136484 -213254837 -439977837 423067836 -611122288 1106880381 1576713135 499077396 -211853177 1156839232 1866691734 -1245075595 1339592045 -1573991664 -1301338324 1024677350 -1703246532 1205320600 -244687363 1636471248 1471375178 -2116950420 -2015341688 334064119 -567044795 -2073962046 -249018421 -1608620584 1842707550
REM
CELL 1.54180   50.00000   50.00000   50.00000   90.00000   90.00000   90.00000
LATT -1
SFAC C  
C      1  0.5455470000000  0.5221780000000  0.4466500000000 1.0
C      1  0.4477960000000  0.4726230000000  0.4412980000000 1.0
C      1  0.5576430000000  0.4731400000000  0.4440660000000 1.0
C      1  0.4506340000000  0.5284640000000  0.4395620000000 1.0
C      1  0.5107750000000  0.4105560000000  0.5062710000000 1.0
C      1  0.4814850000000  0.5954230000000  0.5106370000000 1.0
C      1  0.5101240000000  0.5858310000000  0.5058460000000 1.0
C      1  0.4819680000000  0.4019840000000  0.5093260000000 1.0
C      1  0.4877660000000  0.4429270000000  0.4221400000000 1.0
C      1  0.5138170000000  0.5505170000000  0.4270270000000 1.0
C      1  0.4852630000000  0.5597710000000  0.4217600000000 1.0
C      1  0.5137570000000  0.4326620000000  0.4179390000000 1.0
C      1  0.4010220000000  0.4460420000000  0.4807210000000 1.0
C      1  0.5936600000000  0.5389160000000  0.4814360000000 1.0
C      1  0.4129960000000  0.5382870000000  0.4883910000000 1.0
C      1  0.5965060000000  0.4488270000000  0.4741700000000 1.0
C      1  0.5101990000000  0.4871570000000  0.4544680000000 1.0
C      1  0.4822870000000  0.5368230000000  0.4466770000000 1.0
C      1  0.5116650000000  0.5198020000000  0.4445920000000 1.0
C      1  0.4867840000000  0.4647570000000  0.4445480000000 1.0
C      1  0.4790720000000  0.5555490000000  0.4990150000000 1.0
C      1  0.5154960000000  0.4437030000000  0.5003150000000 1.0
C      1  0.4833580000000  0.4520630000000  0.5015880000000 1.0
C      1  0.5128460000000  0.5522530000000  0.5011920000000 1.0
C      1  0.4675200000000  0.4268330000000  0.4368730000000 1.0
C      1  0.5313160000000  0.5679300000000  0.4408450000000 1.0
C      1  0.4647030000000  0.5761530000000  0.4373820000000 1.0
C      1  0.5303600000000  0.4308660000000  0.4406330000000 1.0
C      1  0.5626860000000  0.5863290000000  0.4898000000000 1.0
C      1  0.4399490000000  0.4135000000000  0.4909420000000 1.0
C      1  0.5638480000000  0.4158470000000  0.4934510000000 1.0
C      1  0.4381780000000  0.5878090000000  0.4923460000000 1.0
C      1  0.5177540000000  0.5723950000000  0.5454840000000 1.0
C      1  0.4878450000000  0.4274920000000  0.5487620000000 1.0
C      1  0.5217130000000  0.4244020000000  0.5489580000000 1.0
C      1  0.4870530000000  0.5766020000000  0.5552990000000 1.0
C      1  0.5110220000000  0.4860230000000  0.5842630000000 1.0
C      1  0.4834660000000  0.5147120000000  0.5883800000000 1.0
C      1  0.5145460000000  0.5155940000000  0.5863160000000 1.0
C      1  0.4808690000000  0.4847620000000  0.5872900000000 1.0
C      1  0.5143770000000  0.5520340000000  0.5706100000000 1.0
C      1  0.4809770000000  0.4475180000000  0.5734580000000 1.0
C      1  0.5133830000000  0.4454650000000  0.5732170000000 1.0
C      1  0.4836660000000  0.5543380000000  0.5782840000000 1.0
C      1  0.5158900000000  0.4511650000000  0.5330930000000 1.0
C      1  0.4860980000000  0.5529910000000  0.5308360000000 1.0
C      1  0.5177220000000  0.5411630000000  0.5324260000000 1.0
C      1  0.4845940000000  0.4578320000000  0.5350790000000 1.0
C      1  0.4559050000000  0.5108680000000  0.4123610000000 1.0
C      1  0.5505640000000  0.4840200000000  0.4158870000000 1.0
C      1  0.4559200000000  0.4855420000000  0.4141150000000 1.0
C      1  0.5476870000000  0.5093270000000  0.4152430000000 1.0
C      1  0.5567100000000  0.4868790000000  0.5883490000000 1.0
C      1  0.4377270000000  0.5123230000000  0.5918010000000 1.0
C      1  0.5578500000000  0.5121350000000  0.5866370000000 1.0
C      1  0.4378400000000  0.4874190000000  0.5872070000000 1.0
C      1  0.5537100000000  0.4436530000000  0.4477510000000 1.0
C      1  0.4433830000000  0.5590300000000  0.4487000000000 1.0
C      1  0.5536290000000  0.5527700000000  0.4498970000000 1.0
C      1  0.4458050000000  0.4429050000000  0.4462650000000 1.0
C      1  0.5175750000000  0.4832930000000  0.5413900000000 1.0
C      1  0.4847270000000  0.5194420000000  0.5372790000000 1.0
C      1  0.5143960000000  0.5120130000000  0.5450870000000 1.0
C      1  0.4780120000000  0.4881780000000  0.5427760000000 1.0
C      1  0.4161120000000  0.4307590000000  0.5080220000000 1.0
C      1  0.5809160000000  0.5704150000000  0.5128420000000 1.0
C      1  0.4165020000000  0.5741610000000  0.5149740000000 1.0
C      1  0.5837590000000  0.4378260000000  0.5109680000000 1.0
C      1  0.4490060000000  0.5528250000000  0.5079320000000 1.0
C      1  0.5477120000000  0.4512030000000  0.5019950000000 1.0
C      1  0.4500450000000  0.4504750000000  0.5021650000000 1.0
C      1  0.5468060000000  0.5522110000000  0.5028770000000 1.0
C      1  0.5557670000000  0.5552540000000  0.5559480000000 1.0
C      1  0.4395410000000  0.4459010000000  0.5537910000000 1.0
C      1  0.5559070000000  0.4446880000000  0.5571170000000 1.0
C      1  0.4391950000000  0.5581430000000  0.5626690000000 1.0
C      1  0.5146870000000  0.4231090000000  0.4661940000000 1.0
C      1  0.4832250000000  0.5900000000000  0.4613170000000 1.0
C      1  0.5145180000000  0.5775590000000  0.4663670000000 1.0
C      1  0.4826180000000  0.4135430000000  0.4624550000000 1.0
C      1  0.5511670000000  0.5220620000000  0.5066130000000 1.0
C      1  0.4583830000000  0.4801210000000  0.5153170000000 1.0
C      1  0.5381990000000  0.4786610000000  0.5148760000000 1.0
C      1  0.4597850000000  0.5259920000000  0.5175300000000 1.0
C      1  0.5567750000000  0.4821300000000  0.5431510000000 1.0
C      1  0.4458620000000  0.5180690000000  0.5454640000000 1.0
C      1  0.5553010000000  0.5147240000000  0.5385640000000 1.0
C      1  0.4385660000000  0.4867270000000  0.5421540000000 1.0
C      1  0.4157870000000  0.5177960000000  0.5319340000000 1.0
C      1  0.5831350000000  0.4887570000000  0.5264710000000 1.0
C      1  0.4091530000000  0.4856140000000  0.5297060000000 1.0
C      1  0.5862250000000  0.5205440000000  0.5256110000000 1.0
C      1  0.5031090000000  0.5201280000000  0.4892810000000 1.0
C      1  0.4855440000000  0.4847230000000  0.4946260000000 1.0
C      1  0.5192130000000  0.4922520000000  0.4927730000000 1.0
C      1  0.4711430000000  0.5146470000000  0.4923730000000 1.0
C      1  0.5665600000000  0.4418270000000  0.4752850000000 1.0
C      1  0.4336420000000  0.5591970000000  0.4782350000000 1.0
C      1  0.5674680000000  0.5569600000000  0.4765740000000 1.0
C      1  0.4339170000000  0.4407010000000  0.4739780000000 1.0
C      1  0.5162920000000  0.5435800000000  0.4684890000000 1.0
C      1  0.4791270000000  0.4455180000000  0.4698980000000 1.0
C      1  0.5166300000000  0.4570250000000  0.4690410000000 1.0
C      1  0.4795840000000  0.5588210000000  0.4696990000000 1.0
C      1  0.5896140000000  0.5099370000000  0.4740780000000 1.0
C      1  0.4111210000000  0.4783620000000  0.4787130000000 1.0
C      1  0.6015860000000  0.4803080000000  0.4808510000000 1.0
C      1  0.4182090000000  0.5115880000000  0.4766920000000 1.0
C      1  0.4689200000000  0.4116670000000  0.5322290000000 1.0
C      1  0.5331140000000  0.5942660000000  0.5285720000000 1.0
C      1  0.4685550000000  0.5890880000000  0.5347930000000 1.0
C      1  0.5360090000000  0.4049850000000  0.5283730000000 1.0
C      1  0.4197550000000  0.5145440000000  0.4430520000000 1.0
C      1  0.5885940000000  0.4789460000000  0.4494550000000 1.0
C      1  0.4209670000000  0.4840430000000  0.4484600000000 1.0
C      1  0.5764980000000  0.5084070000000  0.4437130000000 1.0
C      1  0.5358860000000  0.4702520000000  0.5672300000000 1.0
C      1  0.4581950000000  0.5322500000000  0.5738610000000 1.0
C      1  0.5374840000000  0.5278560000000  0.5644050000000 1.0
C      1  0.4585100000000  0.4716980000000  0.5652500000000 1.0
C      1  0.5368190000000  0.4073860000000  0.4866810000000 1.0
C      1  0.4652320000000  0.5960750000000  0.4883070000000 1.0
C      1  0.5356520000000  0.5941430000000  0.4865080000000 1.0
C      1  0.4662830000000  0.4037090000000  0.4868570000000 1.0
C      1  0.5906570000000  0.4676810000000  0.5088580000000 1.0
C      1  0.4096490000000  0.5414680000000  0.5167850000000 1.0
C      1  0.5911370000000  0.5438760000000  0.5098600000000 1.0
C      1  0.4095650000000  0.4642100000000  0.5086120000000 1.0
C      1  0.4693770000000  0.4838280000000  0.4646150000000 1.0
C      1  0.5570450000000  0.5114800000000  0.4784870000000 1.0
C      1  0.4505220000000  0.5102030000000  0.4682420000000 1.0
C      1  0.5405860000000  0.4879380000000  0.4666210000000 1.0
C      1  0.5554510000000  0.4318030000000  0.5288310000000 1.0
C      1  0.4437760000000  0.5719360000000  0.5336970000000 1.0
C      1  0.5541090000000  0.5704620000000  0.5291860000000 1.0
C      1  0.4442270000000  0.4298130000000  0.5271300000000 1.0
C      1  0.5078560000000  0.5072870000000  0.4132020000000 1.0
END
