TITL C-3289325-7307-314 -0.00046255687799436 125000 -920.658428430205 0 0 175 (C1) n - 1
REM
REM in /nfs/bkarasulu/CARBON/AIRSS/Generating-Clusters/AIREBO/with-SteepDescent/Higher-Symm/SD-CG/HFTN-CG
REM
REM
REM
REM
REM
REM ./C.cell (b20cbc046b6831c77cfcea5457e17084)
REM
REM compiler GCC version 9.2.1 20190827 (Red Hat 9.2.1-1)
REM options -cpp -mtune=generic -march=x86-64 -g -O0 -fpre-include=/usr/include/finclude/math-vector-fortran.h
REM seed 1234239886 1544830313 -1980889328 270588547 -1732510931 193944269 1467745260 2041260753 -1529350309 281808140 1021129547 1407963343 -1247855489 -993962873 -992886244 1515870914 1115152247 -1117406930 -1792071518 1404497692 649259411 -837446372 -1726910664 -1705998682 -1534210300 407021002 621337768 -1566301813 98500591 343303179 2024161517 1456019165 2112535718
REM
CELL 1.54180   50.00000   50.00000   50.00000   90.00000   90.00000   90.00000
LATT -1
SFAC C  
C      1  0.5450330000000  0.5754750000000  0.5416220000000 1.0
C      1  0.5869030000000  0.5374850000000  0.5400220000000 1.0
C      1  0.5397840000000  0.5395910000000  0.5879120000000 1.0
C      1  0.4695230000000  0.4257620000000  0.5347710000000 1.0
C      1  0.5447570000000  0.4159350000000  0.4771810000000 1.0
C      1  0.4652120000000  0.5717430000000  0.4593350000000 1.0
C      1  0.4190260000000  0.4654510000000  0.5450840000000 1.0
C      1  0.5894290000000  0.4599980000000  0.4666490000000 1.0
C      1  0.4220620000000  0.5463780000000  0.4661200000000 1.0
C      1  0.4615860000000  0.4631790000000  0.5948320000000 1.0
C      1  0.5468400000000  0.4461550000000  0.4358840000000 1.0
C      1  0.4453140000000  0.5491940000000  0.4328750000000 1.0
C      1  0.5513330000000  0.5824530000000  0.4679110000000 1.0
C      1  0.5747110000000  0.5354060000000  0.4651650000000 1.0
C      1  0.5318710000000  0.5408240000000  0.4220930000000 1.0
C      1  0.4545030000000  0.4182600000000  0.4618380000000 1.0
C      1  0.5433720000000  0.4157620000000  0.5343510000000 1.0
C      1  0.4596490000000  0.5819300000000  0.5302290000000 1.0
C      1  0.4146660000000  0.4678590000000  0.4525010000000 1.0
C      1  0.5748560000000  0.4648710000000  0.5288790000000 1.0
C      1  0.4181280000000  0.5439860000000  0.5431850000000 1.0
C      1  0.4616350000000  0.4551670000000  0.4196580000000 1.0
C      1  0.5335460000000  0.4470730000000  0.5723710000000 1.0
C      1  0.4681150000000  0.5402370000000  0.5789560000000 1.0
C      1  0.5283180000000  0.5165340000000  0.5483870000000 1.0
C      1  0.5221600000000  0.5572980000000  0.5136520000000 1.0
C      1  0.5639150000000  0.5264390000000  0.5092480000000 1.0
C      1  0.4702460000000  0.4802190000000  0.5480940000000 1.0
C      1  0.5234750000000  0.4896690000000  0.4725150000000 1.0
C      1  0.4717900000000  0.5046490000000  0.4762500000000 1.0
C      1  0.4896950000000  0.4609520000000  0.5048160000000 1.0
C      1  0.5207980000000  0.4592800000000  0.4692800000000 1.0
C      1  0.4913440000000  0.5281200000000  0.4915110000000 1.0
C      1  0.4520590000000  0.4728310000000  0.5107020000000 1.0
C      1  0.5493260000000  0.4920100000000  0.4928660000000 1.0
C      1  0.4404110000000  0.5114720000000  0.4853020000000 1.0
C      1  0.5234510000000  0.5106660000000  0.4469560000000 1.0
C      1  0.5170100000000  0.5479990000000  0.4813160000000 1.0
C      1  0.5414280000000  0.5241250000000  0.4849420000000 1.0
C      1  0.4711090000000  0.4921860000000  0.4449330000000 1.0
C      1  0.5272890000000  0.4839790000000  0.5582970000000 1.0
C      1  0.4692760000000  0.5130130000000  0.5360550000000 1.0
C      1  0.4878150000000  0.4522400000000  0.4736070000000 1.0
C      1  0.5167840000000  0.4479570000000  0.5179310000000 1.0
C      1  0.4778710000000  0.5399320000000  0.5171150000000 1.0
C      1  0.4390990000000  0.4783750000000  0.4820280000000 1.0
C      1  0.5238530000000  0.4805560000000  0.5112870000000 1.0
C      1  0.4332110000000  0.5283570000000  0.5097840000000 1.0
C      1  0.4196210000000  0.5293560000000  0.5717430000000 1.0
C      1  0.5275610000000  0.5733610000000  0.4209650000000 1.0
C      1  0.5769830000000  0.4147410000000  0.5292670000000 1.0
C      1  0.5762670000000  0.4744010000000  0.5615080000000 1.0
C      1  0.4292270000000  0.4606440000000  0.4262370000000 1.0
C      1  0.5699080000000  0.5390980000000  0.4358690000000 1.0
C      1  0.4710650000000  0.4255940000000  0.4152710000000 1.0
C      1  0.5455100000000  0.4208230000000  0.5679120000000 1.0
C      1  0.4689800000000  0.5742300000000  0.5787650000000 1.0
C      1  0.4274320000000  0.5759110000000  0.5392820000000 1.0
C      1  0.5828740000000  0.5846150000000  0.4805060000000 1.0
C      1  0.4274230000000  0.4207250000000  0.4823020000000 1.0
C      1  0.4272730000000  0.5272240000000  0.4145840000000 1.0
C      1  0.5387820000000  0.5666930000000  0.5737830000000 1.0
C      1  0.5726370000000  0.4125520000000  0.4749070000000 1.0
C      1  0.5759850000000  0.4635050000000  0.4382730000000 1.0
C      1  0.4318390000000  0.4645740000000  0.5755710000000 1.0
C      1  0.5848400000000  0.5301740000000  0.5725120000000 1.0
C      1  0.4734570000000  0.4335660000000  0.5830320000000 1.0
C      1  0.5273120000000  0.4196320000000  0.4315510000000 1.0
C      1  0.4594890000000  0.5755650000000  0.4200160000000 1.0
C      1  0.4355570000000  0.5865230000000  0.4670450000000 1.0
C      1  0.5753680000000  0.5830540000000  0.5345330000000 1.0
C      1  0.4380570000000  0.4199520000000  0.5385920000000 1.0
C      1  0.6195840000000  0.5115590000000  0.4745990000000 1.0
C      1  0.5134080000000  0.4591210000000  0.6133950000000 1.0
C      1  0.4570960000000  0.6095540000000  0.5119880000000 1.0
C      1  0.3869500000000  0.4835480000000  0.4545600000000 1.0
C      1  0.6120680000000  0.4954600000000  0.5411820000000 1.0
C      1  0.3895940000000  0.5155550000000  0.5412380000000 1.0
C      1  0.4834650000000  0.5426070000000  0.6085540000000 1.0
C      1  0.5151230000000  0.5468620000000  0.3942550000000 1.0
C      1  0.4867530000000  0.4744360000000  0.3897050000000 1.0
C      1  0.5337560000000  0.3933700000000  0.5118060000000 1.0
C      1  0.4747310000000  0.3885810000000  0.4787330000000 1.0
C      1  0.5260320000000  0.6095180000000  0.4827330000000 1.0
C      1  0.6128370000000  0.5199120000000  0.5464860000000 1.0
C      1  0.5105300000000  0.4656680000000  0.3893490000000 1.0
C      1  0.4731670000000  0.6113140000000  0.4922150000000 1.0
C      1  0.3857960000000  0.4902690000000  0.5426220000000 1.0
C      1  0.6051340000000  0.4890550000000  0.4719530000000 1.0
C      1  0.3871370000000  0.5070790000000  0.4631260000000 1.0
C      1  0.4878170000000  0.5442400000000  0.3926330000000 1.0
C      1  0.5097630000000  0.5363880000000  0.6063900000000 1.0
C      1  0.4881570000000  0.4613420000000  0.6159830000000 1.0
C      1  0.5252840000000  0.3733570000000  0.4907890000000 1.0
C      1  0.4727120000000  0.3805790000000  0.5026670000000 1.0
C      1  0.5304970000000  0.6083520000000  0.5075300000000 1.0
C      1  0.5146090000000  0.4030520000000  0.4781150000000 1.0
C      1  0.3982110000000  0.4697210000000  0.5185340000000 1.0
C      1  0.4739340000000  0.5314430000000  0.4123540000000 1.0
C      1  0.4860300000000  0.5841110000000  0.4810830000000 1.0
C      1  0.5115200000000  0.5879740000000  0.5237740000000 1.0
C      1  0.4855560000000  0.4010180000000  0.5233910000000 1.0
C      1  0.5916410000000  0.5163060000000  0.5031680000000 1.0
C      1  0.4082800000000  0.5214780000000  0.4793750000000 1.0
C      1  0.5762300000000  0.4827620000000  0.4878830000000 1.0
C      1  0.5272590000000  0.4719170000000  0.4130230000000 1.0
C      1  0.4800850000000  0.4827960000000  0.5776770000000 1.0
C      1  0.5148780000000  0.5192800000000  0.5774520000000 1.0
C      1  0.5097870000000  0.4156250000000  0.5096690000000 1.0
C      1  0.4068620000000  0.4681850000000  0.4856430000000 1.0
C      1  0.4834440000000  0.5124120000000  0.5670000000000 1.0
C      1  0.4853640000000  0.5723910000000  0.5102740000000 1.0
C      1  0.5174550000000  0.5796720000000  0.4688870000000 1.0
C      1  0.4851950000000  0.4200270000000  0.4763620000000 1.0
C      1  0.6029940000000  0.5379930000000  0.4828920000000 1.0
C      1  0.3993370000000  0.5286180000000  0.5113960000000 1.0
C      1  0.5980840000000  0.4846720000000  0.5138640000000 1.0
C      1  0.5339780000000  0.4737370000000  0.5905840000000 1.0
C      1  0.4743710000000  0.4974540000000  0.4114660000000 1.0
C      1  0.5265180000000  0.5017380000000  0.4168580000000 1.0
C      1  0.5587960000000  0.5183330000000  0.5390010000000 1.0
C      1  0.5121850000000  0.5395610000000  0.5369830000000 1.0
C      1  0.5530040000000  0.5568890000000  0.5142620000000 1.0
C      1  0.4410120000000  0.4849690000000  0.5363970000000 1.0
C      1  0.5476460000000  0.4795580000000  0.4423060000000 1.0
C      1  0.4305350000000  0.5210860000000  0.4462600000000 1.0
C      1  0.4831940000000  0.4568780000000  0.5374030000000 1.0
C      1  0.5146320000000  0.4568470000000  0.4380440000000 1.0
C      1  0.4776230000000  0.5448590000000  0.4425780000000 1.0
C      1  0.4640490000000  0.4418130000000  0.5058080000000 1.0
C      1  0.5397570000000  0.4427650000000  0.4859460000000 1.0
C      1  0.4499980000000  0.5518260000000  0.4802510000000 1.0
C      1  0.5548220000000  0.5091060000000  0.4575350000000 1.0
C      1  0.5106050000000  0.5394280000000  0.4490280000000 1.0
C      1  0.5633230000000  0.5574690000000  0.4840920000000 1.0
C      1  0.4390260000000  0.4916380000000  0.4507090000000 1.0
C      1  0.5491400000000  0.4868410000000  0.5324040000000 1.0
C      1  0.4366590000000  0.5159050000000  0.5381740000000 1.0
C      1  0.4832680000000  0.4636440000000  0.4417920000000 1.0
C      1  0.5125180000000  0.4557060000000  0.5498470000000 1.0
C      1  0.4838660000000  0.5475520000000  0.5497050000000 1.0
C      1  0.4534520000000  0.4497990000000  0.4744980000000 1.0
C      1  0.5489530000000  0.4453750000000  0.5185760000000 1.0
C      1  0.4488660000000  0.5556310000000  0.5111650000000 1.0
C      1  0.5750940000000  0.4889310000000  0.4156980000000 1.0
C      1  0.4883330000000  0.4231260000000  0.5621620000000 1.0
C      1  0.4164220000000  0.5719990000000  0.4869800000000 1.0
C      1  0.4273150000000  0.5059510000000  0.3975890000000 1.0
C      1  0.5633950000000  0.5180700000000  0.5841610000000 1.0
C      1  0.4437400000000  0.4919600000000  0.5915500000000 1.0
C      1  0.5154650000000  0.5845720000000  0.5566540000000 1.0
C      1  0.4823800000000  0.5871320000000  0.4343440000000 1.0
C      1  0.5067950000000  0.4075270000000  0.4453150000000 1.0
C      1  0.5880550000000  0.4342730000000  0.4856600000000 1.0
C      1  0.4203520000000  0.4378390000000  0.5275920000000 1.0
C      1  0.5910940000000  0.5629440000000  0.5247840000000 1.0
C      1  0.5627730000000  0.4891760000000  0.5820720000000 1.0
C      1  0.4781680000000  0.4117640000000  0.4381880000000 1.0
C      1  0.4079690000000  0.5612470000000  0.5155720000000 1.0
C      1  0.4418640000000  0.5191360000000  0.5838460000000 1.0
C      1  0.5555490000000  0.5166450000000  0.4185240000000 1.0
C      1  0.4449320000000  0.4817880000000  0.4061880000000 1.0
C      1  0.5096510000000  0.5839830000000  0.4382260000000 1.0
C      1  0.4814380000000  0.5865420000000  0.5563470000000 1.0
C      1  0.5151090000000  0.4162240000000  0.5550750000000 1.0
C      1  0.5876430000000  0.4367090000000  0.5147100000000 1.0
C      1  0.4139780000000  0.4381510000000  0.4997270000000 1.0
C      1  0.5998660000000  0.5649430000000  0.4980620000000 1.0
C      1  0.3867580000000  0.4980090000000  0.5035270000000 1.0
C      1  0.5045630000000  0.5088620000000  0.4007490000000 1.0
C      1  0.4840250000000  0.3738770000000  0.5402410000000 1.0
C      1  0.6226970000000  0.4712840000000  0.5031120000000 1.0
C      1  0.5070440000000  0.4920310000000  0.5917730000000 1.0
C      1  0.4919700000000  0.6149350000000  0.5305810000000 1.0
C      1  0.5006350000000  0.4971890000000  0.4927560000000 1.0
END
