TITL C-3289320-4661-647 0.000431560079295265 125000 -674.741473936611 0 0 123 (C1) n - 1
REM
REM in /nfs/bkarasulu/CARBON/AIRSS/Generating-Clusters/AIREBO/with-SteepDescent/Higher-Symm/SD-CG/HFTN-CG
REM
REM
REM
REM
REM
REM ./C.cell (b20cbc046b6831c77cfcea5457e17084)
REM
REM compiler GCC version 9.2.1 20190827 (Red Hat 9.2.1-1)
REM options -cpp -mtune=generic -march=x86-64 -g -O0 -fpre-include=/usr/include/finclude/math-vector-fortran.h
REM seed -1357549594 1719569191 -790369962 -465294873 1945023250 1207103651 524951544 -1995980388 605585304 696218137 -1858043885 1935814286 1968975622 1565642738 -852954552 1741055627 -2099435917 278309562 -716499717 -2058761543 1733601348 -1205092602 1969250543 768571059 510698649 -210670439 -2122365386 -30619574 -1154844178 -1470486120 -442644138 1091473452 2050117588
REM
CELL 1.54180   50.00000   50.00000   50.00000   90.00000   90.00000   90.00000
LATT -1
SFAC C  
C      1  0.4382690000000  0.5092750000000  0.4443860000000 1.0
C      1  0.4833450000000  0.5227100000000  0.5836780000000 1.0
C      1  0.5806390000000  0.5312430000000  0.4685210000000 1.0
C      1  0.4355910000000  0.4752670000000  0.4442560000000 1.0
C      1  0.4814340000000  0.4891760000000  0.5794680000000 1.0
C      1  0.5762560000000  0.4703680000000  0.4752270000000 1.0
C      1  0.5655180000000  0.5133330000000  0.4438880000000 1.0
C      1  0.5154220000000  0.5121250000000  0.5875940000000 1.0
C      1  0.4211280000000  0.5206960000000  0.4714580000000 1.0
C      1  0.5602910000000  0.4799130000000  0.4475100000000 1.0
C      1  0.5142160000000  0.4790660000000  0.5797290000000 1.0
C      1  0.4212380000000  0.4873930000000  0.4727660000000 1.0
C      1  0.4818350000000  0.4067440000000  0.5576280000000 1.0
C      1  0.5618870000000  0.4065170000000  0.4874740000000 1.0
C      1  0.4613690000000  0.4142810000000  0.4507690000000 1.0
C      1  0.4857130000000  0.5853460000000  0.5587660000000 1.0
C      1  0.5603560000000  0.5930030000000  0.4852250000000 1.0
C      1  0.4556550000000  0.5920410000000  0.4564710000000 1.0
C      1  0.5129850000000  0.4160310000000  0.5553250000000 1.0
C      1  0.4471060000000  0.4123380000000  0.4781640000000 1.0
C      1  0.5456740000000  0.4139270000000  0.4607100000000 1.0
C      1  0.5169670000000  0.5934570000000  0.5571420000000 1.0
C      1  0.4455340000000  0.5823080000000  0.4858470000000 1.0
C      1  0.5410770000000  0.5886930000000  0.4614020000000 1.0
C      1  0.5143140000000  0.5127210000000  0.5211110000000 1.0
C      1  0.5135180000000  0.5173440000000  0.4739050000000 1.0
C      1  0.4754180000000  0.5162840000000  0.4986120000000 1.0
C      1  0.5118930000000  0.4809210000000  0.5233810000000 1.0
C      1  0.5112230000000  0.4858960000000  0.4790010000000 1.0
C      1  0.4707070000000  0.4837780000000  0.5011020000000 1.0
C      1  0.4894630000000  0.5260820000000  0.5238220000000 1.0
C      1  0.4856270000000  0.5296790000000  0.4730070000000 1.0
C      1  0.5277200000000  0.5267510000000  0.4971640000000 1.0
C      1  0.4837730000000  0.4713230000000  0.5252890000000 1.0
C      1  0.4840340000000  0.4736100000000  0.4785970000000 1.0
C      1  0.5281800000000  0.4744110000000  0.4991710000000 1.0
C      1  0.4657500000000  0.5427990000000  0.5509920000000 1.0
C      1  0.5640020000000  0.5422680000000  0.5031510000000 1.0
C      1  0.4667540000000  0.5450460000000  0.4375220000000 1.0
C      1  0.4606680000000  0.4542060000000  0.5528240000000 1.0
C      1  0.5619230000000  0.4555450000000  0.5091360000000 1.0
C      1  0.4730680000000  0.4565100000000  0.4444380000000 1.0
C      1  0.5383040000000  0.5460720000000  0.5519990000000 1.0
C      1  0.4410000000000  0.5446750000000  0.5095460000000 1.0
C      1  0.5241640000000  0.5432720000000  0.4454220000000 1.0
C      1  0.5371510000000  0.4569610000000  0.5529050000000 1.0
C      1  0.4312300000000  0.4533190000000  0.5057970000000 1.0
C      1  0.5239560000000  0.4557690000000  0.4441020000000 1.0
C      1  0.5327620000000  0.4383650000000  0.5291310000000 1.0
C      1  0.5157140000000  0.4381480000000  0.4709680000000 1.0
C      1  0.4623290000000  0.4429000000000  0.4989700000000 1.0
C      1  0.5210860000000  0.5646470000000  0.5291710000000 1.0
C      1  0.5159910000000  0.5572540000000  0.4733420000000 1.0
C      1  0.4676090000000  0.5588770000000  0.5101140000000 1.0
C      1  0.4771950000000  0.4384840000000  0.5280960000000 1.0
C      1  0.4846020000000  0.4433560000000  0.4735380000000 1.0
C      1  0.5324530000000  0.4443950000000  0.4962220000000 1.0
C      1  0.4914080000000  0.5555970000000  0.5326530000000 1.0
C      1  0.4832650000000  0.5624650000000  0.4809490000000 1.0
C      1  0.5332630000000  0.5567430000000  0.5015890000000 1.0
C      1  0.4888210000000  0.5993230000000  0.5301160000000 1.0
C      1  0.5319230000000  0.6023670000000  0.4972640000000 1.0
C      1  0.4813800000000  0.5961590000000  0.4760850000000 1.0
C      1  0.4891320000000  0.4067090000000  0.5250850000000 1.0
C      1  0.5324170000000  0.3998200000000  0.4954940000000 1.0
C      1  0.4840830000000  0.4009810000000  0.4700740000000 1.0
C      1  0.5222790000000  0.5964920000000  0.5245800000000 1.0
C      1  0.4702670000000  0.5905240000000  0.5077210000000 1.0
C      1  0.5110720000000  0.5902160000000  0.4733660000000 1.0
C      1  0.5219490000000  0.4089250000000  0.5229340000000 1.0
C      1  0.4712990000000  0.4107760000000  0.5000330000000 1.0
C      1  0.5132590000000  0.4072180000000  0.4684840000000 1.0
C      1  0.4438270000000  0.4434380000000  0.4533050000000 1.0
C      1  0.4812040000000  0.4357270000000  0.5677540000000 1.0
C      1  0.5691350000000  0.4377670000000  0.4818750000000 1.0
C      1  0.4513860000000  0.5624830000000  0.4520840000000 1.0
C      1  0.4879540000000  0.5542860000000  0.5724340000000 1.0
C      1  0.5657720000000  0.5607130000000  0.4756820000000 1.0
C      1  0.5541350000000  0.4459830000000  0.4524870000000 1.0
C      1  0.5121090000000  0.4458390000000  0.5717290000000 1.0
C      1  0.4276330000000  0.4346710000000  0.4810540000000 1.0
C      1  0.5472620000000  0.5633470000000  0.4479990000000 1.0
C      1  0.5181980000000  0.5648890000000  0.5688280000000 1.0
C      1  0.4347090000000  0.5506270000000  0.4788670000000 1.0
C      1  0.5945880000000  0.4767740000000  0.5011820000000 1.0
C      1  0.4505500000000  0.4729070000000  0.4161740000000 1.0
C      1  0.4502760000000  0.4783840000000  0.5827680000000 1.0
C      1  0.5966680000000  0.5234470000000  0.4901780000000 1.0
C      1  0.4498660000000  0.5172770000000  0.4157240000000 1.0
C      1  0.4498240000000  0.5283960000000  0.5844430000000 1.0
C      1  0.4007150000000  0.4776610000000  0.4975190000000 1.0
C      1  0.5475370000000  0.4751820000000  0.4187470000000 1.0
C      1  0.5478220000000  0.4782540000000  0.5848960000000 1.0
C      1  0.4059490000000  0.5300730000000  0.4975850000000 1.0
C      1  0.5495130000000  0.5262500000000  0.4164110000000 1.0
C      1  0.5401590000000  0.5228740000000  0.5844980000000 1.0
C      1  0.5167240000000  0.5267260000000  0.4167170000000 1.0
C      1  0.4159440000000  0.5315960000000  0.5284720000000 1.0
C      1  0.5637440000000  0.5296600000000  0.5674960000000 1.0
C      1  0.5165290000000  0.4686210000000  0.4134900000000 1.0
C      1  0.4140300000000  0.4732460000000  0.5274430000000 1.0
C      1  0.5644670000000  0.4767580000000  0.5580650000000 1.0
C      1  0.4826160000000  0.5266780000000  0.4136810000000 1.0
C      1  0.5883970000000  0.5252630000000  0.5197230000000 1.0
C      1  0.4349960000000  0.5299310000000  0.5568960000000 1.0
C      1  0.4822720000000  0.4703190000000  0.4147590000000 1.0
C      1  0.5790690000000  0.4778900000000  0.5284540000000 1.0
C      1  0.4333900000000  0.4733590000000  0.5558180000000 1.0
C      1  0.5339320000000  0.5127430000000  0.4498590000000 1.0
C      1  0.4453420000000  0.5131570000000  0.5089940000000 1.0
C      1  0.5382380000000  0.5160910000000  0.5408590000000 1.0
C      1  0.5176170000000  0.4865610000000  0.4487760000000 1.0
C      1  0.4398300000000  0.4831950000000  0.4986140000000 1.0
C      1  0.5270940000000  0.4882950000000  0.5498220000000 1.0
C      1  0.4703140000000  0.5146600000000  0.4497820000000 1.0
C      1  0.5526780000000  0.5118950000000  0.5103540000000 1.0
C      1  0.4642450000000  0.5119820000000  0.5367080000000 1.0
C      1  0.4836770000000  0.4883020000000  0.4502540000000 1.0
C      1  0.5561140000000  0.4866830000000  0.4972350000000 1.0
C      1  0.4706240000000  0.4861880000000  0.5495170000000 1.0
C      1  0.4259970000000  0.5018120000000  0.5414700000000 1.0
C      1  0.5767780000000  0.5069530000000  0.5459830000000 1.0
C      1  0.4996520000000  0.4981140000000  0.4151580000000 1.0
END
