TITL C-3289324-3781-622 0.000920821694409641 125000 -511.027917700899 0 0 88 (C1) n - 1
REM
REM in /nfs/bkarasulu/CARBON/AIRSS/Generating-Clusters/AIREBO/with-SteepDescent/Higher-Symm/SD-CG/HFTN-CG
REM
REM
REM
REM
REM
REM ./C.cell (b20cbc046b6831c77cfcea5457e17084)
REM
REM compiler GCC version 9.2.1 20190827 (Red Hat 9.2.1-1)
REM options -cpp -mtune=generic -march=x86-64 -g -O0 -fpre-include=/usr/include/finclude/math-vector-fortran.h
REM seed -1839562805 -166409388 -947629390 226102072 790730107 789999592 -1192212813 -1647086229 121732967 -1724992150 868387023 -792681649 2018950086 -921368090 1558328460 1041666763 -1248917536 -1048519598 1913699734 336133830 -271588020 1516303659 -946917710 -41369139 986016776 746742798 213964912 -2055383704 1372451190 671259073 -552712206 872970827 1334497098
REM
CELL 1.54180   50.00000   50.00000   50.00000   90.00000   90.00000   90.00000
LATT -1
SFAC C  
C      1  0.5291940000000  0.4297090000000  0.4577340000000 1.0
C      1  0.5263020000000  0.5701890000000  0.5445910000000 1.0
C      1  0.4761600000000  0.4304830000000  0.4552750000000 1.0
C      1  0.4729700000000  0.5734860000000  0.5430560000000 1.0
C      1  0.5559540000000  0.5720180000000  0.5455170000000 1.0
C      1  0.5515390000000  0.4473920000000  0.4394650000000 1.0
C      1  0.4494310000000  0.5566460000000  0.5602790000000 1.0
C      1  0.4466650000000  0.4271080000000  0.4544850000000 1.0
C      1  0.4459840000000  0.5018660000000  0.5528980000000 1.0
C      1  0.4420780000000  0.4938890000000  0.4467460000000 1.0
C      1  0.5554200000000  0.5061040000000  0.5533930000000 1.0
C      1  0.5580790000000  0.4992540000000  0.4479020000000 1.0
C      1  0.4447250000000  0.5278340000000  0.4897180000000 1.0
C      1  0.4287160000000  0.4650480000000  0.5150750000000 1.0
C      1  0.5662150000000  0.5366340000000  0.4833020000000 1.0
C      1  0.5548910000000  0.4718830000000  0.5122340000000 1.0
C      1  0.4298210000000  0.5309710000000  0.5179960000000 1.0
C      1  0.4245720000000  0.4614810000000  0.4855310000000 1.0
C      1  0.5760660000000  0.5379250000000  0.5092960000000 1.0
C      1  0.5702490000000  0.4650820000000  0.4859370000000 1.0
C      1  0.5162540000000  0.4535370000000  0.5521240000000 1.0
C      1  0.5055910000000  0.5287490000000  0.4503670000000 1.0
C      1  0.4922570000000  0.4730270000000  0.5502180000000 1.0
C      1  0.4812620000000  0.5478660000000  0.4488700000000 1.0
C      1  0.5188710000000  0.4299560000000  0.5087320000000 1.0
C      1  0.5206900000000  0.5624660000000  0.4963330000000 1.0
C      1  0.4800510000000  0.4377770000000  0.5037470000000 1.0
C      1  0.4817210000000  0.5704700000000  0.4927940000000 1.0
C      1  0.5510630000000  0.5484820000000  0.4599550000000 1.0
C      1  0.5468330000000  0.4577020000000  0.5409460000000 1.0
C      1  0.4513690000000  0.5433840000000  0.4609220000000 1.0
C      1  0.4473350000000  0.4510450000000  0.5387930000000 1.0
C      1  0.5932870000000  0.4760220000000  0.4743220000000 1.0
C      1  0.5785420000000  0.5174260000000  0.5311810000000 1.0
C      1  0.4179450000000  0.4823650000000  0.4685720000000 1.0
C      1  0.4215510000000  0.5091020000000  0.5335390000000 1.0
C      1  0.4870090000000  0.4914430000000  0.5246070000000 1.0
C      1  0.4821530000000  0.4950360000000  0.4728050000000 1.0
C      1  0.5178240000000  0.5054930000000  0.5276320000000 1.0
C      1  0.5124440000000  0.5098510000000  0.4757910000000 1.0
C      1  0.4706270000000  0.4350200000000  0.5322250000000 1.0
C      1  0.4950640000000  0.5697190000000  0.4667180000000 1.0
C      1  0.5042680000000  0.4305940000000  0.5344500000000 1.0
C      1  0.5278360000000  0.5653160000000  0.4671330000000 1.0
C      1  0.5069600000000  0.5318280000000  0.4995800000000 1.0
C      1  0.5248880000000  0.4594750000000  0.5021340000000 1.0
C      1  0.4743650000000  0.5412440000000  0.4996040000000 1.0
C      1  0.4930840000000  0.4690820000000  0.5012020000000 1.0
C      1  0.4533080000000  0.4871880000000  0.5229180000000 1.0
C      1  0.4614070000000  0.5003960000000  0.4952440000000 1.0
C      1  0.5383280000000  0.4994900000000  0.5046360000000 1.0
C      1  0.5463660000000  0.5122610000000  0.4761850000000 1.0
C      1  0.5496830000000  0.5290580000000  0.4390670000000 1.0
C      1  0.5471790000000  0.4771350000000  0.5625440000000 1.0
C      1  0.4506960000000  0.5243950000000  0.4382230000000 1.0
C      1  0.4470420000000  0.4688820000000  0.5610980000000 1.0
C      1  0.5372100000000  0.4776680000000  0.4327370000000 1.0
C      1  0.5247440000000  0.5187580000000  0.5581670000000 1.0
C      1  0.4739360000000  0.4826650000000  0.4424200000000 1.0
C      1  0.4633590000000  0.5258570000000  0.5674710000000 1.0
C      1  0.4512460000000  0.5418300000000  0.5329200000000 1.0
C      1  0.4466460000000  0.4490450000000  0.4747690000000 1.0
C      1  0.5551070000000  0.5493550000000  0.5263310000000 1.0
C      1  0.5502050000000  0.4620930000000  0.4670940000000 1.0
C      1  0.5173050000000  0.4174730000000  0.4804740000000 1.0
C      1  0.5143310000000  0.5782860000000  0.5193470000000 1.0
C      1  0.4879060000000  0.4225640000000  0.4807050000000 1.0
C      1  0.4851730000000  0.5842560000000  0.5197840000000 1.0
C      1  0.4689150000000  0.4651660000000  0.4776110000000 1.0
C      1  0.4793310000000  0.5244630000000  0.5274960000000 1.0
C      1  0.5215680000000  0.4771210000000  0.4743450000000 1.0
C      1  0.5316720000000  0.5351010000000  0.5227090000000 1.0
C      1  0.4242330000000  0.5129510000000  0.4685320000000 1.0
C      1  0.4083690000000  0.4866350000000  0.5261270000000 1.0
C      1  0.5880130000000  0.4913980000000  0.4518540000000 1.0
C      1  0.5775270000000  0.4869100000000  0.5312330000000 1.0
C      1  0.4861380000000  0.5451080000000  0.5519920000000 1.0
C      1  0.4860790000000  0.4540990000000  0.4432340000000 1.0
C      1  0.5150420000000  0.5477360000000  0.5574580000000 1.0
C      1  0.5148750000000  0.4578960000000  0.4489780000000 1.0
C      1  0.4808430000000  0.5029280000000  0.5812640000000 1.0
C      1  0.4883690000000  0.4999990000000  0.4211760000000 1.0
C      1  0.5096210000000  0.5019440000000  0.5794630000000 1.0
C      1  0.5173880000000  0.4988180000000  0.4185250000000 1.0
C      1  0.4732930000000  0.4778960000000  0.5701090000000 1.0
C      1  0.4764080000000  0.5258920000000  0.4232410000000 1.0
C      1  0.5214010000000  0.4758600000000  0.5774020000000 1.0
C      1  0.5235650000000  0.5249420000000  0.4293950000000 1.0
END
