TITL C-3289330-4660-34 0.000185897456753593 125000 -765.90591582907 0 0 139 (C1) n - 1
REM
REM in /nfs/bkarasulu/CARBON/AIRSS/Generating-Clusters/AIREBO/with-SteepDescent/Higher-Symm/SD-CG/HFTN-CG
REM
REM
REM
REM
REM
REM ./C.cell (b20cbc046b6831c77cfcea5457e17084)
REM
REM compiler GCC version 9.2.1 20190827 (Red Hat 9.2.1-1)
REM options -cpp -mtune=generic -march=x86-64 -g -O0 -fpre-include=/usr/include/finclude/math-vector-fortran.h
REM seed 1394829327 1788722161 -2024676714 -2070661837 -1848982225 -1947614760 1746436976 -1066332639 1882298790 -238684803 -49741001 -156398002 -1864584503 1819055853 269316046 -1195856816 198432668 -1032758977 766121482 -652105938 -1714207677 1876938814 1479950335 1906709053 -33374495 -2056478612 1872023064 -859395807 -1585499345 -1035438725 -1487087299 -54455815 -269611741
REM
CELL 1.54180   50.00000   50.00000   50.00000   90.00000   90.00000   90.00000
LATT -1
SFAC C  
C      1  0.4319650000000  0.5212090000000  0.4327540000000 1.0
C      1  0.5910490000000  0.5126840000000  0.4765470000000 1.0
C      1  0.4762580000000  0.5159660000000  0.5957570000000 1.0
C      1  0.4358290000000  0.4897430000000  0.4345040000000 1.0
C      1  0.5951490000000  0.4837000000000  0.4741200000000 1.0
C      1  0.4748520000000  0.4869360000000  0.5914620000000 1.0
C      1  0.4808690000000  0.4070130000000  0.4997480000000 1.0
C      1  0.5115560000000  0.3995080000000  0.4952620000000 1.0
C      1  0.4994090000000  0.3996580000000  0.5239670000000 1.0
C      1  0.4834770000000  0.5766330000000  0.4931110000000 1.0
C      1  0.5162490000000  0.5785150000000  0.4852510000000 1.0
C      1  0.5051930000000  0.5790570000000  0.5174080000000 1.0
C      1  0.4951470000000  0.5363800000000  0.5967230000000 1.0
C      1  0.4141860000000  0.5390780000000  0.4546340000000 1.0
C      1  0.5871250000000  0.5325800000000  0.4569420000000 1.0
C      1  0.4946060000000  0.4671260000000  0.5955270000000 1.0
C      1  0.4208950000000  0.4706210000000  0.4480700000000 1.0
C      1  0.5865910000000  0.4641670000000  0.4562760000000 1.0
C      1  0.5318760000000  0.5633740000000  0.5465460000000 1.0
C      1  0.4422830000000  0.5506770000000  0.5117450000000 1.0
C      1  0.5259030000000  0.5632540000000  0.4461640000000 1.0
C      1  0.5389850000000  0.4389860000000  0.5521330000000 1.0
C      1  0.4345540000000  0.4369580000000  0.5055490000000 1.0
C      1  0.5258100000000  0.4390620000000  0.4448590000000 1.0
C      1  0.4851990000000  0.5564720000000  0.4130200000000 1.0
C      1  0.5804940000000  0.5576680000000  0.5268200000000 1.0
C      1  0.4337950000000  0.5550220000000  0.5578990000000 1.0
C      1  0.4836570000000  0.4436650000000  0.4138820000000 1.0
C      1  0.5827940000000  0.4455320000000  0.5275930000000 1.0
C      1  0.4336030000000  0.4426270000000  0.5568980000000 1.0
C      1  0.5331130000000  0.5884090000000  0.4243130000000 1.0
C      1  0.5468460000000  0.5890370000000  0.5632670000000 1.0
C      1  0.4127720000000  0.5877070000000  0.5274270000000 1.0
C      1  0.5299930000000  0.4096610000000  0.4287590000000 1.0
C      1  0.5566160000000  0.4173540000000  0.5718480000000 1.0
C      1  0.4089300000000  0.4152060000000  0.5113790000000 1.0
C      1  0.5795660000000  0.5296730000000  0.5297610000000 1.0
C      1  0.4322030000000  0.5270840000000  0.5588000000000 1.0
C      1  0.4877020000000  0.5283860000000  0.4115560000000 1.0
C      1  0.5814980000000  0.4738000000000  0.5297470000000 1.0
C      1  0.4319370000000  0.4706290000000  0.5547730000000 1.0
C      1  0.4883280000000  0.4718600000000  0.4129150000000 1.0
C      1  0.5141630000000  0.4740800000000  0.4815470000000 1.0
C      1  0.5070630000000  0.4738120000000  0.5205020000000 1.0
C      1  0.4770990000000  0.4699720000000  0.4949010000000 1.0
C      1  0.5126020000000  0.5225660000000  0.4818590000000 1.0
C      1  0.5028000000000  0.5236140000000  0.5197420000000 1.0
C      1  0.4741990000000  0.5223930000000  0.4919900000000 1.0
C      1  0.4677650000000  0.4381910000000  0.5032530000000 1.0
C      1  0.5103260000000  0.4452970000000  0.4727240000000 1.0
C      1  0.5236730000000  0.4459510000000  0.5228880000000 1.0
C      1  0.4754820000000  0.5513870000000  0.5100200000000 1.0
C      1  0.5055730000000  0.5532380000000  0.4689570000000 1.0
C      1  0.5217250000000  0.5519170000000  0.5180060000000 1.0
C      1  0.5059070000000  0.5507080000000  0.5611110000000 1.0
C      1  0.4453620000000  0.5465480000000  0.4784080000000 1.0
C      1  0.5516850000000  0.5504980000000  0.4601550000000 1.0
C      1  0.5090250000000  0.4518490000000  0.5617830000000 1.0
C      1  0.4407290000000  0.4532780000000  0.4779520000000 1.0
C      1  0.5490790000000  0.4516520000000  0.4607660000000 1.0
C      1  0.4577570000000  0.5780980000000  0.4757140000000 1.0
C      1  0.5459680000000  0.5797520000000  0.4765320000000 1.0
C      1  0.4951230000000  0.5789260000000  0.5454890000000 1.0
C      1  0.4625150000000  0.4289960000000  0.4708920000000 1.0
C      1  0.5283870000000  0.4182550000000  0.4799780000000 1.0
C      1  0.5033990000000  0.4253730000000  0.5408250000000 1.0
C      1  0.4292300000000  0.4840040000000  0.5005250000000 1.0
C      1  0.5360460000000  0.4772410000000  0.4335390000000 1.0
C      1  0.5393340000000  0.4776550000000  0.5612670000000 1.0
C      1  0.4220290000000  0.5170210000000  0.5042890000000 1.0
C      1  0.5362650000000  0.5256380000000  0.4330860000000 1.0
C      1  0.5372060000000  0.5259930000000  0.5601120000000 1.0
C      1  0.5089760000000  0.5169590000000  0.4514910000000 1.0
C      1  0.5334500000000  0.5151320000000  0.5280480000000 1.0
C      1  0.4533300000000  0.5190190000000  0.5174460000000 1.0
C      1  0.5096270000000  0.4865150000000  0.4528520000000 1.0
C      1  0.5357350000000  0.4840660000000  0.5279520000000 1.0
C      1  0.4594450000000  0.4859190000000  0.5165250000000 1.0
C      1  0.5702530000000  0.5276560000000  0.4331410000000 1.0
C      1  0.5232880000000  0.5304290000000  0.5908590000000 1.0
C      1  0.4086690000000  0.5308270000000  0.4798770000000 1.0
C      1  0.5697440000000  0.4724730000000  0.4336630000000 1.0
C      1  0.5241750000000  0.4736250000000  0.5915400000000 1.0
C      1  0.4086540000000  0.4766790000000  0.4744500000000 1.0
C      1  0.5413610000000  0.4038190000000  0.4551390000000 1.0
C      1  0.5132410000000  0.4082800000000  0.5679610000000 1.0
C      1  0.4519400000000  0.4016540000000  0.4643500000000 1.0
C      1  0.5576070000000  0.6062350000000  0.4698860000000 1.0
C      1  0.4941270000000  0.6052210000000  0.5598470000000 1.0
C      1  0.4440470000000  0.6041590000000  0.4720970000000 1.0
C      1  0.4385660000000  0.5578530000000  0.4470630000000 1.0
C      1  0.5824920000000  0.5595680000000  0.4705620000000 1.0
C      1  0.4841040000000  0.5612060000000  0.5833680000000 1.0
C      1  0.4351480000000  0.4438010000000  0.4457770000000 1.0
C      1  0.5747480000000  0.4404650000000  0.4721430000000 1.0
C      1  0.4835580000000  0.4415950000000  0.5807720000000 1.0
C      1  0.5770360000000  0.5644410000000  0.4984020000000 1.0
C      1  0.4576500000000  0.5669060000000  0.5720610000000 1.0
C      1  0.4618980000000  0.5638610000000  0.4291580000000 1.0
C      1  0.5744150000000  0.4370330000000  0.5018660000000 1.0
C      1  0.4610640000000  0.4356340000000  0.5630300000000 1.0
C      1  0.4590130000000  0.4390130000000  0.4324540000000 1.0
C      1  0.5063990000000  0.4856010000000  0.5583660000000 1.0
C      1  0.4485090000000  0.4860040000000  0.4725670000000 1.0
C      1  0.5478930000000  0.4854470000000  0.4643450000000 1.0
C      1  0.5044980000000  0.5168140000000  0.5586000000000 1.0
C      1  0.4453060000000  0.5157730000000  0.4635530000000 1.0
C      1  0.5476290000000  0.5169290000000  0.4639330000000 1.0
C      1  0.4585330000000  0.5140530000000  0.5672760000000 1.0
C      1  0.4653430000000  0.5158770000000  0.4289920000000 1.0
C      1  0.5742880000000  0.5169190000000  0.5032300000000 1.0
C      1  0.4581470000000  0.4822280000000  0.5641340000000 1.0
C      1  0.4673040000000  0.4841490000000  0.4309420000000 1.0
C      1  0.5765420000000  0.4853210000000  0.5017710000000 1.0
C      1  0.4798140000000  0.4736450000000  0.5408380000000 1.0
C      1  0.4787110000000  0.4750960000000  0.4613160000000 1.0
C      1  0.5447410000000  0.4745250000000  0.4964230000000 1.0
C      1  0.4766060000000  0.5257820000000  0.5413150000000 1.0
C      1  0.4771260000000  0.5269560000000  0.4592130000000 1.0
C      1  0.5430950000000  0.5244890000000  0.4967840000000 1.0
C      1  0.5461200000000  0.5560280000000  0.4993610000000 1.0
C      1  0.4708820000000  0.5575300000000  0.5431590000000 1.0
C      1  0.4769260000000  0.5593990000000  0.4576310000000 1.0
C      1  0.5427040000000  0.4406400000000  0.4985540000000 1.0
C      1  0.4751900000000  0.4407830000000  0.5353550000000 1.0
C      1  0.4850340000000  0.4425560000000  0.4537250000000 1.0
C      1  0.5124810000000  0.4862830000000  0.4130200000000 1.0
C      1  0.5683170000000  0.4880110000000  0.5505800000000 1.0
C      1  0.4203670000000  0.4850370000000  0.5335670000000 1.0
C      1  0.5123460000000  0.5146370000000  0.4118740000000 1.0
C      1  0.5666730000000  0.5161200000000  0.5502770000000 1.0
C      1  0.4190630000000  0.5143410000000  0.5380550000000 1.0
C      1  0.5646700000000  0.5720180000000  0.5441120000000 1.0
C      1  0.4274570000000  0.5652430000000  0.5323550000000 1.0
C      1  0.5079420000000  0.5709680000000  0.4183420000000 1.0
C      1  0.5708810000000  0.4321980000000  0.5483510000000 1.0
C      1  0.4221470000000  0.4294810000000  0.5356830000000 1.0
C      1  0.5054580000000  0.4279430000000  0.4205210000000 1.0
C      1  0.4965760000000  0.4976590000000  0.4986250000000 1.0
END
