TITL C-3289325-7307-24 0.00466064629583814 125000 -531.336311100597 0 0 101 (C1) n - 1
REM
REM in /nfs/bkarasulu/CARBON/AIRSS/Generating-Clusters/AIREBO/with-SteepDescent/Higher-Symm/SD-CG/HFTN-CG
REM
REM
REM
REM
REM
REM ./C.cell (b20cbc046b6831c77cfcea5457e17084)
REM
REM compiler GCC version 9.2.1 20190827 (Red Hat 9.2.1-1)
REM options -cpp -mtune=generic -march=x86-64 -g -O0 -fpre-include=/usr/include/finclude/math-vector-fortran.h
REM seed -1521811618 1306691517 -604002160 2091457197 -1118303357 -1195740887 1484705 390187234 1641136940 -853510724 -1370202464 861652987 339539098 -503251500 -1418112764 729892724 -970578595 1834826397 759399936 440008088 -663718723 -1733565941 -859219857 -106004931 186303265 1730766216 -1356102772 768450690 726373440 -2122986014 -1864793069 -1849584363 -451505092
REM
CELL 1.54180   50.00000   50.00000   50.00000   90.00000   90.00000   90.00000
LATT -1
SFAC C  
C      1  0.4121560000000  0.5397040000000  0.5044670000000 1.0
C      1  0.4522940000000  0.4240380000000  0.4771910000000 1.0
C      1  0.5970160000000  0.4616470000000  0.5198900000000 1.0
C      1  0.5246670000000  0.6048610000000  0.4833920000000 1.0
C      1  0.4954220000000  0.5307540000000  0.4927250000000 1.0
C      1  0.4697440000000  0.4949160000000  0.5075370000000 1.0
C      1  0.5047490000000  0.4673290000000  0.4940890000000 1.0
C      1  0.5324760000000  0.5030260000000  0.5153460000000 1.0
C      1  0.5269920000000  0.4448680000000  0.5000260000000 1.0
C      1  0.5542540000000  0.5371960000000  0.4928810000000 1.0
C      1  0.4706130000000  0.5486390000000  0.5027460000000 1.0
C      1  0.4492070000000  0.4700140000000  0.4984940000000 1.0
C      1  0.4621780000000  0.4487680000000  0.4313310000000 1.0
C      1  0.5567530000000  0.4735790000000  0.5720820000000 1.0
C      1  0.5397360000000  0.5547280000000  0.4317530000000 1.0
C      1  0.4498030000000  0.5431880000000  0.5620410000000 1.0
C      1  0.5398700000000  0.5396070000000  0.4686720000000 1.0
C      1  0.4635500000000  0.5395220000000  0.5316660000000 1.0
C      1  0.4588640000000  0.4545870000000  0.4723390000000 1.0
C      1  0.5436600000000  0.4544240000000  0.5526810000000 1.0
C      1  0.4644660000000  0.5283970000000  0.4439950000000 1.0
C      1  0.4707530000000  0.4658250000000  0.5586650000000 1.0
C      1  0.5338100000000  0.4717220000000  0.4422810000000 1.0
C      1  0.5311710000000  0.5305690000000  0.5553990000000 1.0
C      1  0.5076540000000  0.5472880000000  0.5637760000000 1.0
C      1  0.4487490000000  0.4992890000000  0.4369400000000 1.0
C      1  0.4991100000000  0.4483420000000  0.5646120000000 1.0
C      1  0.5532630000000  0.4972660000000  0.4310700000000 1.0
C      1  0.5193270000000  0.5365260000000  0.4219050000000 1.0
C      1  0.4611020000000  0.5160910000000  0.5839650000000 1.0
C      1  0.4822490000000  0.4652740000000  0.4194970000000 1.0
C      1  0.5332560000000  0.4856570000000  0.5872610000000 1.0
C      1  0.5653510000000  0.4918230000000  0.4961760000000 1.0
C      1  0.5140340000000  0.5635070000000  0.5049200000000 1.0
C      1  0.4348140000000  0.5070140000000  0.4942400000000 1.0
C      1  0.4850490000000  0.4347840000000  0.5053470000000 1.0
C      1  0.4541820000000  0.5404930000000  0.4740730000000 1.0
C      1  0.4571720000000  0.4565260000000  0.5286940000000 1.0
C      1  0.5415640000000  0.4598880000000  0.4732080000000 1.0
C      1  0.5426690000000  0.5344380000000  0.5235380000000 1.0
C      1  0.5177430000000  0.4244710000000  0.5256160000000 1.0
C      1  0.5767360000000  0.5243960000000  0.4707540000000 1.0
C      1  0.4803800000000  0.5745180000000  0.5233690000000 1.0
C      1  0.4244220000000  0.4742310000000  0.4748740000000 1.0
C      1  0.4860890000000  0.4254210000000  0.4726740000000 1.0
C      1  0.5795290000000  0.4841300000000  0.5261110000000 1.0
C      1  0.5113870000000  0.5786000000000  0.4745610000000 1.0
C      1  0.4246490000000  0.5157960000000  0.5251830000000 1.0
C      1  0.5748070000000  0.4647990000000  0.4683290000000 1.0
C      1  0.5377900000000  0.5653530000000  0.5368730000000 1.0
C      1  0.4202800000000  0.5389800000000  0.4763980000000 1.0
C      1  0.4601330000000  0.4231590000000  0.5341470000000 1.0
C      1  0.5466130000000  0.4823150000000  0.5344420000000 1.0
C      1  0.5097990000000  0.5449660000000  0.4698310000000 1.0
C      1  0.4574200000000  0.5090520000000  0.5312450000000 1.0
C      1  0.4907400000000  0.4584860000000  0.4692350000000 1.0
C      1  0.5611520000000  0.5412130000000  0.5583020000000 1.0
C      1  0.4517410000000  0.5576920000000  0.4381160000000 1.0
C      1  0.4399020000000  0.4562410000000  0.5646610000000 1.0
C      1  0.5447650000000  0.4419650000000  0.4376510000000 1.0
C      1  0.5220780000000  0.4376840000000  0.5519250000000 1.0
C      1  0.5583080000000  0.5286780000000  0.4432830000000 1.0
C      1  0.4779310000000  0.5606650000000  0.5540770000000 1.0
C      1  0.4418010000000  0.4696000000000  0.4474480000000 1.0
C      1  0.5030710000000  0.4722860000000  0.4433500000000 1.0
C      1  0.5296240000000  0.5004480000000  0.5571870000000 1.0
C      1  0.4956380000000  0.5308190000000  0.4450880000000 1.0
C      1  0.4695970000000  0.4964810000000  0.5575150000000 1.0
C      1  0.4619210000000  0.5716900000000  0.4620010000000 1.0
C      1  0.4266610000000  0.4663480000000  0.5400560000000 1.0
C      1  0.5348150000000  0.4283250000000  0.4612960000000 1.0
C      1  0.5748560000000  0.5328260000000  0.5343940000000 1.0
C      1  0.4897710000000  0.4640190000000  0.5225340000000 1.0
C      1  0.5344060000000  0.4915640000000  0.4833250000000 1.0
C      1  0.5086850000000  0.5343730000000  0.5221170000000 1.0
C      1  0.4642880000000  0.5083260000000  0.4785720000000 1.0
C      1  0.4870510000000  0.5276310000000  0.5743270000000 1.0
C      1  0.4768280000000  0.4949950000000  0.4240990000000 1.0
C      1  0.5060620000000  0.4757110000000  0.5772950000000 1.0
C      1  0.5256200000000  0.5091070000000  0.4312870000000 1.0
C      1  0.5848740000000  0.4918320000000  0.4726350000000 1.0
C      1  0.5130000000000  0.5799250000000  0.5313510000000 1.0
C      1  0.4127110000000  0.5060640000000  0.4718900000000 1.0
C      1  0.4861860000000  0.4117660000000  0.5258460000000 1.0
C      1  0.5041870000000  0.4821110000000  0.5439500000000 1.0
C      1  0.5136790000000  0.5064940000000  0.4607660000000 1.0
C      1  0.4948430000000  0.5148040000000  0.5438120000000 1.0
C      1  0.4826400000000  0.4955240000000  0.4575970000000 1.0
C      1  0.4223020000000  0.5364810000000  0.5515850000000 1.0
C      1  0.4712650000000  0.4251170000000  0.4420650000000 1.0
C      1  0.5798710000000  0.4857120000000  0.5600800000000 1.0
C      1  0.5311080000000  0.5754970000000  0.4470280000000 1.0
C      1  0.4801430000000  0.5865830000000  0.4754520000000 1.0
C      1  0.4125290000000  0.4848660000000  0.5254910000000 1.0
C      1  0.5155030000000  0.4138640000000  0.4742520000000 1.0
C      1  0.5906310000000  0.5150270000000  0.5212410000000 1.0
C      1  0.5215760000000  0.4046980000000  0.4992830000000 1.0
C      1  0.5983570000000  0.5213930000000  0.4958550000000 1.0
C      1  0.4730800000000  0.5950370000000  0.5005570000000 1.0
C      1  0.4036610000000  0.4770700000000  0.5007030000000 1.0
C      1  0.5014940000000  0.4993440000000  0.5042420000000 1.0
END
