TITL C-3289326-3776-299 0.00678769130130108 125000 -929.108469189669 0 0 171 (C1) n - 1
REM
REM in /nfs/bkarasulu/CARBON/AIRSS/Generating-Clusters/AIREBO/with-SteepDescent/Higher-Symm/SD-CG/HFTN-CG
REM
REM
REM
REM
REM
REM ./C.cell (b20cbc046b6831c77cfcea5457e17084)
REM
REM compiler GCC version 9.2.1 20190827 (Red Hat 9.2.1-1)
REM options -cpp -mtune=generic -march=x86-64 -g -O0 -fpre-include=/usr/include/finclude/math-vector-fortran.h
REM seed -1801837725 -1841140880 -471616750 -1079322446 -207315077 1716122083 1701061703 -1194960024 1659036252 -1270658787 -1894282535 1473306122 2076102253 -877173061 779630694 -403974472 -1215023324 -2117285849 800797757 520373234 -2136923751 -1086501065 -1344556896 -1666166975 648481541 1244655679 -1305550654 -532962 -1790938562 1622295811 1408264123 -165147058 761124108
REM
CELL 1.54180   50.00000   50.00000   50.00000   90.00000   90.00000   90.00000
LATT -1
SFAC C  
C      1  0.5602290000000  0.4562070000000  0.5016400000000 1.0
C      1  0.5616490000000  0.5086880000000  0.4653970000000 1.0
C      1  0.5642850000000  0.5088550000000  0.5313160000000 1.0
C      1  0.5547450000000  0.5574870000000  0.5044630000000 1.0
C      1  0.5740760000000  0.4567230000000  0.5576130000000 1.0
C      1  0.5739380000000  0.4797040000000  0.4522130000000 1.0
C      1  0.4207870000000  0.5495650000000  0.5446490000000 1.0
C      1  0.4112130000000  0.4399440000000  0.5201440000000 1.0
C      1  0.4157760000000  0.5080580000000  0.4259170000000 1.0
C      1  0.5931530000000  0.5027330000000  0.4418260000000 1.0
C      1  0.5832090000000  0.5584850000000  0.5189520000000 1.0
C      1  0.5929320000000  0.4468300000000  0.5399780000000 1.0
C      1  0.4884050000000  0.6133700000000  0.4793530000000 1.0
C      1  0.4916070000000  0.4578490000000  0.6080730000000 1.0
C      1  0.4951830000000  0.4267300000000  0.4162320000000 1.0
C      1  0.5530130000000  0.4430020000000  0.5712570000000 1.0
C      1  0.5620400000000  0.4643790000000  0.4272420000000 1.0
C      1  0.5455410000000  0.5879440000000  0.5107940000000 1.0
C      1  0.4569300000000  0.4405270000000  0.6363360000000 1.0
C      1  0.4616690000000  0.4045480000000  0.3899570000000 1.0
C      1  0.4528910000000  0.6450010000000  0.4731770000000 1.0
C      1  0.4066870000000  0.4746460000000  0.5550060000000 1.0
C      1  0.4090690000000  0.4697860000000  0.4529400000000 1.0
C      1  0.4084570000000  0.5559840000000  0.4971640000000 1.0
C      1  0.4241640000000  0.4405840000000  0.4442280000000 1.0
C      1  0.4217550000000  0.5774320000000  0.4742930000000 1.0
C      1  0.4239230000000  0.4801870000000  0.5839030000000 1.0
C      1  0.5312890000000  0.5439570000000  0.4751550000000 1.0
C      1  0.5339710000000  0.4901840000000  0.5487720000000 1.0
C      1  0.5364940000000  0.4654360000000  0.4713180000000 1.0
C      1  0.4447770000000  0.5181250000000  0.5021360000000 1.0
C      1  0.4420470000000  0.4905470000000  0.5176510000000 1.0
C      1  0.4474170000000  0.5003700000000  0.4732550000000 1.0
C      1  0.5286000000000  0.5286290000000  0.5998160000000 1.0
C      1  0.5356060000000  0.3917940000000  0.4722000000000 1.0
C      1  0.5320530000000  0.5890420000000  0.4258450000000 1.0
C      1  0.5473970000000  0.4004930000000  0.5311470000000 1.0
C      1  0.5350930000000  0.5298990000000  0.4064020000000 1.0
C      1  0.5608420000000  0.5678370000000  0.5768600000000 1.0
C      1  0.4493220000000  0.4348370000000  0.4247050000000 1.0
C      1  0.4449990000000  0.5984600000000  0.4799770000000 1.0
C      1  0.4471830000000  0.4625370000000  0.5951440000000 1.0
C      1  0.4519860000000  0.4039920000000  0.5120900000000 1.0
C      1  0.4573480000000  0.5329890000000  0.3999800000000 1.0
C      1  0.4649800000000  0.5680010000000  0.5755320000000 1.0
C      1  0.5091150000000  0.5915580000000  0.4751500000000 1.0
C      1  0.5119990000000  0.4737410000000  0.5920640000000 1.0
C      1  0.5181200000000  0.4325820000000  0.4362850000000 1.0
C      1  0.4562870000000  0.4663430000000  0.5649360000000 1.0
C      1  0.4581890000000  0.4611610000000  0.4402330000000 1.0
C      1  0.4547660000000  0.5726760000000  0.4962980000000 1.0
C      1  0.5049580000000  0.4316080000000  0.4884820000000 1.0
C      1  0.5036840000000  0.5481080000000  0.4466910000000 1.0
C      1  0.5082870000000  0.5235310000000  0.5625890000000 1.0
C      1  0.4808970000000  0.4922500000000  0.3961070000000 1.0
C      1  0.4785880000000  0.5929760000000  0.5362260000000 1.0
C      1  0.4724090000000  0.4113390000000  0.5529990000000 1.0
C      1  0.4613580000000  0.6198370000000  0.4774950000000 1.0
C      1  0.4646230000000  0.4530040000000  0.6137500000000 1.0
C      1  0.4681450000000  0.4217080000000  0.4097200000000 1.0
C      1  0.5668910000000  0.4862300000000  0.5563240000000 1.0
C      1  0.5507760000000  0.4354040000000  0.4784550000000 1.0
C      1  0.5551000000000  0.5659500000000  0.4715190000000 1.0
C      1  0.5338920000000  0.4987260000000  0.4108810000000 1.0
C      1  0.5373530000000  0.5726090000000  0.5571270000000 1.0
C      1  0.5215150000000  0.4215150000000  0.5342060000000 1.0
C      1  0.5208250000000  0.5207240000000  0.4550370000000 1.0
C      1  0.5380910000000  0.5246020000000  0.5462510000000 1.0
C      1  0.5271680000000  0.4502810000000  0.5070100000000 1.0
C      1  0.4145780000000  0.5105110000000  0.5394170000000 1.0
C      1  0.4177390000000  0.4673810000000  0.4918740000000 1.0
C      1  0.4160880000000  0.5251350000000  0.4730880000000 1.0
C      1  0.4445300000000  0.4676550000000  0.4708490000000 1.0
C      1  0.4430990000000  0.5443610000000  0.4813220000000 1.0
C      1  0.4416000000000  0.4930150000000  0.5504630000000 1.0
C      1  0.4556000000000  0.5811320000000  0.5256760000000 1.0
C      1  0.4559310000000  0.4390470000000  0.5491900000000 1.0
C      1  0.4622380000000  0.4844850000000  0.4214730000000 1.0
C      1  0.5090050000000  0.4781720000000  0.5060150000000 1.0
C      1  0.5034640000000  0.5034650000000  0.4746450000000 1.0
C      1  0.5018190000000  0.5070520000000  0.5145380000000 1.0
C      1  0.5497400000000  0.4400500000000  0.4324510000000 1.0
C      1  0.5378860000000  0.5988270000000  0.4863950000000 1.0
C      1  0.5420410000000  0.4633150000000  0.5889860000000 1.0
C      1  0.4463460000000  0.5627750000000  0.5475760000000 1.0
C      1  0.4339100000000  0.4252870000000  0.5289430000000 1.0
C      1  0.4406050000000  0.5077390000000  0.4124630000000 1.0
C      1  0.4885780000000  0.5781460000000  0.5586260000000 1.0
C      1  0.4784800000000  0.4018050000000  0.5260520000000 1.0
C      1  0.4842020000000  0.5197250000000  0.3974230000000 1.0
C      1  0.5622110000000  0.4243630000000  0.4524190000000 1.0
C      1  0.5585220000000  0.5978930000000  0.4653880000000 1.0
C      1  0.5593420000000  0.4858790000000  0.5866220000000 1.0
C      1  0.5080650000000  0.5775000000000  0.4469970000000 1.0
C      1  0.5073360000000  0.5050680000000  0.5908020000000 1.0
C      1  0.5134870000000  0.4161620000000  0.4636040000000 1.0
C      1  0.5399470000000  0.4888350000000  0.5153220000000 1.0
C      1  0.5356970000000  0.4956250000000  0.4822620000000 1.0
C      1  0.5265730000000  0.5230400000000  0.5001900000000 1.0
C      1  0.5001550000000  0.4142050000000  0.5140840000000 1.0
C      1  0.5043570000000  0.5278630000000  0.4196580000000 1.0
C      1  0.5114370000000  0.5571640000000  0.5566620000000 1.0
C      1  0.5012300000000  0.5250750000000  0.6168720000000 1.0
C      1  0.5043220000000  0.3847830000000  0.4612780000000 1.0
C      1  0.4991950000000  0.5942440000000  0.4202340000000 1.0
C      1  0.4785890000000  0.4545960000000  0.5301270000000 1.0
C      1  0.4861670000000  0.5039920000000  0.4357410000000 1.0
C      1  0.4950550000000  0.5429630000000  0.5304610000000 1.0
C      1  0.4192410000000  0.4983200000000  0.4543130000000 1.0
C      1  0.4193990000000  0.5354110000000  0.5167610000000 1.0
C      1  0.4156130000000  0.4707120000000  0.5256690000000 1.0
C      1  0.3917650000000  0.5041620000000  0.5205480000000 1.0
C      1  0.3929950000000  0.4855190000000  0.4956570000000 1.0
C      1  0.3942320000000  0.5166220000000  0.4920200000000 1.0
C      1  0.4839240000000  0.5644750000000  0.4902770000000 1.0
C      1  0.4852680000000  0.4776850000000  0.5627590000000 1.0
C      1  0.4870800000000  0.4540780000000  0.4476910000000 1.0
C      1  0.4779760000000  0.4888140000000  0.4650760000000 1.0
C      1  0.4775140000000  0.5276160000000  0.5055150000000 1.0
C      1  0.4712690000000  0.4831990000000  0.5258290000000 1.0
C      1  0.5550880000000  0.6055130000000  0.4397760000000 1.0
C      1  0.5601250000000  0.5108100000000  0.5977440000000 1.0
C      1  0.5596750000000  0.3967080000000  0.4524670000000 1.0
C      1  0.4888100000000  0.5348800000000  0.4742650000000 1.0
C      1  0.4867970000000  0.5065700000000  0.5450450000000 1.0
C      1  0.4937190000000  0.4625580000000  0.4799420000000 1.0
C      1  0.5435180000000  0.4210760000000  0.5580010000000 1.0
C      1  0.5530990000000  0.4804230000000  0.4059980000000 1.0
C      1  0.5412510000000  0.5913810000000  0.5379930000000 1.0
C      1  0.4638490000000  0.4354550000000  0.5102590000000 1.0
C      1  0.4639780000000  0.5286570000000  0.4319330000000 1.0
C      1  0.4713630000000  0.5423850000000  0.5539100000000 1.0
C      1  0.4070520000000  0.4430940000000  0.4730230000000 1.0
C      1  0.4014640000000  0.5533900000000  0.4643300000000 1.0
C      1  0.4054550000000  0.5047860000000  0.5701900000000 1.0
C      1  0.5564600000000  0.5419520000000  0.4249350000000 1.0
C      1  0.5823700000000  0.5439530000000  0.5648030000000 1.0
C      1  0.5767070000000  0.4122600000000  0.5099750000000 1.0
C      1  0.5854310000000  0.5349390000000  0.5367220000000 1.0
C      1  0.5816300000000  0.4384420000000  0.5162180000000 1.0
C      1  0.5731260000000  0.5242170000000  0.4373880000000 1.0
C      1  0.5081970000000  0.4508500000000  0.5352340000000 1.0
C      1  0.5179300000000  0.4930290000000  0.4355070000000 1.0
C      1  0.5278400000000  0.5461020000000  0.5219360000000 1.0
C      1  0.3906560000000  0.4292330000000  0.5081120000000 1.0
C      1  0.3925100000000  0.5143580000000  0.4156650000000 1.0
C      1  0.4011500000000  0.5493490000000  0.5617040000000 1.0
C      1  0.5676980000000  0.5865700000000  0.5955200000000 1.0
C      1  0.5548080000000  0.3733330000000  0.5378820000000 1.0
C      1  0.5358270000000  0.5394960000000  0.3801030000000 1.0
C      1  0.5513810000000  0.5351950000000  0.5757190000000 1.0
C      1  0.5459900000000  0.4078650000000  0.4979620000000 1.0
C      1  0.5500210000000  0.5653200000000  0.4386680000000 1.0
C      1  0.5186030000000  0.4647540000000  0.4466120000000 1.0
C      1  0.5156220000000  0.5651840000000  0.4954850000000 1.0
C      1  0.5159950000000  0.4691160000000  0.5591880000000 1.0
C      1  0.4642990000000  0.4458250000000  0.4831980000000 1.0
C      1  0.4618520000000  0.5443490000000  0.4558210000000 1.0
C      1  0.4597080000000  0.5156770000000  0.5634640000000 1.0
C      1  0.5960670000000  0.5070920000000  0.5193590000000 1.0
C      1  0.5810540000000  0.4629390000000  0.4765470000000 1.0
C      1  0.5673220000000  0.5312830000000  0.4868040000000 1.0
C      1  0.4414580000000  0.5091670000000  0.5868630000000 1.0
C      1  0.4486420000000  0.4285820000000  0.4638200000000 1.0
C      1  0.4459830000000  0.5707260000000  0.4516730000000 1.0
C      1  0.6454200000000  0.4438980000000  0.5509430000000 1.0
C      1  0.6057660000000  0.4538590000000  0.4785980000000 1.0
C      1  0.6197620000000  0.5948290000000  0.5093310000000 1.0
C      1  0.6010470000000  0.5774150000000  0.5150930000000 1.0
C      1  0.6196650000000  0.4441130000000  0.5461040000000 1.0
C      1  0.6195550000000  0.5012610000000  0.4359800000000 1.0
END
