TITL C-3289332-8317-141 0.000573354129709459 125000 -892.954789590583 0 0 166 (C1) n - 1
REM
REM in /nfs/bkarasulu/CARBON/AIRSS/Generating-Clusters/AIREBO/with-SteepDescent/Higher-Symm/SD-CG/HFTN-CG
REM
REM
REM
REM
REM
REM ./C.cell (b20cbc046b6831c77cfcea5457e17084)
REM
REM compiler GCC version 9.2.1 20190827 (Red Hat 9.2.1-1)
REM options -cpp -mtune=generic -march=x86-64 -g -O0 -fpre-include=/usr/include/finclude/math-vector-fortran.h
REM seed 864009722 -174369556 2041591178 -1087105882 -1072048219 -104188999 2085654883 -1150813804 1371914894 2132219966 2038386478 70214789 490048431 -478380117 -676344621 364000907 -990094810 -1695878722 1258800608 162219989 -906107843 -4105107 1209311033 -1192778051 1407858416 249630624 -951498802 1357260587 -74683004 -414619242 -958719723 1462565173 -879442903
REM
CELL 1.54180   50.00000   50.00000   50.00000   90.00000   90.00000   90.00000
LATT -1
SFAC C  
C      1  0.4513290000000  0.5879350000000  0.5272660000000 1.0
C      1  0.5485430000000  0.5912290000000  0.4598070000000 1.0
C      1  0.4471700000000  0.4164690000000  0.5354310000000 1.0
C      1  0.5499090000000  0.4170950000000  0.4597490000000 1.0
C      1  0.5381910000000  0.4869460000000  0.5146850000000 1.0
C      1  0.4614450000000  0.4801040000000  0.4950500000000 1.0
C      1  0.5414420000000  0.5200760000000  0.5076190000000 1.0
C      1  0.4538150000000  0.5132360000000  0.4957290000000 1.0
C      1  0.5134170000000  0.5112540000000  0.6051630000000 1.0
C      1  0.4863260000000  0.5253670000000  0.3858940000000 1.0
C      1  0.5125940000000  0.4800220000000  0.6050230000000 1.0
C      1  0.4805460000000  0.4695310000000  0.3920890000000 1.0
C      1  0.4457480000000  0.3910800000000  0.4809620000000 1.0
C      1  0.5549030000000  0.3943290000000  0.5144150000000 1.0
C      1  0.4536340000000  0.5918880000000  0.4818370000000 1.0
C      1  0.5628080000000  0.5994300000000  0.5145520000000 1.0
C      1  0.4794530000000  0.3989430000000  0.4989770000000 1.0
C      1  0.5092880000000  0.3972650000000  0.4971860000000 1.0
C      1  0.4930300000000  0.5975380000000  0.5004530000000 1.0
C      1  0.5145140000000  0.6112180000000  0.4818520000000 1.0
C      1  0.4855170000000  0.5217300000000  0.5955700000000 1.0
C      1  0.5342010000000  0.5164410000000  0.4029750000000 1.0
C      1  0.4849810000000  0.4678350000000  0.5910280000000 1.0
C      1  0.5292340000000  0.4872930000000  0.4104880000000 1.0
C      1  0.4005700000000  0.5139410000000  0.5067720000000 1.0
C      1  0.5991440000000  0.5319400000000  0.4992680000000 1.0
C      1  0.3897860000000  0.4857210000000  0.5087430000000 1.0
C      1  0.6113890000000  0.5133310000000  0.5146420000000 1.0
C      1  0.5862700000000  0.4896930000000  0.5585640000000 1.0
C      1  0.4285540000000  0.4931000000000  0.4469430000000 1.0
C      1  0.5888660000000  0.5149370000000  0.5719530000000 1.0
C      1  0.4298540000000  0.5216140000000  0.4407060000000 1.0
C      1  0.5086140000000  0.5169070000000  0.4387430000000 1.0
C      1  0.4946880000000  0.5012690000000  0.5715240000000 1.0
C      1  0.5023450000000  0.4875560000000  0.4290340000000 1.0
C      1  0.5068250000000  0.4722230000000  0.5662980000000 1.0
C      1  0.4520760000000  0.5299500000000  0.4214350000000 1.0
C      1  0.5583190000000  0.5284160000000  0.5655230000000 1.0
C      1  0.4484030000000  0.4780070000000  0.4290350000000 1.0
C      1  0.5603400000000  0.4760460000000  0.5688610000000 1.0
C      1  0.5884160000000  0.4798000000000  0.4929060000000 1.0
C      1  0.4226820000000  0.4787260000000  0.5118950000000 1.0
C      1  0.5686120000000  0.5228980000000  0.4873340000000 1.0
C      1  0.4296480000000  0.5173770000000  0.5193080000000 1.0
C      1  0.4726200000000  0.4395760000000  0.6034310000000 1.0
C      1  0.5104880000000  0.4607350000000  0.4005120000000 1.0
C      1  0.4683350000000  0.5497100000000  0.5920120000000 1.0
C      1  0.5098560000000  0.5328430000000  0.4002320000000 1.0
C      1  0.4748520000000  0.4891780000000  0.4446930000000 1.0
C      1  0.5332610000000  0.4864020000000  0.5543120000000 1.0
C      1  0.4699090000000  0.5195220000000  0.4484400000000 1.0
C      1  0.5323970000000  0.5174310000000  0.5464540000000 1.0
C      1  0.3915060000000  0.4570220000000  0.4996240000000 1.0
C      1  0.5801340000000  0.4606510000000  0.5302090000000 1.0
C      1  0.3945150000000  0.5400490000000  0.4987360000000 1.0
C      1  0.5995620000000  0.5592390000000  0.5011250000000 1.0
C      1  0.5102960000000  0.3919280000000  0.5537010000000 1.0
C      1  0.4946830000000  0.4011990000000  0.4605140000000 1.0
C      1  0.5040580000000  0.5923120000000  0.5303010000000 1.0
C      1  0.4994470000000  0.5961900000000  0.4560910000000 1.0
C      1  0.4631930000000  0.5140690000000  0.3981170000000 1.0
C      1  0.5408860000000  0.5168030000000  0.5918410000000 1.0
C      1  0.4619480000000  0.4867170000000  0.4020370000000 1.0
C      1  0.5422540000000  0.4867710000000  0.5932170000000 1.0
C      1  0.4880120000000  0.4102570000000  0.5633070000000 1.0
C      1  0.5012330000000  0.4219430000000  0.4375020000000 1.0
C      1  0.4942540000000  0.5841260000000  0.5595370000000 1.0
C      1  0.5117210000000  0.5798010000000  0.4305570000000 1.0
C      1  0.4945530000000  0.4544780000000  0.4301670000000 1.0
C      1  0.5010130000000  0.4395790000000  0.5676950000000 1.0
C      1  0.5004300000000  0.5477500000000  0.4291970000000 1.0
C      1  0.4971220000000  0.5571800000000  0.5787260000000 1.0
C      1  0.4955210000000  0.4577490000000  0.4630700000000 1.0
C      1  0.4922950000000  0.4384640000000  0.5354770000000 1.0
C      1  0.4916690000000  0.5505930000000  0.4619340000000 1.0
C      1  0.4996670000000  0.5451360000000  0.5486730000000 1.0
C      1  0.5361270000000  0.5904740000000  0.5337130000000 1.0
C      1  0.4691390000000  0.5994000000000  0.4551470000000 1.0
C      1  0.5370810000000  0.4050950000000  0.5370650000000 1.0
C      1  0.4734820000000  0.3835190000000  0.4628040000000 1.0
C      1  0.5802540000000  0.5290270000000  0.4558700000000 1.0
C      1  0.4216480000000  0.5246430000000  0.5515910000000 1.0
C      1  0.5908040000000  0.4661330000000  0.4618300000000 1.0
C      1  0.4158430000000  0.4678050000000  0.5435900000000 1.0
C      1  0.5693350000000  0.5685310000000  0.5019210000000 1.0
C      1  0.4198820000000  0.5599400000000  0.4972950000000 1.0
C      1  0.5471490000000  0.4400290000000  0.4985680000000 1.0
C      1  0.4195800000000  0.4415060000000  0.4975690000000 1.0
C      1  0.5705980000000  0.5183190000000  0.5354370000000 1.0
C      1  0.4314940000000  0.5228680000000  0.4732910000000 1.0
C      1  0.5893070000000  0.4919760000000  0.5247580000000 1.0
C      1  0.4261750000000  0.4893680000000  0.4796630000000 1.0
C      1  0.5328040000000  0.4197440000000  0.4326850000000 1.0
C      1  0.4598340000000  0.4129340000000  0.5634150000000 1.0
C      1  0.5416830000000  0.5857940000000  0.4311640000000 1.0
C      1  0.4633590000000  0.5903940000000  0.5565740000000 1.0
C      1  0.5066780000000  0.4098360000000  0.5261180000000 1.0
C      1  0.4629660000000  0.4190700000000  0.4770760000000 1.0
C      1  0.5324130000000  0.5935760000000  0.5017770000000 1.0
C      1  0.4807760000000  0.5744480000000  0.4837830000000 1.0
C      1  0.5556870000000  0.4107090000000  0.4926460000000 1.0
C      1  0.4341710000000  0.4122500000000  0.5042840000000 1.0
C      1  0.5661920000000  0.5947250000000  0.4804640000000 1.0
C      1  0.4372950000000  0.5864800000000  0.5033720000000 1.0
C      1  0.4282930000000  0.5073350000000  0.5719250000000 1.0
C      1  0.5850170000000  0.5106870000000  0.4340950000000 1.0
C      1  0.4267240000000  0.4798320000000  0.5671930000000 1.0
C      1  0.5837110000000  0.4830780000000  0.4386770000000 1.0
C      1  0.5333670000000  0.4495510000000  0.4227130000000 1.0
C      1  0.4519140000000  0.4307830000000  0.5834530000000 1.0
C      1  0.5505200000000  0.5592280000000  0.4261050000000 1.0
C      1  0.4553480000000  0.5614950000000  0.5659190000000 1.0
C      1  0.5149320000000  0.4805220000000  0.4907220000000 1.0
C      1  0.4831410000000  0.4875760000000  0.5201950000000 1.0
C      1  0.5139700000000  0.5142970000000  0.4867240000000 1.0
C      1  0.4739830000000  0.5172220000000  0.5208260000000 1.0
C      1  0.4209640000000  0.4370070000000  0.5391350000000 1.0
C      1  0.5747570000000  0.4406390000000  0.4606030000000 1.0
C      1  0.4265670000000  0.5538610000000  0.5556960000000 1.0
C      1  0.5696000000000  0.5549340000000  0.4482790000000 1.0
C      1  0.5185720000000  0.5385010000000  0.5247870000000 1.0
C      1  0.4820220000000  0.5238010000000  0.4799340000000 1.0
C      1  0.5100270000000  0.4840130000000  0.5300910000000 1.0
C      1  0.4848710000000  0.4842290000000  0.4752570000000 1.0
C      1  0.4706820000000  0.4237560000000  0.5158100000000 1.0
C      1  0.5200900000000  0.4176890000000  0.4760900000000 1.0
C      1  0.4785420000000  0.5701080000000  0.5256690000000 1.0
C      1  0.5225250000000  0.5743470000000  0.4686270000000 1.0
C      1  0.5591010000000  0.5281740000000  0.4205670000000 1.0
C      1  0.4517670000000  0.5196410000000  0.5919030000000 1.0
C      1  0.5560590000000  0.4734320000000  0.4261180000000 1.0
C      1  0.4526330000000  0.4646380000000  0.5803530000000 1.0
C      1  0.4419970000000  0.4490310000000  0.4294720000000 1.0
C      1  0.5608940000000  0.4465750000000  0.5712550000000 1.0
C      1  0.4507220000000  0.5595860000000  0.4168560000000 1.0
C      1  0.5557480000000  0.5599090000000  0.5747280000000 1.0
C      1  0.4646440000000  0.4816000000000  0.5550820000000 1.0
C      1  0.5477900000000  0.4911000000000  0.4539910000000 1.0
C      1  0.4660470000000  0.5149870000000  0.5614000000000 1.0
C      1  0.5385550000000  0.5188890000000  0.4453680000000 1.0
C      1  0.4400770000000  0.4589880000000  0.4798210000000 1.0
C      1  0.5520440000000  0.4569540000000  0.5235760000000 1.0
C      1  0.4327470000000  0.5561290000000  0.4668080000000 1.0
C      1  0.5576080000000  0.5456740000000  0.5231520000000 1.0
C      1  0.5195390000000  0.5621390000000  0.5002610000000 1.0
C      1  0.4881420000000  0.5491600000000  0.5017390000000 1.0
C      1  0.5172880000000  0.4467230000000  0.4937120000000 1.0
C      1  0.4872840000000  0.4366020000000  0.4886960000000 1.0
C      1  0.4509850000000  0.4389330000000  0.4585470000000 1.0
C      1  0.5463230000000  0.4324970000000  0.5457070000000 1.0
C      1  0.4507250000000  0.5718670000000  0.4474640000000 1.0
C      1  0.5438190000000  0.5625550000000  0.5442780000000 1.0
C      1  0.4667980000000  0.5418880000000  0.5406030000000 1.0
C      1  0.5238560000000  0.5403770000000  0.4672630000000 1.0
C      1  0.4692990000000  0.4607810000000  0.5303080000000 1.0
C      1  0.5268210000000  0.4644380000000  0.4515960000000 1.0
C      1  0.5545870000000  0.5518270000000  0.4762650000000 1.0
C      1  0.4375580000000  0.5501420000000  0.5237760000000 1.0
C      1  0.5493410000000  0.4551860000000  0.4714650000000 1.0
C      1  0.4434290000000  0.4527460000000  0.5190430000000 1.0
C      1  0.4781880000000  0.5733480000000  0.4265680000000 1.0
C      1  0.5251850000000  0.5741900000000  0.5704840000000 1.0
C      1  0.4691050000000  0.4319530000000  0.4299890000000 1.0
C      1  0.5306010000000  0.4354670000000  0.5745620000000 1.0
C      1  0.5663710000000  0.4933660000000  0.4772640000000 1.0
C      1  0.4452950000000  0.4925140000000  0.5332370000000 1.0
END
