TITL C-3289321-8710-369 -0.00309127714848004 125000 -822.102513934739 0 0 154 (C1) n - 1
REM
REM in /nfs/bkarasulu/CARBON/AIRSS/Generating-Clusters/AIREBO/with-SteepDescent/Higher-Symm/SD-CG/HFTN-CG
REM
REM
REM
REM
REM
REM ./C.cell (b20cbc046b6831c77cfcea5457e17084)
REM
REM compiler GCC version 9.2.1 20190827 (Red Hat 9.2.1-1)
REM options -cpp -mtune=generic -march=x86-64 -g -O0 -fpre-include=/usr/include/finclude/math-vector-fortran.h
REM seed -1707486955 -1047971668 -767819197 1289549715 -342098216 -1301119954 -1841269211 -1177477803 1226004477 -634608573 -512257698 961322427 -1360533651 -931359331 -955966187 1125603025 -1571678431 70496327 -1952384191 -1230250051 -1964160538 707051164 -693739452 2100790568 16841606 -1208271469 935641827 110282076 -2020895682 325031072 656105826 346575012 -766990971
REM
CELL 1.54180   50.00000   50.00000   50.00000   90.00000   90.00000   90.00000
LATT -1
SFAC C  
C      1  0.5844930000000  0.4920120000000  0.5108930000000 1.0
C      1  0.4846840000000  0.4810340000000  0.5925580000000 1.0
C      1  0.5786480000000  0.4388110000000  0.4699450000000 1.0
C      1  0.4613040000000  0.5303370000000  0.4102910000000 1.0
C      1  0.5320830000000  0.4803400000000  0.4325670000000 1.0
C      1  0.4334120000000  0.4933930000000  0.4952740000000 1.0
C      1  0.5294270000000  0.4272100000000  0.5890350000000 1.0
C      1  0.4513240000000  0.5524270000000  0.4864430000000 1.0
C      1  0.5781280000000  0.5159840000000  0.4335890000000 1.0
C      1  0.4839900000000  0.5806910000000  0.4196490000000 1.0
C      1  0.5351180000000  0.5225450000000  0.3980930000000 1.0
C      1  0.5165380000000  0.6009930000000  0.4534130000000 1.0
C      1  0.4365430000000  0.4639640000000  0.5701080000000 1.0
C      1  0.4111230000000  0.4409220000000  0.4786390000000 1.0
C      1  0.5414810000000  0.4045260000000  0.5125710000000 1.0
C      1  0.4628120000000  0.5060430000000  0.6001070000000 1.0
C      1  0.4787720000000  0.5943520000000  0.5237220000000 1.0
C      1  0.5038370000000  0.5817800000000  0.5429560000000 1.0
C      1  0.5495150000000  0.4565090000000  0.4491260000000 1.0
C      1  0.4431700000000  0.4922570000000  0.4486940000000 1.0
C      1  0.4217810000000  0.4553100000000  0.5451870000000 1.0
C      1  0.4525150000000  0.5453580000000  0.5257200000000 1.0
C      1  0.4378960000000  0.5186660000000  0.5904330000000 1.0
C      1  0.4269470000000  0.4624960000000  0.4960220000000 1.0
C      1  0.5444750000000  0.5993140000000  0.4493900000000 1.0
C      1  0.5112880000000  0.4147100000000  0.4354900000000 1.0
C      1  0.5045360000000  0.4978020000000  0.4693020000000 1.0
C      1  0.5465080000000  0.5193590000000  0.4748060000000 1.0
C      1  0.5595830000000  0.5841380000000  0.5362880000000 1.0
C      1  0.5129450000000  0.5439330000000  0.5521250000000 1.0
C      1  0.5825500000000  0.4563420000000  0.4410760000000 1.0
C      1  0.4541300000000  0.4509410000000  0.5083840000000 1.0
C      1  0.4374550000000  0.5757390000000  0.5047210000000 1.0
C      1  0.5886900000000  0.4809310000000  0.5489530000000 1.0
C      1  0.4537230000000  0.4070030000000  0.5066680000000 1.0
C      1  0.5108810000000  0.4796250000000  0.4059910000000 1.0
C      1  0.4387120000000  0.5152140000000  0.5181400000000 1.0
C      1  0.5130070000000  0.4742160000000  0.4846260000000 1.0
C      1  0.4652010000000  0.5162820000000  0.5563900000000 1.0
C      1  0.5014280000000  0.5468200000000  0.4875890000000 1.0
C      1  0.4383840000000  0.5663310000000  0.4425010000000 1.0
C      1  0.4854600000000  0.5198480000000  0.5834720000000 1.0
C      1  0.4942630000000  0.5493050000000  0.5881820000000 1.0
C      1  0.3875600000000  0.5205200000000  0.5020430000000 1.0
C      1  0.5029590000000  0.4521770000000  0.5162050000000 1.0
C      1  0.5269150000000  0.5277940000000  0.4979690000000 1.0
C      1  0.4694080000000  0.3995420000000  0.4785320000000 1.0
C      1  0.5263280000000  0.5550680000000  0.5810830000000 1.0
C      1  0.4068950000000  0.5242710000000  0.4758500000000 1.0
C      1  0.4548480000000  0.4330990000000  0.4617830000000 1.0
C      1  0.4731990000000  0.4505160000000  0.5529820000000 1.0
C      1  0.5576430000000  0.4445930000000  0.5430870000000 1.0
C      1  0.4746270000000  0.4332760000000  0.4369750000000 1.0
C      1  0.4534320000000  0.5787270000000  0.5321910000000 1.0
C      1  0.4981590000000  0.6003150000000  0.4321790000000 1.0
C      1  0.5827470000000  0.4895390000000  0.4482430000000 1.0
C      1  0.5795540000000  0.5658440000000  0.5323620000000 1.0
C      1  0.4776610000000  0.4732230000000  0.4025880000000 1.0
C      1  0.5282100000000  0.5043060000000  0.5192910000000 1.0
C      1  0.5969430000000  0.4674720000000  0.4700990000000 1.0
C      1  0.5859920000000  0.5356640000000  0.4541160000000 1.0
C      1  0.5828250000000  0.5591820000000  0.5053640000000 1.0
C      1  0.4138820000000  0.4325940000000  0.5295890000000 1.0
C      1  0.5956360000000  0.5220740000000  0.4774220000000 1.0
C      1  0.5541260000000  0.5390940000000  0.5745190000000 1.0
C      1  0.5043650000000  0.4486580000000  0.5479870000000 1.0
C      1  0.5876480000000  0.4258210000000  0.4995140000000 1.0
C      1  0.4520300000000  0.4868360000000  0.5671910000000 1.0
C      1  0.5514870000000  0.5824110000000  0.4274330000000 1.0
C      1  0.5604730000000  0.5138920000000  0.5140340000000 1.0
C      1  0.5011790000000  0.4283450000000  0.5835440000000 1.0
C      1  0.5509350000000  0.4843240000000  0.5863710000000 1.0
C      1  0.5275080000000  0.5622900000000  0.4722000000000 1.0
C      1  0.5406070000000  0.4307300000000  0.4287980000000 1.0
C      1  0.5712060000000  0.5721670000000  0.4828540000000 1.0
C      1  0.5567960000000  0.5494890000000  0.4637430000000 1.0
C      1  0.5804090000000  0.5406600000000  0.5510890000000 1.0
C      1  0.4002100000000  0.4712060000000  0.4676130000000 1.0
C      1  0.4611510000000  0.4957530000000  0.5295850000000 1.0
C      1  0.4362360000000  0.5281790000000  0.4315530000000 1.0
C      1  0.5919920000000  0.5112750000000  0.5379880000000 1.0
C      1  0.5068420000000  0.5854250000000  0.4779670000000 1.0
C      1  0.4750280000000  0.5740560000000  0.4752040000000 1.0
C      1  0.5486110000000  0.5251270000000  0.4260000000000 1.0
C      1  0.4953450000000  0.4177610000000  0.5544430000000 1.0
C      1  0.5461470000000  0.4420810000000  0.5709540000000 1.0
C      1  0.4301020000000  0.4437500000000  0.4535770000000 1.0
C      1  0.4143230000000  0.5122370000000  0.5416440000000 1.0
C      1  0.5348050000000  0.4424700000000  0.5231670000000 1.0
C      1  0.5722800000000  0.4974600000000  0.4796120000000 1.0
C      1  0.4752160000000  0.5650050000000  0.5723800000000 1.0
C      1  0.5347830000000  0.5119830000000  0.5790360000000 1.0
C      1  0.5809780000000  0.4578890000000  0.5339160000000 1.0
C      1  0.5357000000000  0.4570780000000  0.4075080000000 1.0
C      1  0.4632920000000  0.4777400000000  0.4895550000000 1.0
C      1  0.4874170000000  0.5255690000000  0.5184330000000 1.0
C      1  0.4173520000000  0.4950000000000  0.4677440000000 1.0
C      1  0.5610200000000  0.4917230000000  0.5570930000000 1.0
C      1  0.4602240000000  0.4549810000000  0.4154090000000 1.0
C      1  0.4383880000000  0.4636570000000  0.4342980000000 1.0
C      1  0.4230460000000  0.5388010000000  0.4995380000000 1.0
C      1  0.4673070000000  0.5565710000000  0.4312020000000 1.0
C      1  0.5504310000000  0.5560450000000  0.4322940000000 1.0
C      1  0.5109430000000  0.4468040000000  0.4284270000000 1.0
C      1  0.4201440000000  0.5472480000000  0.5328050000000 1.0
C      1  0.4796590000000  0.5450010000000  0.5452430000000 1.0
C      1  0.5002120000000  0.5008110000000  0.5356860000000 1.0
C      1  0.4433820000000  0.5012840000000  0.4159060000000 1.0
C      1  0.5460200000000  0.4292540000000  0.4694910000000 1.0
C      1  0.5546780000000  0.4708450000000  0.4795350000000 1.0
C      1  0.5168750000000  0.4840090000000  0.5863360000000 1.0
C      1  0.5292760000000  0.5078290000000  0.4482090000000 1.0
C      1  0.4807750000000  0.4473750000000  0.5920190000000 1.0
C      1  0.4824540000000  0.4042340000000  0.5262660000000 1.0
C      1  0.4737920000000  0.5271870000000  0.4902480000000 1.0
C      1  0.4845780000000  0.4815080000000  0.5589230000000 1.0
C      1  0.5146040000000  0.4153110000000  0.5264230000000 1.0
C      1  0.4353310000000  0.5322960000000  0.5593620000000 1.0
C      1  0.5112040000000  0.5821570000000  0.5702700000000 1.0
C      1  0.5632220000000  0.5975310000000  0.4715690000000 1.0
C      1  0.4455510000000  0.4171620000000  0.5599320000000 1.0
C      1  0.4818150000000  0.5066130000000  0.4077500000000 1.0
C      1  0.4464890000000  0.5297250000000  0.4615980000000 1.0
C      1  0.5168110000000  0.4222020000000  0.4681830000000 1.0
C      1  0.5091660000000  0.5926740000000  0.5068070000000 1.0
C      1  0.5590980000000  0.4150890000000  0.4952170000000 1.0
C      1  0.4698410000000  0.5025140000000  0.4671740000000 1.0
C      1  0.5087510000000  0.5156800000000  0.5634980000000 1.0
C      1  0.4167580000000  0.5442180000000  0.4524670000000 1.0
C      1  0.5401230000000  0.4799120000000  0.5360350000000 1.0
C      1  0.4241930000000  0.4238880000000  0.5050330000000 1.0
C      1  0.3885890000000  0.5113990000000  0.5255550000000 1.0
C      1  0.4866570000000  0.4793100000000  0.5142120000000 1.0
C      1  0.4477180000000  0.5639480000000  0.5606800000000 1.0
C      1  0.4962810000000  0.5588690000000  0.5189810000000 1.0
C      1  0.4863110000000  0.5475760000000  0.4571010000000 1.0
C      1  0.4523920000000  0.4402110000000  0.5814370000000 1.0
C      1  0.4889050000000  0.4639320000000  0.4415090000000 1.0
C      1  0.5528110000000  0.5223910000000  0.5449160000000 1.0
C      1  0.5117390000000  0.5093930000000  0.3946570000000 1.0
C      1  0.4590480000000  0.4280040000000  0.5328920000000 1.0
C      1  0.5370190000000  0.4688300000000  0.5040170000000 1.0
C      1  0.5319760000000  0.5431770000000  0.5278660000000 1.0
C      1  0.5266220000000  0.4646340000000  0.5601450000000 1.0
C      1  0.4976370000000  0.5217450000000  0.4461630000000 1.0
C      1  0.5840440000000  0.5313540000000  0.5019310000000 1.0
C      1  0.4770340000000  0.4547780000000  0.4702600000000 1.0
C      1  0.5319130000000  0.5755530000000  0.5253930000000 1.0
C      1  0.5901020000000  0.4596980000000  0.5019080000000 1.0
C      1  0.5015800000000  0.4435120000000  0.4847920000000 1.0
C      1  0.4728290000000  0.5997000000000  0.4929550000000 1.0
C      1  0.4429770000000  0.4702430000000  0.5312210000000 1.0
C      1  0.4821960000000  0.4928710000000  0.4369890000000 1.0
C      1  0.4867010000000  0.4093610000000  0.4579390000000 1.0
END
