TITL C-3289335-9438-294 0.00110988973237546 125000 -312.619772413145 0 0 57 (C1) n - 1
REM
REM in /nfs/bkarasulu/CARBON/AIRSS/Generating-Clusters/AIREBO/with-SteepDescent/Higher-Symm/SD-CG/HFTN-CG
REM
REM
REM
REM
REM
REM ./C.cell (b20cbc046b6831c77cfcea5457e17084)
REM
REM compiler GCC version 9.2.1 20190827 (Red Hat 9.2.1-1)
REM options -cpp -mtune=generic -march=x86-64 -g -O0 -fpre-include=/usr/include/finclude/math-vector-fortran.h
REM seed 1605948718 -1344405768 1859238460 -1249729714 -1886523682 -999943352 1128118924 923557161 2082661890 -948895573 -843720782 -1187929977 -291466424 219479953 708514581 349749145 909421295 -136346671 665042238 -341565364 977525253 -1039154830 1342075925 -793406540 2034467186 1073214962 628876138 -1513475113 1627461390 -980203748 -93995900 1515776690 1729093962
REM
CELL 1.54180   50.00000   50.00000   50.00000   90.00000   90.00000   90.00000
LATT -1
SFAC C  
C      1  0.5874160000000  0.4898550000000  0.5233670000000 1.0
C      1  0.5264570000000  0.4229060000000  0.4994110000000 1.0
C      1  0.4369830000000  0.4508260000000  0.5032740000000 1.0
C      1  0.4255970000000  0.5584700000000  0.4923780000000 1.0
C      1  0.5420220000000  0.5858180000000  0.5036890000000 1.0
C      1  0.4320990000000  0.4770240000000  0.5097350000000 1.0
C      1  0.4526190000000  0.5594180000000  0.4947420000000 1.0
C      1  0.5490900000000  0.5600310000000  0.5011830000000 1.0
C      1  0.5676610000000  0.4728640000000  0.5160730000000 1.0
C      1  0.4995360000000  0.4282940000000  0.4983020000000 1.0
C      1  0.4735570000000  0.5689740000000  0.4734150000000 1.0
C      1  0.5587460000000  0.5438510000000  0.4733030000000 1.0
C      1  0.5557820000000  0.4649930000000  0.4880730000000 1.0
C      1  0.4814700000000  0.4379830000000  0.4750690000000 1.0
C      1  0.4235370000000  0.4998610000000  0.4918380000000 1.0
C      1  0.5448900000000  0.4424940000000  0.5052940000000 1.0
C      1  0.4622740000000  0.4412290000000  0.4989830000000 1.0
C      1  0.4274170000000  0.5149980000000  0.5191460000000 1.0
C      1  0.4893880000000  0.5719890000000  0.5001590000000 1.0
C      1  0.5669670000000  0.5279520000000  0.4995460000000 1.0
C      1  0.5161100000000  0.5203390000000  0.5227160000000 1.0
C      1  0.5224850000000  0.4675290000000  0.5453110000000 1.0
C      1  0.4948010000000  0.4702360000000  0.5307950000000 1.0
C      1  0.4736550000000  0.4952660000000  0.5400130000000 1.0
C      1  0.4829330000000  0.5259330000000  0.5276510000000 1.0
C      1  0.5443210000000  0.5351710000000  0.5238880000000 1.0
C      1  0.5473980000000  0.4537500000000  0.5354530000000 1.0
C      1  0.4835750000000  0.4425400000000  0.5240160000000 1.0
C      1  0.4432890000000  0.4908540000000  0.5373580000000 1.0
C      1  0.4715470000000  0.5531550000000  0.5220520000000 1.0
C      1  0.5020610000000  0.4856750000000  0.5846850000000 1.0
C      1  0.4812270000000  0.5019520000000  0.5724970000000 1.0
C      1  0.4961650000000  0.5232970000000  0.5570640000000 1.0
C      1  0.5248220000000  0.5137490000000  0.5549380000000 1.0
C      1  0.5245500000000  0.4867670000000  0.5658320000000 1.0
C      1  0.4972800000000  0.4676240000000  0.4357210000000 1.0
C      1  0.4494930000000  0.4986900000000  0.4476370000000 1.0
C      1  0.5007800000000  0.5490640000000  0.4280940000000 1.0
C      1  0.5203930000000  0.5284420000000  0.4319130000000 1.0
C      1  0.5342590000000  0.4793940000000  0.4440890000000 1.0
C      1  0.4887310000000  0.4608020000000  0.4608220000000 1.0
C      1  0.4291100000000  0.5020490000000  0.4650040000000 1.0
C      1  0.4834210000000  0.5541900000000  0.4520920000000 1.0
C      1  0.5392490000000  0.5346590000000  0.4560950000000 1.0
C      1  0.5398190000000  0.4795900000000  0.4708750000000 1.0
C      1  0.4895730000000  0.4859890000000  0.4792580000000 1.0
C      1  0.4795930000000  0.5000070000000  0.4507860000000 1.0
C      1  0.4917120000000  0.5270600000000  0.4602130000000 1.0
C      1  0.5165130000000  0.5235540000000  0.4713130000000 1.0
C      1  0.5202300000000  0.4969740000000  0.4845140000000 1.0
C      1  0.4777120000000  0.4262370000000  0.5459630000000 1.0
C      1  0.4306880000000  0.4824220000000  0.5609130000000 1.0
C      1  0.4630050000000  0.5667360000000  0.5451620000000 1.0
C      1  0.5549500000000  0.5394050000000  0.5494490000000 1.0
C      1  0.5598740000000  0.4366870000000  0.5537650000000 1.0
C      1  0.5001400000000  0.4930880000000  0.5101300000000 1.0
C      1  0.5090330000000  0.4994760000000  0.4335480000000 1.0
END
