TITL C-3289330-4660-278 -0.000554592364693574 125000 -855.760246443618 0 0 163 (C1) n - 1
REM
REM in /nfs/bkarasulu/CARBON/AIRSS/Generating-Clusters/AIREBO/with-SteepDescent/Higher-Symm/SD-CG/HFTN-CG
REM
REM
REM
REM
REM
REM ./C.cell (b20cbc046b6831c77cfcea5457e17084)
REM
REM compiler GCC version 9.2.1 20190827 (Red Hat 9.2.1-1)
REM options -cpp -mtune=generic -march=x86-64 -g -O0 -fpre-include=/usr/include/finclude/math-vector-fortran.h
REM seed -1422601768 873462315 -1782485607 442817453 -1867131573 80984802 -1121098109 1475340171 -1127351307 -1232040994 -641245838 -548239335 -699629519 87473554 -350706511 129003131 2146032825 1688944850 -1567725190 2119608187 -363656297 -531354701 2047312244 -1521522235 -383918919 -1381506041 -1916959722 827057398 -593578097 1186739773 907993160 1118424995 826579332
REM
CELL 1.54180   50.00000   50.00000   50.00000   90.00000   90.00000   90.00000
LATT -1
SFAC C  
C      1  0.4342840000000  0.4317240000000  0.5079260000000 1.0
C      1  0.5646070000000  0.4284610000000  0.4870980000000 1.0
C      1  0.5266090000000  0.5427150000000  0.5552440000000 1.0
C      1  0.4699380000000  0.5371830000000  0.4556530000000 1.0
C      1  0.5422660000000  0.4069050000000  0.5408630000000 1.0
C      1  0.4626730000000  0.3950400000000  0.4599080000000 1.0
C      1  0.4861070000000  0.5197010000000  0.4240540000000 1.0
C      1  0.5157360000000  0.5290750000000  0.5846950000000 1.0
C      1  0.4491240000000  0.4269640000000  0.5348880000000 1.0
C      1  0.5557140000000  0.4203190000000  0.4600890000000 1.0
C      1  0.5964120000000  0.5373140000000  0.5477510000000 1.0
C      1  0.4066310000000  0.5420060000000  0.4421810000000 1.0
C      1  0.5124150000000  0.4430580000000  0.4451350000000 1.0
C      1  0.4833460000000  0.4388770000000  0.5545820000000 1.0
C      1  0.5828950000000  0.4556850000000  0.4851990000000 1.0
C      1  0.4261090000000  0.4638640000000  0.5048090000000 1.0
C      1  0.5046910000000  0.5176660000000  0.5546260000000 1.0
C      1  0.4959940000000  0.5164260000000  0.4564270000000 1.0
C      1  0.4485630000000  0.5688330000000  0.5316580000000 1.0
C      1  0.5529930000000  0.5668230000000  0.4679490000000 1.0
C      1  0.4830710000000  0.5628970000000  0.4736250000000 1.0
C      1  0.5212410000000  0.5564210000000  0.5245870000000 1.0
C      1  0.5238350000000  0.5228350000000  0.5199450000000 1.0
C      1  0.4830930000000  0.5191500000000  0.4946170000000 1.0
C      1  0.5296460000000  0.5084030000000  0.5996880000000 1.0
C      1  0.4727470000000  0.5022310000000  0.4080160000000 1.0
C      1  0.4662990000000  0.5657160000000  0.4374530000000 1.0
C      1  0.5226890000000  0.5694100000000  0.5759450000000 1.0
C      1  0.5287970000000  0.5469610000000  0.4812470000000 1.0
C      1  0.4758280000000  0.5503570000000  0.5231860000000 1.0
C      1  0.4497590000000  0.5104970000000  0.4976190000000 1.0
C      1  0.5472650000000  0.5058010000000  0.4910370000000 1.0
C      1  0.5544060000000  0.5483810000000  0.4389250000000 1.0
C      1  0.4423350000000  0.5463660000000  0.5565200000000 1.0
C      1  0.4806810000000  0.4191320000000  0.4465840000000 1.0
C      1  0.5194980000000  0.4226530000000  0.5593680000000 1.0
C      1  0.4729530000000  0.5904800000000  0.4466770000000 1.0
C      1  0.5392210000000  0.5834510000000  0.5509060000000 1.0
C      1  0.4428480000000  0.4170510000000  0.4861750000000 1.0
C      1  0.5436000000000  0.4405500000000  0.5101700000000 1.0
C      1  0.4470600000000  0.4698140000000  0.5309240000000 1.0
C      1  0.5561050000000  0.4597600000000  0.4646500000000 1.0
C      1  0.5697940000000  0.5586490000000  0.5440880000000 1.0
C      1  0.4327580000000  0.5576920000000  0.4575680000000 1.0
C      1  0.5853610000000  0.5275210000000  0.4518640000000 1.0
C      1  0.4130830000000  0.5266140000000  0.5380650000000 1.0
C      1  0.5186660000000  0.5361740000000  0.4506270000000 1.0
C      1  0.4812200000000  0.5386830000000  0.5548980000000 1.0
C      1  0.4495540000000  0.5867350000000  0.5038020000000 1.0
C      1  0.5549300000000  0.5847110000000  0.4968050000000 1.0
C      1  0.4980800000000  0.5493160000000  0.6030380000000 1.0
C      1  0.4933700000000  0.5458180000000  0.4112170000000 1.0
C      1  0.4762420000000  0.5340150000000  0.5882160000000 1.0
C      1  0.5217730000000  0.5359270000000  0.4167540000000 1.0
C      1  0.4685430000000  0.4214640000000  0.5874030000000 1.0
C      1  0.5274350000000  0.4208650000000  0.4103510000000 1.0
C      1  0.5344210000000  0.5137760000000  0.4040320000000 1.0
C      1  0.4647900000000  0.5096140000000  0.5959750000000 1.0
C      1  0.4985090000000  0.4682120000000  0.5331410000000 1.0
C      1  0.5056850000000  0.4728010000000  0.4708620000000 1.0
C      1  0.4883730000000  0.5963710000000  0.4764050000000 1.0
C      1  0.5166840000000  0.5900740000000  0.5263370000000 1.0
C      1  0.5707610000000  0.4523270000000  0.5831100000000 1.0
C      1  0.4301790000000  0.4537410000000  0.4162060000000 1.0
C      1  0.5141800000000  0.4680770000000  0.4221790000000 1.0
C      1  0.4850840000000  0.4663520000000  0.5745440000000 1.0
C      1  0.5559040000000  0.5626730000000  0.5732270000000 1.0
C      1  0.4424700000000  0.5501780000000  0.4258600000000 1.0
C      1  0.3972660000000  0.5102100000000  0.5135380000000 1.0
C      1  0.5982560000000  0.5090740000000  0.4848530000000 1.0
C      1  0.5991450000000  0.4600430000000  0.5123010000000 1.0
C      1  0.3977400000000  0.4608570000000  0.4865470000000 1.0
C      1  0.5955680000000  0.4883050000000  0.5043090000000 1.0
C      1  0.4002000000000  0.4907800000000  0.4905340000000 1.0
C      1  0.5496600000000  0.4676440000000  0.5230410000000 1.0
C      1  0.4449650000000  0.4717950000000  0.4772460000000 1.0
C      1  0.4047120000000  0.4564170000000  0.4594790000000 1.0
C      1  0.5896190000000  0.4598790000000  0.5389610000000 1.0
C      1  0.5637650000000  0.5050640000000  0.4654840000000 1.0
C      1  0.4363690000000  0.5026420000000  0.5281000000000 1.0
C      1  0.4715690000000  0.4510250000000  0.5270770000000 1.0
C      1  0.5295180000000  0.4487360000000  0.4738900000000 1.0
C      1  0.5616670000000  0.4445370000000  0.4368510000000 1.0
C      1  0.4400740000000  0.4494690000000  0.5575700000000 1.0
C      1  0.4912970000000  0.4088540000000  0.5655020000000 1.0
C      1  0.5100020000000  0.4106550000000  0.4353740000000 1.0
C      1  0.5511790000000  0.5353800000000  0.5040950000000 1.0
C      1  0.4509760000000  0.5430080000000  0.5013000000000 1.0
C      1  0.5178430000000  0.4820090000000  0.5012710000000 1.0
C      1  0.4853640000000  0.4805280000000  0.5043030000000 1.0
C      1  0.5716810000000  0.5354410000000  0.5861310000000 1.0
C      1  0.4302030000000  0.5292100000000  0.4126740000000 1.0
C      1  0.5139860000000  0.5095410000000  0.4839780000000 1.0
C      1  0.4942290000000  0.5066400000000  0.5242070000000 1.0
C      1  0.5172990000000  0.4708860000000  0.5859120000000 1.0
C      1  0.4807080000000  0.4637460000000  0.4151700000000 1.0
C      1  0.4877490000000  0.4067150000000  0.5048500000000 1.0
C      1  0.5131940000000  0.4222170000000  0.4881510000000 1.0
C      1  0.4269070000000  0.5000280000000  0.4745600000000 1.0
C      1  0.5679000000000  0.4959140000000  0.5181170000000 1.0
C      1  0.4918510000000  0.5665640000000  0.5712180000000 1.0
C      1  0.5048460000000  0.5661680000000  0.4477150000000 1.0
C      1  0.4001410000000  0.5332610000000  0.4148480000000 1.0
C      1  0.5974730000000  0.5342710000000  0.5754540000000 1.0
C      1  0.5192950000000  0.4914020000000  0.3979740000000 1.0
C      1  0.4822430000000  0.4882550000000  0.6003940000000 1.0
C      1  0.4097280000000  0.4646270000000  0.5552070000000 1.0
C      1  0.5832880000000  0.4695910000000  0.4371350000000 1.0
C      1  0.5403450000000  0.4503970000000  0.5964440000000 1.0
C      1  0.4534980000000  0.4503340000000  0.4021420000000 1.0
C      1  0.4912390000000  0.4851200000000  0.3935340000000 1.0
C      1  0.5099630000000  0.4898990000000  0.6122330000000 1.0
C      1  0.5450070000000  0.5142550000000  0.5524250000000 1.0
C      1  0.4588540000000  0.5053130000000  0.4513030000000 1.0
C      1  0.4424870000000  0.5009900000000  0.4150650000000 1.0
C      1  0.5591130000000  0.5063570000000  0.5889790000000 1.0
C      1  0.5800230000000  0.4845070000000  0.5763900000000 1.0
C      1  0.4192980000000  0.4812480000000  0.4225100000000 1.0
C      1  0.4577000000000  0.4481860000000  0.5833300000000 1.0
C      1  0.5391860000000  0.4459800000000  0.4156170000000 1.0
C      1  0.5330810000000  0.5703130000000  0.4335870000000 1.0
C      1  0.4594600000000  0.5686570000000  0.5699240000000 1.0
C      1  0.5538510000000  0.5645190000000  0.5189240000000 1.0
C      1  0.4498170000000  0.5664600000000  0.4797840000000 1.0
C      1  0.5584620000000  0.4608440000000  0.5525740000000 1.0
C      1  0.4371240000000  0.4537840000000  0.4494940000000 1.0
C      1  0.5679220000000  0.5267390000000  0.5324790000000 1.0
C      1  0.4320230000000  0.5243810000000  0.4545060000000 1.0
C      1  0.5310370000000  0.6007510000000  0.5006250000000 1.0
C      1  0.4741810000000  0.6019270000000  0.5031560000000 1.0
C      1  0.4877010000000  0.5994730000000  0.5280590000000 1.0
C      1  0.5177920000000  0.6030340000000  0.4761190000000 1.0
C      1  0.5191210000000  0.4444770000000  0.5334830000000 1.0
C      1  0.4907980000000  0.4409280000000  0.4706870000000 1.0
C      1  0.4488300000000  0.4262360000000  0.4550310000000 1.0
C      1  0.5517070000000  0.4297570000000  0.5643910000000 1.0
C      1  0.4194890000000  0.5350260000000  0.5065560000000 1.0
C      1  0.5825430000000  0.5326660000000  0.4912030000000 1.0
C      1  0.4417230000000  0.5039480000000  0.5800390000000 1.0
C      1  0.5611810000000  0.5067940000000  0.4144580000000 1.0
C      1  0.4801220000000  0.4124920000000  0.5333810000000 1.0
C      1  0.5291050000000  0.4092780000000  0.4610270000000 1.0
C      1  0.4563370000000  0.5156240000000  0.5523830000000 1.0
C      1  0.5447850000000  0.5159340000000  0.4425670000000 1.0
C      1  0.5331660000000  0.4095370000000  0.5125820000000 1.0
C      1  0.4660580000000  0.3969180000000  0.4901950000000 1.0
C      1  0.4255230000000  0.4848630000000  0.5686980000000 1.0
C      1  0.5810960000000  0.4876830000000  0.4167490000000 1.0
C      1  0.5411090000000  0.4853220000000  0.5692110000000 1.0
C      1  0.4568920000000  0.4771270000000  0.4345950000000 1.0
C      1  0.4162570000000  0.5592820000000  0.5290970000000 1.0
C      1  0.5832440000000  0.5523730000000  0.4690610000000 1.0
C      1  0.4093270000000  0.4820130000000  0.5281730000000 1.0
C      1  0.5877020000000  0.4830200000000  0.4655450000000 1.0
C      1  0.5237300000000  0.4893720000000  0.4469370000000 1.0
C      1  0.4776590000000  0.4891470000000  0.5499940000000 1.0
C      1  0.5304760000000  0.4919480000000  0.5312360000000 1.0
C      1  0.4740030000000  0.4855570000000  0.4746140000000 1.0
C      1  0.4111100000000  0.4840020000000  0.4490400000000 1.0
C      1  0.5848060000000  0.4900900000000  0.5470770000000 1.0
C      1  0.4696070000000  0.5900890000000  0.5478320000000 1.0
C      1  0.5339490000000  0.5922850000000  0.4558890000000 1.0
C      1  0.4999580000000  0.5483140000000  0.4992940000000 1.0
END
