TITL C-3289325-7307-2 -0.000891161281342802 125000 -635.276231415394 0 0 116 (C1) n - 1
REM
REM in /nfs/bkarasulu/CARBON/AIRSS/Generating-Clusters/AIREBO/with-SteepDescent/Higher-Symm/SD-CG/HFTN-CG
REM
REM
REM
REM
REM
REM ./C.cell (b20cbc046b6831c77cfcea5457e17084)
REM
REM compiler GCC version 9.2.1 20190827 (Red Hat 9.2.1-1)
REM options -cpp -mtune=generic -march=x86-64 -g -O0 -fpre-include=/usr/include/finclude/math-vector-fortran.h
REM seed -1486900912 -1733064518 493844084 526110224 -1373386937 1034690239 -1839908268 812081101 1239610748 1006497413 -560391094 -2015881047 1344974952 -365143138 311360418 -867645820 1329651155 1639978915 417597201 1143290792 2071464621 -1513428375 -77899944 2038259101 139520336 -732569404 1616986927 853794262 -893808635 794149300 -863370171 -1613039062 -2069269151
REM
CELL 1.54180   50.00000   50.00000   50.00000   90.00000   90.00000   90.00000
LATT -1
SFAC C  
C      1  0.5015320000000  0.4107430000000  0.5130100000000 1.0
C      1  0.5410700000000  0.5277590000000  0.4203040000000 1.0
C      1  0.4839370000000  0.4540750000000  0.5613510000000 1.0
C      1  0.5138940000000  0.4986690000000  0.5209290000000 1.0
C      1  0.5150960000000  0.5436170000000  0.4704500000000 1.0
C      1  0.6127750000000  0.5724090000000  0.4629920000000 1.0
C      1  0.4187790000000  0.4483400000000  0.4665550000000 1.0
C      1  0.4550500000000  0.4852150000000  0.4262380000000 1.0
C      1  0.5097680000000  0.4465060000000  0.5783960000000 1.0
C      1  0.4749800000000  0.5218720000000  0.4673630000000 1.0
C      1  0.4348410000000  0.4918250000000  0.4936020000000 1.0
C      1  0.4450740000000  0.5186560000000  0.4774930000000 1.0
C      1  0.4155570000000  0.5197330000000  0.5224520000000 1.0
C      1  0.5772330000000  0.4973380000000  0.5525990000000 1.0
C      1  0.5392700000000  0.5647540000000  0.5621940000000 1.0
C      1  0.5373510000000  0.5921560000000  0.4602370000000 1.0
C      1  0.5217940000000  0.4785160000000  0.4089690000000 1.0
C      1  0.4861340000000  0.4664750000000  0.4838910000000 1.0
C      1  0.5001420000000  0.5699470000000  0.5084640000000 1.0
C      1  0.5608650000000  0.4125320000000  0.5105800000000 1.0
C      1  0.6032500000000  0.4923940000000  0.5068400000000 1.0
C      1  0.5168700000000  0.4209040000000  0.4869190000000 1.0
C      1  0.5552430000000  0.5477470000000  0.5441350000000 1.0
C      1  0.4951980000000  0.5234510000000  0.4897780000000 1.0
C      1  0.5103930000000  0.4658600000000  0.5434270000000 1.0
C      1  0.4619760000000  0.4402650000000  0.5200750000000 1.0
C      1  0.5614260000000  0.5166820000000  0.5197710000000 1.0
C      1  0.4611500000000  0.5149910000000  0.4002960000000 1.0
C      1  0.5177610000000  0.5350940000000  0.5473680000000 1.0
C      1  0.4730470000000  0.4257580000000  0.4664010000000 1.0
C      1  0.4451470000000  0.4585240000000  0.4225500000000 1.0
C      1  0.5321640000000  0.4527690000000  0.5258890000000 1.0
C      1  0.4241000000000  0.5448270000000  0.4758240000000 1.0
C      1  0.5779100000000  0.5451210000000  0.4970190000000 1.0
C      1  0.4632860000000  0.5762340000000  0.4412220000000 1.0
C      1  0.4239650000000  0.4818070000000  0.4629250000000 1.0
C      1  0.4845590000000  0.4928430000000  0.4111360000000 1.0
C      1  0.5193030000000  0.5465520000000  0.5785170000000 1.0
C      1  0.5672040000000  0.5386040000000  0.4657320000000 1.0
C      1  0.4624530000000  0.4923040000000  0.4647410000000 1.0
C      1  0.3961950000000  0.4336420000000  0.5288380000000 1.0
C      1  0.5041850000000  0.5081420000000  0.5732770000000 1.0
C      1  0.4826870000000  0.4668170000000  0.5237380000000 1.0
C      1  0.4811300000000  0.5761690000000  0.4650380000000 1.0
C      1  0.4483250000000  0.5175230000000  0.5652270000000 1.0
C      1  0.4559160000000  0.4610330000000  0.4742610000000 1.0
C      1  0.4887380000000  0.4722660000000  0.3877220000000 1.0
C      1  0.5251830000000  0.5533220000000  0.5014400000000 1.0
C      1  0.5113300000000  0.4966740000000  0.6041850000000 1.0
C      1  0.4470530000000  0.5262480000000  0.4208290000000 1.0
C      1  0.4312890000000  0.5051070000000  0.4403620000000 1.0
C      1  0.5893940000000  0.4746680000000  0.4841850000000 1.0
C      1  0.5031950000000  0.4598390000000  0.4580050000000 1.0
C      1  0.4585890000000  0.5483760000000  0.4320040000000 1.0
C      1  0.5528260000000  0.4426070000000  0.4656470000000 1.0
C      1  0.5929030000000  0.5591180000000  0.4713290000000 1.0
C      1  0.5480110000000  0.4181450000000  0.4858430000000 1.0
C      1  0.5029100000000  0.5394740000000  0.4221260000000 1.0
C      1  0.4851400000000  0.4939560000000  0.5033980000000 1.0
C      1  0.4946310000000  0.5706810000000  0.5392380000000 1.0
C      1  0.5427960000000  0.4956890000000  0.4778200000000 1.0
C      1  0.4407420000000  0.4449990000000  0.4997940000000 1.0
C      1  0.5813820000000  0.4552550000000  0.4673870000000 1.0
C      1  0.4873230000000  0.5458540000000  0.4509320000000 1.0
C      1  0.5124120000000  0.4179640000000  0.5365110000000 1.0
C      1  0.4424050000000  0.4238700000000  0.4731200000000 1.0
C      1  0.5516670000000  0.5147000000000  0.5516460000000 1.0
C      1  0.4624990000000  0.5384440000000  0.5860710000000 1.0
C      1  0.5192540000000  0.5840950000000  0.5522830000000 1.0
C      1  0.4724830000000  0.4961870000000  0.5761850000000 1.0
C      1  0.4545370000000  0.5028600000000  0.5152960000000 1.0
C      1  0.4099930000000  0.5229930000000  0.4961370000000 1.0
C      1  0.5398190000000  0.5225190000000  0.4682680000000 1.0
C      1  0.5232860000000  0.4805010000000  0.4985180000000 1.0
C      1  0.5298900000000  0.4550360000000  0.4199360000000 1.0
C      1  0.5043590000000  0.4258710000000  0.4569350000000 1.0
C      1  0.4811460000000  0.5815850000000  0.4918270000000 1.0
C      1  0.5135560000000  0.5100020000000  0.4158920000000 1.0
C      1  0.5201820000000  0.5618660000000  0.4208070000000 1.0
C      1  0.4839700000000  0.4796010000000  0.4432290000000 1.0
C      1  0.5560910000000  0.5560360000000  0.5153600000000 1.0
C      1  0.5661460000000  0.4941980000000  0.4962740000000 1.0
C      1  0.4818020000000  0.5315470000000  0.5168950000000 1.0
C      1  0.5441720000000  0.4229340000000  0.5368820000000 1.0
C      1  0.4384060000000  0.4398050000000  0.5645100000000 1.0
C      1  0.4878100000000  0.5325170000000  0.5561360000000 1.0
C      1  0.4745950000000  0.5624640000000  0.5653380000000 1.0
C      1  0.5927180000000  0.5202460000000  0.5097300000000 1.0
C      1  0.4573750000000  0.5877590000000  0.5034880000000 1.0
C      1  0.4775120000000  0.5072640000000  0.5399820000000 1.0
C      1  0.4174240000000  0.5108020000000  0.5522580000000 1.0
C      1  0.5118890000000  0.4495810000000  0.4988600000000 1.0
C      1  0.4445450000000  0.4449540000000  0.4465320000000 1.0
C      1  0.4658960000000  0.5570410000000  0.5271500000000 1.0
C      1  0.5658730000000  0.4554870000000  0.5287640000000 1.0
C      1  0.4940130000000  0.4740150000000  0.5907400000000 1.0
C      1  0.4936900000000  0.5513880000000  0.5906500000000 1.0
C      1  0.5312020000000  0.4666740000000  0.4683260000000 1.0
C      1  0.5232080000000  0.4959960000000  0.5525480000000 1.0
C      1  0.5223300000000  0.6112480000000  0.5528480000000 1.0
C      1  0.5241830000000  0.5013520000000  0.6258460000000 1.0
C      1  0.5795750000000  0.4328980000000  0.5216050000000 1.0
C      1  0.5308960000000  0.5668870000000  0.4513020000000 1.0
C      1  0.5520740000000  0.5454430000000  0.4382230000000 1.0
C      1  0.5316530000000  0.4379630000000  0.4406520000000 1.0
C      1  0.4113860000000  0.4462880000000  0.5127070000000 1.0
C      1  0.4595700000000  0.4462250000000  0.5503710000000 1.0
C      1  0.5793310000000  0.4816410000000  0.5279030000000 1.0
C      1  0.4459120000000  0.5301820000000  0.5336600000000 1.0
C      1  0.4086420000000  0.5176700000000  0.4624230000000 1.0
C      1  0.5250920000000  0.4278800000000  0.5648260000000 1.0
C      1  0.4102280000000  0.4691090000000  0.4911800000000 1.0
C      1  0.5930540000000  0.4959800000000  0.5732620000000 1.0
C      1  0.4218370000000  0.5716210000000  0.4759450000000 1.0
C      1  0.5303160000000  0.5263560000000  0.5201660000000 1.0
C      1  0.4746760000000  0.4129820000000  0.5127390000000 1.0
END
