TITL C-3289333-7213-128 -0.000542154129967733 125000 -641.995689321722 0 0 116 (C1) n - 1
REM
REM in /nfs/bkarasulu/CARBON/AIRSS/Generating-Clusters/AIREBO/with-SteepDescent/Higher-Symm/SD-CG/HFTN-CG
REM
REM
REM
REM
REM
REM ./C.cell (b20cbc046b6831c77cfcea5457e17084)
REM
REM compiler GCC version 9.2.1 20190827 (Red Hat 9.2.1-1)
REM options -cpp -mtune=generic -march=x86-64 -g -O0 -fpre-include=/usr/include/finclude/math-vector-fortran.h
REM seed 807973420 1181794478 546252980 1619760833 -846928329 804209263 299177575 -2118917078 -1583546545 -1016365773 1134173948 -295906151 -1613155612 -1082225134 880515195 1859780008 -1190821249 -571448179 -1723472840 -300662650 -380461963 541601906 -1337784379 1660898025 -64636288 1593666709 1267223860 700001693 1243663834 -54952982 -1820398404 -1360464314 18542135
REM
CELL 1.54180   50.00000   50.00000   50.00000   90.00000   90.00000   90.00000
LATT -1
SFAC C  
C      1  0.5573060000000  0.5473130000000  0.5260020000000 1.0
C      1  0.5669090000000  0.4563130000000  0.5332760000000 1.0
C      1  0.4346940000000  0.4862750000000  0.4566490000000 1.0
C      1  0.4488900000000  0.5159500000000  0.4480420000000 1.0
C      1  0.5450000000000  0.5743590000000  0.5378180000000 1.0
C      1  0.5500010000000  0.4364900000000  0.5238240000000 1.0
C      1  0.5494450000000  0.4816510000000  0.4258260000000 1.0
C      1  0.5468170000000  0.5090940000000  0.4322680000000 1.0
C      1  0.4833610000000  0.5170250000000  0.4863400000000 1.0
C      1  0.4858950000000  0.4867620000000  0.4990610000000 1.0
C      1  0.5623130000000  0.5741140000000  0.4793560000000 1.0
C      1  0.5642050000000  0.4521970000000  0.4762450000000 1.0
C      1  0.4919600000000  0.4918750000000  0.5311640000000 1.0
C      1  0.4895060000000  0.5214990000000  0.5473060000000 1.0
C      1  0.5549220000000  0.5859700000000  0.4546110000000 1.0
C      1  0.5682880000000  0.4303780000000  0.4539350000000 1.0
C      1  0.4542880000000  0.5636550000000  0.4528420000000 1.0
C      1  0.4540160000000  0.4552980000000  0.4783510000000 1.0
C      1  0.4381280000000  0.5416620000000  0.4598520000000 1.0
C      1  0.4234100000000  0.4549260000000  0.4634320000000 1.0
C      1  0.4871480000000  0.4364380000000  0.5126010000000 1.0
C      1  0.4926500000000  0.5612310000000  0.5193770000000 1.0
C      1  0.5024150000000  0.5478020000000  0.5447390000000 1.0
C      1  0.5018120000000  0.4408830000000  0.5391720000000 1.0
C      1  0.4853000000000  0.5015750000000  0.6073210000000 1.0
C      1  0.4814390000000  0.4748720000000  0.5856050000000 1.0
C      1  0.4561670000000  0.5156430000000  0.5036090000000 1.0
C      1  0.4552370000000  0.4866570000000  0.4908670000000 1.0
C      1  0.4859580000000  0.4340390000000  0.5674440000000 1.0
C      1  0.4920260000000  0.5652900000000  0.5711130000000 1.0
C      1  0.4558280000000  0.4455580000000  0.5766750000000 1.0
C      1  0.4658460000000  0.5567460000000  0.5906300000000 1.0
C      1  0.4555650000000  0.4165460000000  0.4687610000000 1.0
C      1  0.4721160000000  0.5799100000000  0.4703730000000 1.0
C      1  0.5285490000000  0.5451910000000  0.5079780000000 1.0
C      1  0.5259050000000  0.4630390000000  0.5061420000000 1.0
C      1  0.4232110000000  0.4412740000000  0.5353680000000 1.0
C      1  0.4242300000000  0.5685920000000  0.5255010000000 1.0
C      1  0.5204420000000  0.5761680000000  0.5439190000000 1.0
C      1  0.5293210000000  0.4266110000000  0.5380700000000 1.0
C      1  0.5345230000000  0.5304790000000  0.5726970000000 1.0
C      1  0.5386130000000  0.4684800000000  0.5686210000000 1.0
C      1  0.5121380000000  0.5136060000000  0.4514020000000 1.0
C      1  0.5194010000000  0.4807050000000  0.4561010000000 1.0
C      1  0.5803360000000  0.5529520000000  0.4821360000000 1.0
C      1  0.5919920000000  0.4601060000000  0.4886380000000 1.0
C      1  0.5397220000000  0.5136930000000  0.5142940000000 1.0
C      1  0.5248350000000  0.4868890000000  0.5239120000000 1.0
C      1  0.4620910000000  0.4407710000000  0.5436350000000 1.0
C      1  0.4649530000000  0.5593370000000  0.5513500000000 1.0
C      1  0.4861170000000  0.5554430000000  0.4118800000000 1.0
C      1  0.4861910000000  0.4377110000000  0.4270620000000 1.0
C      1  0.5049280000000  0.4510970000000  0.4645390000000 1.0
C      1  0.5009270000000  0.5440240000000  0.4600380000000 1.0
C      1  0.5431420000000  0.4402240000000  0.4941200000000 1.0
C      1  0.5399920000000  0.5732810000000  0.4958340000000 1.0
C      1  0.4483650000000  0.4775210000000  0.5827570000000 1.0
C      1  0.4581460000000  0.5071700000000  0.5876320000000 1.0
C      1  0.5910460000000  0.4656670000000  0.5158930000000 1.0
C      1  0.5797260000000  0.5395210000000  0.5072120000000 1.0
C      1  0.5223410000000  0.5266470000000  0.4226960000000 1.0
C      1  0.5281440000000  0.4632560000000  0.4195540000000 1.0
C      1  0.4957900000000  0.4703270000000  0.5548600000000 1.0
C      1  0.4880420000000  0.5127810000000  0.5752930000000 1.0
C      1  0.5524120000000  0.4864000000000  0.5430590000000 1.0
C      1  0.5495920000000  0.5207130000000  0.5460810000000 1.0
C      1  0.5319440000000  0.5568700000000  0.4249310000000 1.0
C      1  0.5242790000000  0.4408840000000  0.4388400000000 1.0
C      1  0.5248530000000  0.4228480000000  0.4745030000000 1.0
C      1  0.5033090000000  0.5778740000000  0.4621990000000 1.0
C      1  0.5734830000000  0.4728370000000  0.4434960000000 1.0
C      1  0.5606350000000  0.5171320000000  0.4557640000000 1.0
C      1  0.4793010000000  0.5112670000000  0.3997100000000 1.0
C      1  0.4796470000000  0.4825980000000  0.4131530000000 1.0
C      1  0.4978660000000  0.5308760000000  0.4041710000000 1.0
C      1  0.4983970000000  0.4586470000000  0.4141810000000 1.0
C      1  0.5132450000000  0.4822120000000  0.5804830000000 1.0
C      1  0.5189480000000  0.5113600000000  0.5853690000000 1.0
C      1  0.5239290000000  0.5553830000000  0.5775110000000 1.0
C      1  0.5178320000000  0.4431100000000  0.5753760000000 1.0
C      1  0.4544910000000  0.4447980000000  0.5107140000000 1.0
C      1  0.4611530000000  0.5528440000000  0.5174050000000 1.0
C      1  0.4305950000000  0.5242640000000  0.5472160000000 1.0
C      1  0.4327270000000  0.4918340000000  0.5492270000000 1.0
C      1  0.4327100000000  0.5372090000000  0.5155030000000 1.0
C      1  0.4315930000000  0.4681140000000  0.5170460000000 1.0
C      1  0.4236770000000  0.5411490000000  0.4829580000000 1.0
C      1  0.4230070000000  0.4784390000000  0.4878900000000 1.0
C      1  0.4523830000000  0.5115580000000  0.4144310000000 1.0
C      1  0.4486740000000  0.4822510000000  0.4273290000000 1.0
C      1  0.5970900000000  0.4661080000000  0.4584840000000 1.0
C      1  0.5815500000000  0.5361120000000  0.4591260000000 1.0
C      1  0.5305500000000  0.5770230000000  0.4429460000000 1.0
C      1  0.5430790000000  0.4206110000000  0.4477240000000 1.0
C      1  0.4657870000000  0.5792940000000  0.4965100000000 1.0
C      1  0.4441130000000  0.4188120000000  0.4913880000000 1.0
C      1  0.4782200000000  0.5113170000000  0.4566260000000 1.0
C      1  0.4883060000000  0.4836490000000  0.4437090000000 1.0
C      1  0.5804970000000  0.4927220000000  0.5249510000000 1.0
C      1  0.5784100000000  0.5116060000000  0.5047990000000 1.0
C      1  0.4750530000000  0.4400900000000  0.4570740000000 1.0
C      1  0.4791090000000  0.5564340000000  0.4388560000000 1.0
C      1  0.4416940000000  0.4152930000000  0.5340900000000 1.0
C      1  0.4447660000000  0.5818640000000  0.5392640000000 1.0
C      1  0.5202730000000  0.5898430000000  0.4863720000000 1.0
C      1  0.5135880000000  0.3967940000000  0.4837380000000 1.0
C      1  0.4516200000000  0.5352980000000  0.5715670000000 1.0
C      1  0.4298190000000  0.4599640000000  0.5601790000000 1.0
C      1  0.4588330000000  0.4834150000000  0.5305090000000 1.0
C      1  0.4607400000000  0.5164940000000  0.5350800000000 1.0
C      1  0.4986660000000  0.4592860000000  0.4945030000000 1.0
C      1  0.5005660000000  0.5429930000000  0.4927180000000 1.0
C      1  0.5488360000000  0.4802590000000  0.4657300000000 1.0
C      1  0.5545070000000  0.5044950000000  0.4850610000000 1.0
C      1  0.4729760000000  0.5892680000000  0.5260200000000 1.0
C      1  0.4686530000000  0.4089170000000  0.5208120000000 1.0
END
