TITL C-3289323-3850-596 -0.00290224741009176 125000 -454.99864270844 0 0 98 (C1) n - 1
REM
REM in /nfs/bkarasulu/CARBON/AIRSS/Generating-Clusters/AIREBO/with-SteepDescent/Higher-Symm/SD-CG/HFTN-CG
REM
REM
REM
REM
REM
REM ./C.cell (b20cbc046b6831c77cfcea5457e17084)
REM
REM compiler GCC version 9.2.1 20190827 (Red Hat 9.2.1-1)
REM options -cpp -mtune=generic -march=x86-64 -g -O0 -fpre-include=/usr/include/finclude/math-vector-fortran.h
REM seed 1430615936 1666761323 731727021 -460370159 -95097258 111097125 -1216367321 1033158810 -1910495023 665247041 97597771 1007684014 -1153918251 1508471605 -298863288 465026965 845021575 165924129 -1996960841 549652890 -660092396 -831225812 832600396 1380376596 1441871192 1689766032 2129189188 -721098428 -318729853 645244233 -1361138124 240673275 1857415200
REM
CELL 1.54180   50.00000   50.00000   50.00000   90.00000   90.00000   90.00000
LATT -1
SFAC C  
C      1  0.5144250000000  0.4876790000000  0.5290310000000 1.0
C      1  0.4749040000000  0.4829770000000  0.4716220000000 1.0
C      1  0.4865250000000  0.4868640000000  0.5291710000000 1.0
C      1  0.5064330000000  0.4792140000000  0.4772760000000 1.0
C      1  0.4795840000000  0.4510670000000  0.5702610000000 1.0
C      1  0.5180940000000  0.4529300000000  0.4292850000000 1.0
C      1  0.5143140000000  0.4502260000000  0.5677460000000 1.0
C      1  0.4823120000000  0.4494300000000  0.4281950000000 1.0
C      1  0.5208530000000  0.5098990000000  0.4804940000000 1.0
C      1  0.4733350000000  0.5175140000000  0.5235560000000 1.0
C      1  0.4699870000000  0.5153580000000  0.4807860000000 1.0
C      1  0.5259530000000  0.5158050000000  0.5315780000000 1.0
C      1  0.4566380000000  0.5767850000000  0.4741270000000 1.0
C      1  0.5310090000000  0.5660900000000  0.5141340000000 1.0
C      1  0.5353000000000  0.5734710000000  0.4821990000000 1.0
C      1  0.4711800000000  0.5718360000000  0.5000340000000 1.0
C      1  0.4458650000000  0.5252770000000  0.4439080000000 1.0
C      1  0.5515220000000  0.5278210000000  0.5593090000000 1.0
C      1  0.5486500000000  0.5286230000000  0.4452100000000 1.0
C      1  0.4522590000000  0.5296940000000  0.5552170000000 1.0
C      1  0.5430710000000  0.5364410000000  0.5177960000000 1.0
C      1  0.4513090000000  0.5437720000000  0.4798860000000 1.0
C      1  0.4600110000000  0.5433470000000  0.5130060000000 1.0
C      1  0.5367050000000  0.5394980000000  0.4849200000000 1.0
C      1  0.5763680000000  0.5427550000000  0.5205500000000 1.0
C      1  0.4175030000000  0.5409690000000  0.4822170000000 1.0
C      1  0.4262660000000  0.5456370000000  0.5120030000000 1.0
C      1  0.5696980000000  0.5462230000000  0.4898200000000 1.0
C      1  0.5162500000000  0.4883390000000  0.5791860000000 1.0
C      1  0.4815410000000  0.4890880000000  0.4277610000000 1.0
C      1  0.4815400000000  0.4892800000000  0.5811880000000 1.0
C      1  0.5153270000000  0.4925510000000  0.4260930000000 1.0
C      1  0.5257660000000  0.4518110000000  0.4707290000000 1.0
C      1  0.4742240000000  0.4556990000000  0.5232190000000 1.0
C      1  0.4786690000000  0.4491730000000  0.4718680000000 1.0
C      1  0.5295430000000  0.4584270000000  0.5205030000000 1.0
C      1  0.5615790000000  0.4947680000000  0.5627570000000 1.0
C      1  0.4336920000000  0.4932960000000  0.4423440000000 1.0
C      1  0.4372970000000  0.4985190000000  0.5570010000000 1.0
C      1  0.5629070000000  0.4971020000000  0.4447980000000 1.0
C      1  0.4155290000000  0.4687790000000  0.4895950000000 1.0
C      1  0.5872410000000  0.4650850000000  0.5147340000000 1.0
C      1  0.5865560000000  0.4701550000000  0.4859510000000 1.0
C      1  0.4156440000000  0.4719430000000  0.5182410000000 1.0
C      1  0.4788290000000  0.5183060000000  0.5731430000000 1.0
C      1  0.5170740000000  0.5225360000000  0.4354300000000 1.0
C      1  0.5201050000000  0.5180450000000  0.5680330000000 1.0
C      1  0.4761910000000  0.5158020000000  0.4390440000000 1.0
C      1  0.4439280000000  0.4660520000000  0.5347200000000 1.0
C      1  0.5556090000000  0.4680940000000  0.4714730000000 1.0
C      1  0.5593800000000  0.4674450000000  0.5341050000000 1.0
C      1  0.4441940000000  0.4683630000000  0.4710730000000 1.0
C      1  0.4069060000000  0.4972060000000  0.5269080000000 1.0
C      1  0.5946420000000  0.4992500000000  0.4795040000000 1.0
C      1  0.5935150000000  0.4882130000000  0.5325140000000 1.0
C      1  0.4034560000000  0.4908960000000  0.4759090000000 1.0
C      1  0.5439420000000  0.4330120000000  0.4489890000000 1.0
C      1  0.4564940000000  0.4289080000000  0.5343940000000 1.0
C      1  0.4523820000000  0.4294700000000  0.4775450000000 1.0
C      1  0.5483820000000  0.4284820000000  0.5232150000000 1.0
C      1  0.4338680000000  0.5177990000000  0.5291870000000 1.0
C      1  0.5671770000000  0.5176600000000  0.4715500000000 1.0
C      1  0.5700480000000  0.5126900000000  0.5351170000000 1.0
C      1  0.4288020000000  0.5121450000000  0.4702360000000 1.0
C      1  0.4738980000000  0.5518950000000  0.5711110000000 1.0
C      1  0.5369910000000  0.5570730000000  0.4334920000000 1.0
C      1  0.5253230000000  0.5501860000000  0.5605980000000 1.0
C      1  0.4656670000000  0.5422510000000  0.4218310000000 1.0
C      1  0.5381970000000  0.4711220000000  0.5601880000000 1.0
C      1  0.4568960000000  0.4691350000000  0.4395020000000 1.0
C      1  0.4592090000000  0.4748560000000  0.5622260000000 1.0
C      1  0.5401070000000  0.4754900000000  0.4420400000000 1.0
C      1  0.5284460000000  0.4330790000000  0.4978430000000 1.0
C      1  0.4754190000000  0.4310960000000  0.4997530000000 1.0
C      1  0.4943910000000  0.4373410000000  0.5435520000000 1.0
C      1  0.5011750000000  0.4359450000000  0.4534000000000 1.0
C      1  0.5030620000000  0.4085570000000  0.4666560000000 1.0
C      1  0.4991660000000  0.4123140000000  0.5308620000000 1.0
C      1  0.4990840000000  0.4637600000000  0.5952240000000 1.0
C      1  0.4994060000000  0.4693660000000  0.4065960000000 1.0
C      1  0.4963230000000  0.5441520000000  0.4196130000000 1.0
C      1  0.5017840000000  0.5371260000000  0.5897240000000 1.0
C      1  0.4524340000000  0.4747400000000  0.5032560000000 1.0
C      1  0.5515120000000  0.4780720000000  0.5027750000000 1.0
C      1  0.5020560000000  0.5681800000000  0.5611910000000 1.0
C      1  0.5167970000000  0.5686900000000  0.4436460000000 1.0
C      1  0.5684460000000  0.5034320000000  0.5024210000000 1.0
C      1  0.4444540000000  0.5043560000000  0.4994510000000 1.0
C      1  0.4980020000000  0.5564150000000  0.5321290000000 1.0
C      1  0.5005370000000  0.5589490000000  0.4693520000000 1.0
C      1  0.4969410000000  0.5261580000000  0.4626000000000 1.0
C      1  0.4963080000000  0.5251480000000  0.5447890000000 1.0
C      1  0.5007800000000  0.4612090000000  0.5026760000000 1.0
C      1  0.5024450000000  0.6081340000000  0.4968390000000 1.0
C      1  0.4967430000000  0.5140010000000  0.5017220000000 1.0
C      1  0.5003130000000  0.5447770000000  0.5002620000000 1.0
C      1  0.5043930000000  0.5784650000000  0.4969450000000 1.0
C      1  0.5033780000000  0.4138860000000  0.4991490000000 1.0
END
