TITL C-3289323-3850-707 -0.00156208299257235 125000 -762.683845965688 0 0 145 (C1) n - 1
REM
REM in /nfs/bkarasulu/CARBON/AIRSS/Generating-Clusters/AIREBO/with-SteepDescent/Higher-Symm/SD-CG/HFTN-CG
REM
REM
REM
REM
REM
REM ./C.cell (b20cbc046b6831c77cfcea5457e17084)
REM
REM compiler GCC version 9.2.1 20190827 (Red Hat 9.2.1-1)
REM options -cpp -mtune=generic -march=x86-64 -g -O0 -fpre-include=/usr/include/finclude/math-vector-fortran.h
REM seed -285855739 -748655170 -1849597453 -675992409 621168920 261291074 1022237590 42838470 307093435 1996834367 675059187 771719543 1717456014 1201951874 -1161527751 -423890226 -1640078850 -1435978665 1120621079 2132854101 1706825470 -1444612978 -1487528760 -1544267800 1938800263 1114921129 -1711793307 -1947768775 -148717874 -839692918 -2115214303 -1954852138 702205987
REM
CELL 1.54180   50.00000   50.00000   50.00000   90.00000   90.00000   90.00000
LATT -1
SFAC C  
C      1  0.4768330000000  0.5371600000000  0.5527960000000 1.0
C      1  0.5573910000000  0.5433400000000  0.4947730000000 1.0
C      1  0.4707100000000  0.5396330000000  0.4509950000000 1.0
C      1  0.3974110000000  0.4836730000000  0.4752520000000 1.0
C      1  0.5104280000000  0.4886890000000  0.6032360000000 1.0
C      1  0.5818260000000  0.4930820000000  0.4390130000000 1.0
C      1  0.4346630000000  0.4236410000000  0.5164520000000 1.0
C      1  0.5404310000000  0.4283490000000  0.5507060000000 1.0
C      1  0.5211130000000  0.4331200000000  0.4367270000000 1.0
C      1  0.4852830000000  0.4868750000000  0.4327470000000 1.0
C      1  0.4508330000000  0.4809340000000  0.5495060000000 1.0
C      1  0.5695050000000  0.4855180000000  0.5213320000000 1.0
C      1  0.4212470000000  0.5001240000000  0.5235750000000 1.0
C      1  0.5564570000000  0.4975170000000  0.5610020000000 1.0
C      1  0.5224080000000  0.4937700000000  0.4172500000000 1.0
C      1  0.5416800000000  0.4777400000000  0.4477890000000 1.0
C      1  0.4390880000000  0.4786210000000  0.4955620000000 1.0
C      1  0.5232040000000  0.4763670000000  0.5543130000000 1.0
C      1  0.5085570000000  0.4447340000000  0.4129920000000 1.0
C      1  0.4232830000000  0.4441060000000  0.5373730000000 1.0
C      1  0.5684850000000  0.4449770000000  0.5549150000000 1.0
C      1  0.5101010000000  0.4384630000000  0.5391330000000 1.0
C      1  0.5210340000000  0.4442680000000  0.4689040000000 1.0
C      1  0.4565460000000  0.4381340000000  0.4977770000000 1.0
C      1  0.5689900000000  0.5566980000000  0.4683610000000 1.0
C      1  0.4396600000000  0.5497870000000  0.4566690000000 1.0
C      1  0.4942060000000  0.5549370000000  0.5737190000000 1.0
C      1  0.4411690000000  0.5335610000000  0.5144660000000 1.0
C      1  0.5480940000000  0.5337590000000  0.5467690000000 1.0
C      1  0.5209130000000  0.5403170000000  0.4360910000000 1.0
C      1  0.5139030000000  0.5582810000000  0.5213470000000 1.0
C      1  0.5175630000000  0.5577370000000  0.4718580000000 1.0
C      1  0.4682220000000  0.5595940000000  0.4946240000000 1.0
C      1  0.6025890000000  0.5509950000000  0.4891820000000 1.0
C      1  0.4410730000000  0.5478590000000  0.4167930000000 1.0
C      1  0.4600960000000  0.5455160000000  0.5920610000000 1.0
C      1  0.4599030000000  0.4062610000000  0.5255040000000 1.0
C      1  0.5334920000000  0.4141700000000  0.5205580000000 1.0
C      1  0.4991650000000  0.4160140000000  0.4515750000000 1.0
C      1  0.5755940000000  0.4759660000000  0.5651330000000 1.0
C      1  0.5158770000000  0.4710280000000  0.4011710000000 1.0
C      1  0.4125200000000  0.4744980000000  0.5328260000000 1.0
C      1  0.5051770000000  0.5983110000000  0.5476750000000 1.0
C      1  0.5355400000000  0.5924020000000  0.4632880000000 1.0
C      1  0.4535140000000  0.5876730000000  0.4822970000000 1.0
C      1  0.4903060000000  0.5356160000000  0.6016550000000 1.0
C      1  0.5975020000000  0.5411670000000  0.4580270000000 1.0
C      1  0.4150490000000  0.5390010000000  0.4368640000000 1.0
C      1  0.5814980000000  0.4668590000000  0.4490630000000 1.0
C      1  0.4110910000000  0.4674460000000  0.4578080000000 1.0
C      1  0.5031470000000  0.4623800000000  0.5993730000000 1.0
C      1  0.4616280000000  0.4179820000000  0.5785730000000 1.0
C      1  0.5690900000000  0.4277990000000  0.5090330000000 1.0
C      1  0.4534110000000  0.4264640000000  0.4296420000000 1.0
C      1  0.4843390000000  0.4460090000000  0.4454920000000 1.0
C      1  0.4594180000000  0.4305340000000  0.5470410000000 1.0
C      1  0.5415270000000  0.4461180000000  0.5151340000000 1.0
C      1  0.5358960000000  0.5694980000000  0.4979690000000 1.0
C      1  0.4858780000000  0.5659720000000  0.4662640000000 1.0
C      1  0.4859190000000  0.5718450000000  0.5188270000000 1.0
C      1  0.5808830000000  0.4691490000000  0.4970890000000 1.0
C      1  0.4588370000000  0.4660810000000  0.4344850000000 1.0
C      1  0.4609900000000  0.4573460000000  0.5678980000000 1.0
C      1  0.5338430000000  0.4976890000000  0.5864020000000 1.0
C      1  0.5555630000000  0.5012390000000  0.4189720000000 1.0
C      1  0.4100170000000  0.5098820000000  0.4929860000000 1.0
C      1  0.5621400000000  0.5865850000000  0.4658800000000 1.0
C      1  0.4395730000000  0.5808170000000  0.4586170000000 1.0
C      1  0.4948720000000  0.5853930000000  0.5688900000000 1.0
C      1  0.4545090000000  0.5055370000000  0.5283570000000 1.0
C      1  0.5467570000000  0.5068220000000  0.5293470000000 1.0
C      1  0.5034380000000  0.5119750000000  0.4389280000000 1.0
C      1  0.4831670000000  0.4943160000000  0.5022420000000 1.0
C      1  0.4986330000000  0.4671650000000  0.5100330000000 1.0
C      1  0.5105740000000  0.4914140000000  0.4725670000000 1.0
C      1  0.4072850000000  0.5334030000000  0.5174020000000 1.0
C      1  0.5492540000000  0.5268020000000  0.5779730000000 1.0
C      1  0.5469580000000  0.5340210000000  0.4190060000000 1.0
C      1  0.5532980000000  0.5875190000000  0.5220800000000 1.0
C      1  0.4832880000000  0.5864180000000  0.4392180000000 1.0
C      1  0.4701470000000  0.5667010000000  0.5435870000000 1.0
C      1  0.4883260000000  0.5053440000000  0.6056800000000 1.0
C      1  0.5959360000000  0.5097720000000  0.4567330000000 1.0
C      1  0.4309540000000  0.5121740000000  0.4449550000000 1.0
C      1  0.5913200000000  0.5059680000000  0.5077400000000 1.0
C      1  0.4650650000000  0.5030340000000  0.4151550000000 1.0
C      1  0.4491420000000  0.4997880000000  0.5744500000000 1.0
C      1  0.5245730000000  0.4600610000000  0.4958390000000 1.0
C      1  0.4784320000000  0.4511370000000  0.4785840000000 1.0
C      1  0.4805140000000  0.4495080000000  0.5304190000000 1.0
C      1  0.4869820000000  0.5156860000000  0.5284350000000 1.0
C      1  0.5362000000000  0.5170070000000  0.4985010000000 1.0
C      1  0.4858940000000  0.5143720000000  0.4680000000000 1.0
C      1  0.5072270000000  0.4510810000000  0.5705750000000 1.0
C      1  0.5577770000000  0.4619090000000  0.4732160000000 1.0
C      1  0.4442350000000  0.4651420000000  0.4651800000000 1.0
C      1  0.5738210000000  0.5749350000000  0.5360610000000 1.0
C      1  0.4916220000000  0.5761980000000  0.4151360000000 1.0
C      1  0.4429410000000  0.5701930000000  0.5479270000000 1.0
C      1  0.4738960000000  0.4571890000000  0.5915930000000 1.0
C      1  0.5976520000000  0.4613310000000  0.4742630000000 1.0
C      1  0.4254790000000  0.4608350000000  0.4304440000000 1.0
C      1  0.5732150000000  0.5478740000000  0.5361060000000 1.0
C      1  0.4959210000000  0.5492520000000  0.4148410000000 1.0
C      1  0.4310310000000  0.5434810000000  0.5453750000000 1.0
C      1  0.5841010000000  0.5351510000000  0.5105270000000 1.0
C      1  0.4704050000000  0.5327890000000  0.4192710000000 1.0
C      1  0.4487060000000  0.5282720000000  0.5667570000000 1.0
C      1  0.5172710000000  0.5965100000000  0.4890360000000 1.0
C      1  0.4843680000000  0.5951930000000  0.4864430000000 1.0
C      1  0.4967740000000  0.6039090000000  0.5156020000000 1.0
C      1  0.5186140000000  0.5097590000000  0.5590620000000 1.0
C      1  0.5476990000000  0.5100630000000  0.4507450000000 1.0
C      1  0.4388200000000  0.5065070000000  0.4760250000000 1.0
C      1  0.5827690000000  0.4261540000000  0.5327820000000 1.0
C      1  0.4786930000000  0.4362080000000  0.4134170000000 1.0
C      1  0.4317820000000  0.4300630000000  0.5668750000000 1.0
C      1  0.4489850000000  0.4322250000000  0.4580100000000 1.0
C      1  0.4909990000000  0.4220030000000  0.5698920000000 1.0
C      1  0.5560900000000  0.4301330000000  0.4816680000000 1.0
C      1  0.4714980000000  0.4839530000000  0.4729610000000 1.0
C      1  0.4980730000000  0.4844790000000  0.5373390000000 1.0
C      1  0.5388460000000  0.4868500000000  0.4865130000000 1.0
C      1  0.4630160000000  0.4952240000000  0.5974670000000 1.0
C      1  0.6021340000000  0.5000330000000  0.4831780000000 1.0
C      1  0.4392410000000  0.4987910000000  0.4226000000000 1.0
C      1  0.5481890000000  0.4657880000000  0.5381630000000 1.0
C      1  0.5090900000000  0.4690270000000  0.4492000000000 1.0
C      1  0.4492810000000  0.4603850000000  0.5224470000000 1.0
C      1  0.5163730000000  0.5317130000000  0.5345540000000 1.0
C      1  0.5288350000000  0.5288670000000  0.4674830000000 1.0
C      1  0.4610510000000  0.5271370000000  0.4874320000000 1.0
C      1  0.5011710000000  0.4062260000000  0.5458210000000 1.0
C      1  0.5297740000000  0.4144750000000  0.4791900000000 1.0
C      1  0.4629190000000  0.4143780000000  0.4777140000000 1.0
C      1  0.5266840000000  0.5846500000000  0.5337050000000 1.0
C      1  0.5226370000000  0.5735310000000  0.4431800000000 1.0
C      1  0.4380850000000  0.5669100000000  0.5085700000000 1.0
C      1  0.5175760000000  0.5339640000000  0.5830840000000 1.0
C      1  0.5688230000000  0.5355130000000  0.4427090000000 1.0
C      1  0.4116710000000  0.5353490000000  0.4705010000000 1.0
C      1  0.4894630000000  0.4063600000000  0.4752990000000 1.0
C      1  0.4853920000000  0.3951270000000  0.5234610000000 1.0
C      1  0.5078810000000  0.4051440000000  0.5029030000000 1.0
C      1  0.5024530000000  0.5211350000000  0.4976470000000 1.0
END
