TITL C-3289334-2237-94 0.000265958687088123 125000 -594.012205012798 0 0 110 (C1) n - 1
REM
REM in /nfs/bkarasulu/CARBON/AIRSS/Generating-Clusters/AIREBO/with-SteepDescent/Higher-Symm/SD-CG/HFTN-CG
REM
REM
REM
REM
REM
REM ./C.cell (b20cbc046b6831c77cfcea5457e17084)
REM
REM compiler GCC version 9.2.1 20190827 (Red Hat 9.2.1-1)
REM options -cpp -mtune=generic -march=x86-64 -g -O0 -fpre-include=/usr/include/finclude/math-vector-fortran.h
REM seed -455821824 1983241561 743075593 1600176791 -411240954 553299507 40768020 -1765764566 -1294247100 2129421747 -823632807 -1810802284 1396570025 -202175168 -1813291343 644933827 428036845 -1791166060 -400846861 92050843 1492173826 1766127732 1212987686 1766490457 -2102383374 -1988160058 1557492603 310642976 808274139 122860503 -410081899 1185018238 -1839193789
REM
CELL 1.54180   50.00000   50.00000   50.00000   90.00000   90.00000   90.00000
LATT -1
SFAC C  
C      1  0.4839490000000  0.5878940000000  0.4772350000000 1.0
C      1  0.4060590000000  0.5086360000000  0.4799840000000 1.0
C      1  0.4667690000000  0.4175130000000  0.4750330000000 1.0
C      1  0.5710540000000  0.4462000000000  0.4724020000000 1.0
C      1  0.5882780000000  0.5286480000000  0.4887060000000 1.0
C      1  0.4708260000000  0.5037830000000  0.4963530000000 1.0
C      1  0.4786940000000  0.4722470000000  0.4897870000000 1.0
C      1  0.5185830000000  0.4745390000000  0.4904990000000 1.0
C      1  0.5235310000000  0.5071730000000  0.4991450000000 1.0
C      1  0.4965910000000  0.5257930000000  0.4992270000000 1.0
C      1  0.5171230000000  0.4507100000000  0.4584530000000 1.0
C      1  0.5596350000000  0.5163530000000  0.4641680000000 1.0
C      1  0.5137610000000  0.5528650000000  0.4592480000000 1.0
C      1  0.4485310000000  0.5288920000000  0.4574400000000 1.0
C      1  0.4571640000000  0.4630770000000  0.4576150000000 1.0
C      1  0.4291250000000  0.5547300000000  0.5272410000000 1.0
C      1  0.4270730000000  0.4481090000000  0.5307510000000 1.0
C      1  0.5258130000000  0.4163940000000  0.5254510000000 1.0
C      1  0.5856460000000  0.5000780000000  0.5329830000000 1.0
C      1  0.5318880000000  0.5829790000000  0.5253670000000 1.0
C      1  0.5484810000000  0.4989620000000  0.5187910000000 1.0
C      1  0.5156400000000  0.5478340000000  0.5158950000000 1.0
C      1  0.4560560000000  0.5277590000000  0.5154070000000 1.0
C      1  0.4592220000000  0.4632070000000  0.5127410000000 1.0
C      1  0.5189580000000  0.4552320000000  0.5154160000000 1.0
C      1  0.4862690000000  0.5649230000000  0.4522260000000 1.0
C      1  0.4277770000000  0.5069130000000  0.4537330000000 1.0
C      1  0.4876700000000  0.4197830000000  0.4527120000000 1.0
C      1  0.5649310000000  0.4638690000000  0.4458180000000 1.0
C      1  0.5519390000000  0.5380560000000  0.4468680000000 1.0
C      1  0.5605090000000  0.5880170000000  0.4538340000000 1.0
C      1  0.4341450000000  0.5814410000000  0.4505380000000 1.0
C      1  0.3988210000000  0.4607220000000  0.4500140000000 1.0
C      1  0.5316570000000  0.3934410000000  0.4559580000000 1.0
C      1  0.5974190000000  0.5071270000000  0.4733200000000 1.0
C      1  0.4999730000000  0.5773110000000  0.5154090000000 1.0
C      1  0.4237910000000  0.5222150000000  0.5194240000000 1.0
C      1  0.4521570000000  0.4319750000000  0.5189880000000 1.0
C      1  0.5484130000000  0.4384220000000  0.5129870000000 1.0
C      1  0.5778430000000  0.5260470000000  0.5198540000000 1.0
C      1  0.4536480000000  0.5683430000000  0.4612110000000 1.0
C      1  0.4167360000000  0.4755880000000  0.4611800000000 1.0
C      1  0.5129920000000  0.4114230000000  0.4638260000000 1.0
C      1  0.5818560000000  0.4831930000000  0.4620230000000 1.0
C      1  0.5532540000000  0.5630020000000  0.4614380000000 1.0
C      1  0.4730110000000  0.5511490000000  0.5730590000000 1.0
C      1  0.4535780000000  0.5029320000000  0.5826840000000 1.0
C      1  0.4906390000000  0.4443620000000  0.5710920000000 1.0
C      1  0.5369890000000  0.4628170000000  0.5809100000000 1.0
C      1  0.5324330000000  0.5367310000000  0.5741920000000 1.0
C      1  0.5028100000000  0.5368960000000  0.5684470000000 1.0
C      1  0.4737670000000  0.5192480000000  0.5664770000000 1.0
C      1  0.4673310000000  0.4595150000000  0.5598410000000 1.0
C      1  0.5127910000000  0.4608410000000  0.5673780000000 1.0
C      1  0.5440260000000  0.5106780000000  0.5642260000000 1.0
C      1  0.4903240000000  0.4727410000000  0.4213290000000 1.0
C      1  0.5174800000000  0.4846550000000  0.4206580000000 1.0
C      1  0.5112270000000  0.5155470000000  0.4189710000000 1.0
C      1  0.4814450000000  0.5199520000000  0.4184570000000 1.0
C      1  0.4689350000000  0.4927250000000  0.4194460000000 1.0
C      1  0.4856120000000  0.5569880000000  0.4913200000000 1.0
C      1  0.4371410000000  0.5020170000000  0.4920750000000 1.0
C      1  0.4846070000000  0.4438600000000  0.4841950000000 1.0
C      1  0.5474230000000  0.4630520000000  0.4885940000000 1.0
C      1  0.5497670000000  0.5287550000000  0.5008190000000 1.0
C      1  0.5550070000000  0.5737360000000  0.5049990000000 1.0
C      1  0.4449860000000  0.5684600000000  0.5084460000000 1.0
C      1  0.4169170000000  0.4672640000000  0.5115730000000 1.0
C      1  0.5006980000000  0.4106160000000  0.5069320000000 1.0
C      1  0.5838470000000  0.4794350000000  0.5121550000000 1.0
C      1  0.5633160000000  0.4931110000000  0.4887460000000 1.0
C      1  0.5327820000000  0.5549810000000  0.4873840000000 1.0
C      1  0.4545410000000  0.5455800000000  0.4864610000000 1.0
C      1  0.4391230000000  0.4688380000000  0.4858690000000 1.0
C      1  0.5160240000000  0.4347000000000  0.4884450000000 1.0
C      1  0.5437370000000  0.5609940000000  0.5703390000000 1.0
C      1  0.4515530000000  0.5660970000000  0.5708730000000 1.0
C      1  0.4465760000000  0.4782130000000  0.5764180000000 1.0
C      1  0.4987110000000  0.4176150000000  0.5684530000000 1.0
C      1  0.5552620000000  0.4832070000000  0.5783690000000 1.0
C      1  0.5793340000000  0.5567040000000  0.5056490000000 1.0
C      1  0.4690650000000  0.5892980000000  0.5077810000000 1.0
C      1  0.4031400000000  0.4964180000000  0.5116280000000 1.0
C      1  0.4695800000000  0.4141220000000  0.5059500000000 1.0
C      1  0.5801690000000  0.4480770000000  0.5052580000000 1.0
C      1  0.5068960000000  0.5242140000000  0.4670570000000 1.0
C      1  0.4758420000000  0.5172900000000  0.4661760000000 1.0
C      1  0.4789940000000  0.4875050000000  0.4608200000000 1.0
C      1  0.5080220000000  0.4813360000000  0.4611400000000 1.0
C      1  0.5316120000000  0.5038320000000  0.4668730000000 1.0
C      1  0.5521060000000  0.6103120000000  0.5058600000000 1.0
C      1  0.4628040000000  0.6145240000000  0.5181280000000 1.0
C      1  0.3778600000000  0.4970860000000  0.5236230000000 1.0
C      1  0.5224510000000  0.3808770000000  0.5074470000000 1.0
C      1  0.6009610000000  0.4313820000000  0.5135610000000 1.0
C      1  0.5255220000000  0.5003860000000  0.5401150000000 1.0
C      1  0.5050380000000  0.5244300000000  0.5381670000000 1.0
C      1  0.4751260000000  0.5103880000000  0.5355050000000 1.0
C      1  0.4779890000000  0.4785750000000  0.5348050000000 1.0
C      1  0.5103050000000  0.4729850000000  0.5395140000000 1.0
C      1  0.4694850000000  0.5409350000000  0.4347980000000 1.0
C      1  0.4470320000000  0.4860610000000  0.4368940000000 1.0
C      1  0.4861750000000  0.4511310000000  0.4443380000000 1.0
C      1  0.5371450000000  0.4676000000000  0.4376470000000 1.0
C      1  0.5259380000000  0.5343750000000  0.4334260000000 1.0
C      1  0.4336980000000  0.4572550000000  0.5565820000000 1.0
C      1  0.5200870000000  0.4120430000000  0.5516580000000 1.0
C      1  0.5746910000000  0.4971680000000  0.5579860000000 1.0
C      1  0.5379540000000  0.5800890000000  0.5516510000000 1.0
C      1  0.4303130000000  0.5638740000000  0.5536320000000 1.0
END
