TITL C-3289331-6719-401 -0.000376338498214923 125000 -569.177135548359 0 0 105 (C1) n - 1
REM
REM in /nfs/bkarasulu/CARBON/AIRSS/Generating-Clusters/AIREBO/with-SteepDescent/Higher-Symm/SD-CG/HFTN-CG
REM
REM
REM
REM
REM
REM ./C.cell (b20cbc046b6831c77cfcea5457e17084)
REM
REM compiler GCC version 9.2.1 20190827 (Red Hat 9.2.1-1)
REM options -cpp -mtune=generic -march=x86-64 -g -O0 -fpre-include=/usr/include/finclude/math-vector-fortran.h
REM seed 267964585 -987864442 -2106042299 369287221 -515380419 94844591 1942192545 -1993253888 1940266290 840459094 512830916 -672843 935079483 -162361320 1936885670 -1692143862 1725581516 1753281574 1715364782 2077192748 2128582450 -944517909 1519634497 -461651538 -1753445527 -84081385 1191188481 -1471219772 -1800066537 -1668047110 -17112515 -43932455 -617239622
REM
CELL 1.54180   50.00000   50.00000   50.00000   90.00000   90.00000   90.00000
LATT -1
SFAC C  
C      1  0.4789330000000  0.5806280000000  0.4867000000000 1.0
C      1  0.4786050000000  0.5129750000000  0.4191620000000 1.0
C      1  0.4758630000000  0.4243140000000  0.4628400000000 1.0
C      1  0.4785050000000  0.4462820000000  0.5563890000000 1.0
C      1  0.4773490000000  0.5336780000000  0.5695660000000 1.0
C      1  0.4940110000000  0.4047010000000  0.5085160000000 1.0
C      1  0.4975650000000  0.4807430000000  0.5932620000000 1.0
C      1  0.4944920000000  0.5767120000000  0.5493720000000 1.0
C      1  0.4961500000000  0.5718400000000  0.4386940000000 1.0
C      1  0.4931400000000  0.4652460000000  0.4137310000000 1.0
C      1  0.4978740000000  0.5288450000000  0.4598730000000 1.0
C      1  0.4903300000000  0.4645570000000  0.4605500000000 1.0
C      1  0.4907520000000  0.4502880000000  0.5178990000000 1.0
C      1  0.4935730000000  0.5006220000000  0.5498110000000 1.0
C      1  0.4948740000000  0.5526200000000  0.5120250000000 1.0
C      1  0.4553020000000  0.4342710000000  0.5450560000000 1.0
C      1  0.4546800000000  0.5165810000000  0.5682600000000 1.0
C      1  0.4555650000000  0.5768320000000  0.5026790000000 1.0
C      1  0.4544000000000  0.5299960000000  0.4242790000000 1.0
C      1  0.4522310000000  0.4376370000000  0.4515470000000 1.0
C      1  0.5436220000000  0.4588010000000  0.5166830000000 1.0
C      1  0.5485410000000  0.5069230000000  0.5465390000000 1.0
C      1  0.5505150000000  0.5526490000000  0.5125120000000 1.0
C      1  0.5515710000000  0.5259750000000  0.4567530000000 1.0
C      1  0.5467300000000  0.4709030000000  0.4646650000000 1.0
C      1  0.4500510000000  0.4619270000000  0.4354180000000 1.0
C      1  0.4496170000000  0.4255520000000  0.5166120000000 1.0
C      1  0.4518670000000  0.4886760000000  0.5719560000000 1.0
C      1  0.4507080000000  0.5646060000000  0.5294790000000 1.0
C      1  0.4516730000000  0.5484810000000  0.4475110000000 1.0
C      1  0.4420340000000  0.5196930000000  0.5398830000000 1.0
C      1  0.4431390000000  0.5481790000000  0.4938900000000 1.0
C      1  0.4474280000000  0.5087870000000  0.4483960000000 1.0
C      1  0.4360360000000  0.4481930000000  0.4773640000000 1.0
C      1  0.4351570000000  0.4578110000000  0.5352750000000 1.0
C      1  0.5555530000000  0.4991800000000  0.4378910000000 1.0
C      1  0.5543940000000  0.4434980000000  0.4814420000000 1.0
C      1  0.5561770000000  0.4677330000000  0.5453230000000 1.0
C      1  0.5592110000000  0.5381020000000  0.5485850000000 1.0
C      1  0.5590650000000  0.5562920000000  0.4813760000000 1.0
C      1  0.5209410000000  0.5406800000000  0.5214890000000 1.0
C      1  0.5241410000000  0.5303720000000  0.4765820000000 1.0
C      1  0.5146210000000  0.4822970000000  0.4671270000000 1.0
C      1  0.5130260000000  0.4639490000000  0.5025930000000 1.0
C      1  0.5205140000000  0.5090530000000  0.5308240000000 1.0
C      1  0.5060400000000  0.4375190000000  0.5447010000000 1.0
C      1  0.5076940000000  0.5233320000000  0.5708150000000 1.0
C      1  0.5082040000000  0.5808600000000  0.5005420000000 1.0
C      1  0.5063360000000  0.5248380000000  0.4282490000000 1.0
C      1  0.5040020000000  0.4356370000000  0.4518350000000 1.0
C      1  0.5334880000000  0.4298020000000  0.5046480000000 1.0
C      1  0.5355970000000  0.4843840000000  0.5658460000000 1.0
C      1  0.5423690000000  0.5669630000000  0.5422580000000 1.0
C      1  0.5400060000000  0.5576370000000  0.4522990000000 1.0
C      1  0.5346890000000  0.4720240000000  0.4341350000000 1.0
C      1  0.4301010000000  0.4788780000000  0.5570390000000 1.0
C      1  0.4293840000000  0.5465140000000  0.5313120000000 1.0
C      1  0.4326260000000  0.5412000000000  0.4665080000000 1.0
C      1  0.4320350000000  0.4819980000000  0.4463660000000 1.0
C      1  0.4268190000000  0.4350030000000  0.5035170000000 1.0
C      1  0.5262640000000  0.5637380000000  0.4828010000000 1.0
C      1  0.5225040000000  0.5027470000000  0.4421130000000 1.0
C      1  0.5207150000000  0.4432260000000  0.4767520000000 1.0
C      1  0.5281350000000  0.4526560000000  0.5569280000000 1.0
C      1  0.5258300000000  0.5402570000000  0.5552790000000 1.0
C      1  0.5186120000000  0.4975200000000  0.5858880000000 1.0
C      1  0.5161100000000  0.5814150000000  0.5322940000000 1.0
C      1  0.5174300000000  0.5546900000000  0.4321220000000 1.0
C      1  0.5143750000000  0.4521780000000  0.4264740000000 1.0
C      1  0.5154250000000  0.4158240000000  0.5229250000000 1.0
C      1  0.4761300000000  0.4837240000000  0.4363220000000 1.0
C      1  0.4749460000000  0.4290900000000  0.4965100000000 1.0
C      1  0.4792770000000  0.4754190000000  0.5679520000000 1.0
C      1  0.4768960000000  0.5499940000000  0.5398940000000 1.0
C      1  0.4791730000000  0.5571670000000  0.4620800000000 1.0
C      1  0.4762450000000  0.5050850000000  0.4628130000000 1.0
C      1  0.4681040000000  0.4587830000000  0.4813770000000 1.0
C      1  0.4625320000000  0.4645200000000  0.5202270000000 1.0
C      1  0.4742990000000  0.5177480000000  0.5293380000000 1.0
C      1  0.4752660000000  0.5408460000000  0.4916640000000 1.0
C      1  0.4220510000000  0.5131840000000  0.4692260000000 1.0
C      1  0.4203730000000  0.4733850000000  0.4710090000000 1.0
C      1  0.4158240000000  0.4636910000000  0.5100080000000 1.0
C      1  0.4242600000000  0.4961060000000  0.5315480000000 1.0
C      1  0.4214650000000  0.5271490000000  0.5066150000000 1.0
C      1  0.5704580000000  0.4922180000000  0.4666350000000 1.0
C      1  0.5679200000000  0.4692650000000  0.4984960000000 1.0
C      1  0.5721360000000  0.4919790000000  0.5307520000000 1.0
C      1  0.5735960000000  0.5301350000000  0.5191870000000 1.0
C      1  0.5763710000000  0.5294810000000  0.4783150000000 1.0
C      1  0.5088310000000  0.4944090000000  0.4954950000000 1.0
C      1  0.5692450000000  0.5032610000000  0.4987900000000 1.0
C      1  0.3896100000000  0.4967780000000  0.4979970000000 1.0
C      1  0.6822560000000  0.4913220000000  0.4980610000000 1.0
C      1  0.4562150000000  0.4849790000000  0.4978530000000 1.0
C      1  0.3367530000000  0.5005940000000  0.4987720000000 1.0
C      1  0.3633040000000  0.4986720000000  0.4983780000000 1.0
C      1  0.6030760000000  0.4997610000000  0.4985740000000 1.0
C      1  0.6557790000000  0.4941510000000  0.4982330000000 1.0
C      1  0.6293060000000  0.4969760000000  0.4984040000000 1.0
C      1  0.3106190000000  0.5024880000000  0.4991610000000 1.0
C      1  0.4779380000000  0.5081900000000  0.4966410000000 1.0
C      1  0.4235370000000  0.4944100000000  0.4975690000000 1.0
C      1  0.5360170000000  0.5103820000000  0.5005730000000 1.0
C      1  0.7083140000000  0.4885380000000  0.4978920000000 1.0
END
