TITL C-3289326-3776-457 -0.00058222877816525 125000 -607.855309775532 0 0 104 (C1) n - 1
REM
REM in /nfs/bkarasulu/CARBON/AIRSS/Generating-Clusters/AIREBO/with-SteepDescent/Higher-Symm/SD-CG/HFTN-CG
REM
REM
REM
REM
REM
REM ./C.cell (b20cbc046b6831c77cfcea5457e17084)
REM
REM compiler GCC version 9.2.1 20190827 (Red Hat 9.2.1-1)
REM options -cpp -mtune=generic -march=x86-64 -g -O0 -fpre-include=/usr/include/finclude/math-vector-fortran.h
REM seed 764488958 -1702980141 1494040741 1526030611 -27386680 745238477 -1254476187 -885763490 1507835695 904345923 -1612356931 -1686769755 456528300 1592001850 -2063715449 -284250033 -1858705189 977239506 1152896507 -38599411 1929684979 -2066920287 -232980968 1970422334 -790316586 -1662500361 -744159375 -1667695773 -1348963960 -5807706 -1276905265 1975615925 -2022124596
REM
CELL 1.54180   50.00000   50.00000   50.00000   90.00000   90.00000   90.00000
LATT -1
SFAC C  
C      1  0.5212130000000  0.4812470000000  0.4589590000000 1.0
C      1  0.4743520000000  0.5184610000000  0.4889650000000 1.0
C      1  0.4832510000000  0.4570990000000  0.5101800000000 1.0
C      1  0.5181400000000  0.5101930000000  0.5602390000000 1.0
C      1  0.4914720000000  0.5054770000000  0.4693950000000 1.0
C      1  0.4926160000000  0.4915340000000  0.5473620000000 1.0
C      1  0.4757750000000  0.4871370000000  0.5230500000000 1.0
C      1  0.5443990000000  0.4893290000000  0.4824890000000 1.0
C      1  0.5445160000000  0.5185610000000  0.5210550000000 1.0
C      1  0.4830770000000  0.5503610000000  0.4887490000000 1.0
C      1  0.5209810000000  0.5366510000000  0.5185730000000 1.0
C      1  0.5172450000000  0.4601470000000  0.4852730000000 1.0
C      1  0.4875000000000  0.4793270000000  0.4548680000000 1.0
C      1  0.5418290000000  0.5216650000000  0.4880650000000 1.0
C      1  0.5109750000000  0.4705610000000  0.5140670000000 1.0
C      1  0.4878770000000  0.5236170000000  0.5521800000000 1.0
C      1  0.5205990000000  0.5153280000000  0.4638510000000 1.0
C      1  0.5239820000000  0.4817130000000  0.5428060000000 1.0
C      1  0.5350410000000  0.4907520000000  0.5124470000000 1.0
C      1  0.4632400000000  0.4858230000000  0.4914370000000 1.0
C      1  0.4615720000000  0.5158620000000  0.5175560000000 1.0
C      1  0.5104180000000  0.5352950000000  0.4880570000000 1.0
C      1  0.4871220000000  0.5379890000000  0.5213560000000 1.0
C      1  0.4781200000000  0.4601150000000  0.4773040000000 1.0
C      1  0.5341000000000  0.4558600000000  0.4305390000000 1.0
C      1  0.4266560000000  0.5250610000000  0.4571570000000 1.0
C      1  0.4489630000000  0.4307440000000  0.5318050000000 1.0
C      1  0.5370850000000  0.5540110000000  0.5695540000000 1.0
C      1  0.4701510000000  0.5372490000000  0.4311770000000 1.0
C      1  0.4653410000000  0.4429980000000  0.5699480000000 1.0
C      1  0.4302740000000  0.4744210000000  0.5458750000000 1.0
C      1  0.5721760000000  0.4710120000000  0.4534650000000 1.0
C      1  0.5744910000000  0.5371500000000  0.5441060000000 1.0
C      1  0.4520560000000  0.5645970000000  0.4650190000000 1.0
C      1  0.5461610000000  0.5673190000000  0.5222150000000 1.0
C      1  0.5472840000000  0.4368790000000  0.4737980000000 1.0
C      1  0.4661990000000  0.4523780000000  0.4293380000000 1.0
C      1  0.5921020000000  0.5217150000000  0.4578900000000 1.0
C      1  0.5351900000000  0.4232320000000  0.5297740000000 1.0
C      1  0.4644490000000  0.5593360000000  0.5739200000000 1.0
C      1  0.5263840000000  0.5381740000000  0.4202410000000 1.0
C      1  0.5197320000000  0.4294230000000  0.5865000000000 1.0
C      1  0.5913290000000  0.4850120000000  0.5405320000000 1.0
C      1  0.4307000000000  0.4701130000000  0.4538300000000 1.0
C      1  0.4254470000000  0.5327260000000  0.5464090000000 1.0
C      1  0.5370930000000  0.5746020000000  0.4647200000000 1.0
C      1  0.4531080000000  0.5647480000000  0.5277060000000 1.0
C      1  0.4516200000000  0.4316040000000  0.4695690000000 1.0
C      1  0.5039900000000  0.4477470000000  0.6009890000000 1.0
C      1  0.5826910000000  0.5128640000000  0.4813450000000 1.0
C      1  0.4858680000000  0.5703700000000  0.5316720000000 1.0
C      1  0.5136270000000  0.5130340000000  0.4188560000000 1.0
C      1  0.4651190000000  0.5296500000000  0.5708010000000 1.0
C      1  0.4704590000000  0.4855960000000  0.4286620000000 1.0
C      1  0.5827690000000  0.4930690000000  0.5164980000000 1.0
C      1  0.4316160000000  0.4785620000000  0.4869390000000 1.0
C      1  0.4292000000000  0.5206800000000  0.5147840000000 1.0
C      1  0.4855890000000  0.4296320000000  0.4681180000000 1.0
C      1  0.5119730000000  0.4205560000000  0.5130390000000 1.0
C      1  0.5129250000000  0.5756890000000  0.4807970000000 1.0
C      1  0.4769760000000  0.4506800000000  0.5945030000000 1.0
C      1  0.4239270000000  0.5113950000000  0.4824930000000 1.0
C      1  0.5137850000000  0.5691620000000  0.5119820000000 1.0
C      1  0.4842840000000  0.5132640000000  0.4216290000000 1.0
C      1  0.5397230000000  0.5251410000000  0.5739460000000 1.0
C      1  0.5320190000000  0.4885460000000  0.4276760000000 1.0
C      1  0.4256290000000  0.4872680000000  0.5200760000000 1.0
C      1  0.5749600000000  0.4795490000000  0.4862850000000 1.0
C      1  0.5761320000000  0.5261200000000  0.5119670000000 1.0
C      1  0.5155040000000  0.4286170000000  0.4827310000000 1.0
C      1  0.4813010000000  0.4289040000000  0.5235560000000 1.0
C      1  0.4829760000000  0.5734680000000  0.4661090000000 1.0
C      1  0.5806750000000  0.5140090000000  0.4339890000000 1.0
C      1  0.4357950000000  0.5534410000000  0.5083750000000 1.0
C      1  0.5023980000000  0.4112510000000  0.5668060000000 1.0
C      1  0.5820220000000  0.4942490000000  0.5648430000000 1.0
C      1  0.4378200000000  0.4881210000000  0.4335460000000 1.0
C      1  0.4397000000000  0.5173040000000  0.5666110000000 1.0
C      1  0.4343980000000  0.4444480000000  0.4896330000000 1.0
C      1  0.5591320000000  0.4343260000000  0.5187570000000 1.0
C      1  0.5619920000000  0.5712230000000  0.4783940000000 1.0
C      1  0.5086450000000  0.5649100000000  0.4215010000000 1.0
C      1  0.4883570000000  0.5718280000000  0.5629370000000 1.0
C      1  0.4881870000000  0.4365450000000  0.4365840000000 1.0
C      1  0.4207060000000  0.5098260000000  0.4341270000000 1.0
C      1  0.5635690000000  0.5563270000000  0.5022960000000 1.0
C      1  0.4808020000000  0.4242580000000  0.5551040000000 1.0
C      1  0.4288720000000  0.4916510000000  0.5684840000000 1.0
C      1  0.5641130000000  0.4915790000000  0.4348930000000 1.0
C      1  0.5667040000000  0.5178410000000  0.5648010000000 1.0
C      1  0.5625360000000  0.4487140000000  0.4947770000000 1.0
C      1  0.4299010000000  0.4290530000000  0.5119780000000 1.0
C      1  0.4333530000000  0.5682710000000  0.4850860000000 1.0
C      1  0.4852420000000  0.5615670000000  0.4358850000000 1.0
C      1  0.5143100000000  0.5700820000000  0.5735730000000 1.0
C      1  0.5131400000000  0.4386890000000  0.4246040000000 1.0
C      1  0.5352610000000  0.5646990000000  0.4384660000000 1.0
C      1  0.4423370000000  0.5571260000000  0.5527700000000 1.0
C      1  0.5315170000000  0.4196920000000  0.5572510000000 1.0
C      1  0.4478780000000  0.5423370000000  0.4493200000000 1.0
C      1  0.4436430000000  0.4500410000000  0.5523190000000 1.0
C      1  0.5536680000000  0.4492420000000  0.4497370000000 1.0
C      1  0.4441120000000  0.4463590000000  0.4464370000000 1.0
C      1  0.5550560000000  0.5591720000000  0.5472260000000 1.0
END
