TITL C-3289333-7213-733 -0.00184993900820872 125000 -994.96108027405 0 0 184 (C1) n - 1
REM
REM in /nfs/bkarasulu/CARBON/AIRSS/Generating-Clusters/AIREBO/with-SteepDescent/Higher-Symm/SD-CG/HFTN-CG
REM
REM
REM
REM
REM
REM ./C.cell (b20cbc046b6831c77cfcea5457e17084)
REM
REM compiler GCC version 9.2.1 20190827 (Red Hat 9.2.1-1)
REM options -cpp -mtune=generic -march=x86-64 -g -O0 -fpre-include=/usr/include/finclude/math-vector-fortran.h
REM seed 1951395845 -1425863155 120954620 -1400001815 -42469806 1107323369 -520019930 -578098727 -175706755 -1139427420 -640281677 1529773563 922225626 -2071367273 -1229854217 -1282187147 -934935869 -1013675119 1857210941 1984661799 -1916937338 -894469106 1733147803 -508775871 1703435810 -1253068482 512607546 -191250022 -2073291446 1285359258 747644997 -1827442460 -1157849636
REM
CELL 1.54180   50.00000   50.00000   50.00000   90.00000   90.00000   90.00000
LATT -1
SFAC C  
C      1  0.5559990000000  0.5170040000000  0.5591220000000 1.0
C      1  0.5086100000000  0.4480870000000  0.5491220000000 1.0
C      1  0.4448460000000  0.4844820000000  0.5450410000000 1.0
C      1  0.4782860000000  0.5582190000000  0.5547090000000 1.0
C      1  0.5482250000000  0.4997870000000  0.6055740000000 1.0
C      1  0.5169990000000  0.4506070000000  0.5916190000000 1.0
C      1  0.4473800000000  0.4940750000000  0.5908280000000 1.0
C      1  0.4955860000000  0.5539840000000  0.5919100000000 1.0
C      1  0.4925750000000  0.4396530000000  0.4542080000000 1.0
C      1  0.4455090000000  0.5025990000000  0.4503860000000 1.0
C      1  0.5109480000000  0.5510400000000  0.4612440000000 1.0
C      1  0.5502620000000  0.4929400000000  0.4626560000000 1.0
C      1  0.4144260000000  0.4590570000000  0.5454040000000 1.0
C      1  0.4527550000000  0.5872020000000  0.5446670000000 1.0
C      1  0.5862030000000  0.5379070000000  0.5438920000000 1.0
C      1  0.5436830000000  0.4169580000000  0.5483400000000 1.0
C      1  0.5443790000000  0.4519230000000  0.5868250000000 1.0
C      1  0.4416150000000  0.4654690000000  0.5925150000000 1.0
C      1  0.4627560000000  0.5535320000000  0.5830600000000 1.0
C      1  0.5488450000000  0.5275040000000  0.5892970000000 1.0
C      1  0.5286480000000  0.3959920000000  0.5178320000000 1.0
C      1  0.3903860000000  0.4741340000000  0.5172960000000 1.0
C      1  0.4741540000000  0.6113310000000  0.5185740000000 1.0
C      1  0.5993040000000  0.5285160000000  0.5075980000000 1.0
C      1  0.5243310000000  0.4358620000000  0.4655370000000 1.0
C      1  0.4405030000000  0.4772270000000  0.4666990000000 1.0
C      1  0.4813350000000  0.5568620000000  0.4724710000000 1.0
C      1  0.5631450000000  0.5241440000000  0.4668590000000 1.0
C      1  0.4732960000000  0.4752810000000  0.5389710000000 1.0
C      1  0.4683860000000  0.5345880000000  0.5369870000000 1.0
C      1  0.5349430000000  0.5220560000000  0.5369230000000 1.0
C      1  0.5211860000000  0.4739270000000  0.5411630000000 1.0
C      1  0.5164210000000  0.5893690000000  0.4363800000000 1.0
C      1  0.5881790000000  0.4797790000000  0.4320870000000 1.0
C      1  0.4877730000000  0.4097180000000  0.4284560000000 1.0
C      1  0.4084730000000  0.5126260000000  0.4391420000000 1.0
C      1  0.5039940000000  0.5816100000000  0.5111110000000 1.0
C      1  0.5850660000000  0.4918620000000  0.5024040000000 1.0
C      1  0.4936550000000  0.4147390000000  0.5099350000000 1.0
C      1  0.4153050000000  0.5117000000000  0.5083750000000 1.0
C      1  0.4915640000000  0.5857470000000  0.4577240000000 1.0
C      1  0.5845670000000  0.5071320000000  0.4478300000000 1.0
C      1  0.5141480000000  0.4034430000000  0.4667130000000 1.0
C      1  0.4093010000000  0.4888900000000  0.4599040000000 1.0
C      1  0.5838010000000  0.5373270000000  0.4353790000000 1.0
C      1  0.5198760000000  0.4118320000000  0.4342430000000 1.0
C      1  0.4147550000000  0.4613870000000  0.4406180000000 1.0
C      1  0.4654020000000  0.5837880000000  0.4360830000000 1.0
C      1  0.5487160000000  0.4808610000000  0.4018010000000 1.0
C      1  0.4763690000000  0.4486170000000  0.3994380000000 1.0
C      1  0.4530570000000  0.5163870000000  0.4042260000000 1.0
C      1  0.5170090000000  0.5536310000000  0.4033540000000 1.0
C      1  0.4028300000000  0.5185800000000  0.5545460000000 1.0
C      1  0.5136770000000  0.5906860000000  0.5606590000000 1.0
C      1  0.5960040000000  0.4821490000000  0.5530250000000 1.0
C      1  0.4836850000000  0.4081630000000  0.5586790000000 1.0
C      1  0.5522300000000  0.5740500000000  0.5374820000000 1.0
C      1  0.5583750000000  0.4472600000000  0.5271890000000 1.0
C      1  0.4487450000000  0.4448170000000  0.5307240000000 1.0
C      1  0.4343850000000  0.5561780000000  0.5241530000000 1.0
C      1  0.5119150000000  0.5960060000000  0.4813370000000 1.0
C      1  0.5956940000000  0.4863830000000  0.4705640000000 1.0
C      1  0.4873330000000  0.4001390000000  0.4793880000000 1.0
C      1  0.4008240000000  0.5164420000000  0.4779750000000 1.0
C      1  0.5365460000000  0.4369740000000  0.5064680000000 1.0
C      1  0.4381100000000  0.4645930000000  0.5085730000000 1.0
C      1  0.4660690000000  0.5619120000000  0.5168830000000 1.0
C      1  0.5526530000000  0.5452370000000  0.5194290000000 1.0
C      1  0.4129100000000  0.4916680000000  0.5357850000000 1.0
C      1  0.4864160000000  0.5875950000000  0.5396250000000 1.0
C      1  0.5936370000000  0.5069650000000  0.5317150000000 1.0
C      1  0.5109380000000  0.4156330000000  0.5392220000000 1.0
C      1  0.5669820000000  0.5840510000000  0.4746020000000 1.0
C      1  0.5794020000000  0.4300000000000  0.4682010000000 1.0
C      1  0.4381250000000  0.4154750000000  0.4705840000000 1.0
C      1  0.4130460000000  0.5702150000000  0.4660900000000 1.0
C      1  0.4808190000000  0.4453730000000  0.5320780000000 1.0
C      1  0.4452130000000  0.5167610000000  0.5344380000000 1.0
C      1  0.5204460000000  0.5513980000000  0.5302710000000 1.0
C      1  0.5514060000000  0.4757300000000  0.5368220000000 1.0
C      1  0.5719670000000  0.5823560000000  0.5044060000000 1.0
C      1  0.5804610000000  0.4268570000000  0.5010710000000 1.0
C      1  0.4296890000000  0.4192480000000  0.5033190000000 1.0
C      1  0.4238680000000  0.5805720000000  0.4932310000000 1.0
C      1  0.4680260000000  0.4081970000000  0.4561050000000 1.0
C      1  0.4023480000000  0.5403560000000  0.4538370000000 1.0
C      1  0.5391500000000  0.5954870000000  0.4609160000000 1.0
C      1  0.5953290000000  0.4564700000000  0.4539910000000 1.0
C      1  0.4785350000000  0.3792830000000  0.5645240000000 1.0
C      1  0.3745020000000  0.5210140000000  0.5633490000000 1.0
C      1  0.5113290000000  0.6168800000000  0.5757760000000 1.0
C      1  0.6213250000000  0.4827510000000  0.5693490000000 1.0
C      1  0.5050620000000  0.4645360000000  0.4394080000000 1.0
C      1  0.4732240000000  0.4996780000000  0.4343310000000 1.0
C      1  0.4962480000000  0.5298200000000  0.4390060000000 1.0
C      1  0.5391860000000  0.5027680000000  0.4338590000000 1.0
C      1  0.4718680000000  0.4880270000000  0.4040960000000 1.0
C      1  0.4933720000000  0.5404700000000  0.4117780000000 1.0
C      1  0.5412370000000  0.5101970000000  0.4061970000000 1.0
C      1  0.4990850000000  0.4680420000000  0.4093650000000 1.0
C      1  0.4930840000000  0.4355560000000  0.5765080000000 1.0
C      1  0.4323590000000  0.5108810000000  0.5653670000000 1.0
C      1  0.5100290000000  0.5568730000000  0.5612240000000 1.0
C      1  0.5653210000000  0.4883980000000  0.5613150000000 1.0
C      1  0.5519270000000  0.4151910000000  0.4635070000000 1.0
C      1  0.4302350000000  0.4460300000000  0.4740350000000 1.0
C      1  0.4491450000000  0.5635370000000  0.4811790000000 1.0
C      1  0.5767310000000  0.5543580000000  0.4708530000000 1.0
C      1  0.5458890000000  0.5648910000000  0.4476950000000 1.0
C      1  0.5635230000000  0.4479740000000  0.4440960000000 1.0
C      1  0.4592370000000  0.4398490000000  0.4473300000000 1.0
C      1  0.4335160000000  0.5506320000000  0.4468790000000 1.0
C      1  0.4312630000000  0.4514150000000  0.5672780000000 1.0
C      1  0.4409200000000  0.5685030000000  0.5636440000000 1.0
C      1  0.5648470000000  0.5487050000000  0.5680730000000 1.0
C      1  0.5559070000000  0.4368030000000  0.5657010000000 1.0
C      1  0.4506450000000  0.4615080000000  0.4059640000000 1.0
C      1  0.4652670000000  0.5422010000000  0.4077170000000 1.0
C      1  0.5418880000000  0.5391330000000  0.4062660000000 1.0
C      1  0.5300240000000  0.4602030000000  0.4085010000000 1.0
C      1  0.6145800000000  0.4680020000000  0.4902250000000 1.0
C      1  0.4680230000000  0.3862420000000  0.5010950000000 1.0
C      1  0.3945970000000  0.5466870000000  0.4922060000000 1.0
C      1  0.5355020000000  0.6130020000000  0.4969720000000 1.0
C      1  0.5547960000000  0.4937030000000  0.5130720000000 1.0
C      1  0.5043370000000  0.4453380000000  0.5094940000000 1.0
C      1  0.4424940000000  0.4972230000000  0.5074160000000 1.0
C      1  0.4957630000000  0.5486180000000  0.5118130000000 1.0
C      1  0.5254720000000  0.5097080000000  0.5066840000000 1.0
C      1  0.5146590000000  0.4774970000000  0.5079790000000 1.0
C      1  0.4737230000000  0.4927170000000  0.5133150000000 1.0
C      1  0.4923100000000  0.5170320000000  0.5043680000000 1.0
C      1  0.5062530000000  0.5236170000000  0.5552330000000 1.0
C      1  0.5200820000000  0.4964500000000  0.5641180000000 1.0
C      1  0.4887620000000  0.4867680000000  0.5606100000000 1.0
C      1  0.4764950000000  0.5170440000000  0.5644610000000 1.0
C      1  0.5441930000000  0.5762110000000  0.5671920000000 1.0
C      1  0.5796760000000  0.4523210000000  0.5525240000000 1.0
C      1  0.4573370000000  0.4297690000000  0.5599880000000 1.0
C      1  0.4217500000000  0.5466460000000  0.5511380000000 1.0
C      1  0.5389740000000  0.4390580000000  0.4268260000000 1.0
C      1  0.4390710000000  0.4530280000000  0.4298590000000 1.0
C      1  0.4527180000000  0.5609680000000  0.4263840000000 1.0
C      1  0.5590730000000  0.5497810000000  0.4275240000000 1.0
C      1  0.4326380000000  0.5119170000000  0.4222450000000 1.0
C      1  0.5179560000000  0.5809840000000  0.4110750000000 1.0
C      1  0.5760910000000  0.4762130000000  0.4082730000000 1.0
C      1  0.4794450000000  0.4210510000000  0.4049750000000 1.0
C      1  0.4085430000000  0.4611860000000  0.4955770000000 1.0
C      1  0.4668580000000  0.5882440000000  0.4964110000000 1.0
C      1  0.5767520000000  0.5418330000000  0.4998000000000 1.0
C      1  0.5365950000000  0.4085660000000  0.4918870000000 1.0
C      1  0.4877760000000  0.5071270000000  0.4628660000000 1.0
C      1  0.5236990000000  0.5209020000000  0.4525710000000 1.0
C      1  0.5184120000000  0.4813870000000  0.4597020000000 1.0
C      1  0.4948420000000  0.4836110000000  0.4808600000000 1.0
C      1  0.6023790000000  0.5548270000000  0.4497850000000 1.0
C      1  0.5492600000000  0.3961270000000  0.4402370000000 1.0
C      1  0.3977110000000  0.4511470000000  0.4655480000000 1.0
C      1  0.4609790000000  0.5999140000000  0.4656970000000 1.0
C      1  0.4166780000000  0.4351810000000  0.5248080000000 1.0
C      1  0.4342970000000  0.5899320000000  0.5200410000000 1.0
C      1  0.5845620000000  0.5667540000000  0.5299040000000 1.0
C      1  0.5642320000000  0.4139530000000  0.5236650000000 1.0
C      1  0.5349330000000  0.5607480000000  0.4796340000000 1.0
C      1  0.5617370000000  0.4655120000000  0.4731720000000 1.0
C      1  0.4702920000000  0.4404970000000  0.4794770000000 1.0
C      1  0.4433540000000  0.5263210000000  0.4683820000000 1.0
C      1  0.5305150000000  0.5531390000000  0.5881090000000 1.0
C      1  0.5565790000000  0.4775330000000  0.5886620000000 1.0
C      1  0.4637620000000  0.4448700000000  0.5892160000000 1.0
C      1  0.4479700000000  0.5281780000000  0.5901400000000 1.0
C      1  0.5322120000000  0.4615360000000  0.4836100000000 1.0
C      1  0.4652740000000  0.4703300000000  0.4889450000000 1.0
C      1  0.4722260000000  0.5287430000000  0.4795530000000 1.0
C      1  0.5347690000000  0.5272950000000  0.4828260000000 1.0
C      1  0.4783580000000  0.5030360000000  0.5953500000000 1.0
C      1  0.4981460000000  0.5264630000000  0.6073420000000 1.0
C      1  0.5181280000000  0.5033800000000  0.5973480000000 1.0
C      1  0.4991910000000  0.4762490000000  0.5913290000000 1.0
C      1  0.5377730000000  0.5803430000000  0.5073470000000 1.0
C      1  0.5823000000000  0.4586370000000  0.4957250000000 1.0
C      1  0.4614010000000  0.4195760000000  0.5024070000000 1.0
C      1  0.4278180000000  0.5408500000000  0.4949180000000 1.0
END
