TITL C-3289331-6719-701 0.000850691764781821 125000 -242.005356753782 0 0 49 (C1) n - 1
REM
REM in /nfs/bkarasulu/CARBON/AIRSS/Generating-Clusters/AIREBO/with-SteepDescent/Higher-Symm/SD-CG/HFTN-CG
REM
REM
REM
REM
REM
REM ./C.cell (b20cbc046b6831c77cfcea5457e17084)
REM
REM compiler GCC version 9.2.1 20190827 (Red Hat 9.2.1-1)
REM options -cpp -mtune=generic -march=x86-64 -g -O0 -fpre-include=/usr/include/finclude/math-vector-fortran.h
REM seed -1319023505 -955663871 -14221861 534879540 1063722701 -719658736 -1572367509 -1319771582 -932986770 1429168258 623262272 -1703904810 -854776390 -790598794 -1746237418 -1250397630 1629449074 -347142729 1790922190 559670883 -1147280903 2010679650 -1975234815 -292795302 -1589080743 787316707 386406036 2007779192 1806877027 1292050294 -616686451 749371304 -603852866
REM
CELL 1.54180   50.00000   50.00000   50.00000   90.00000   90.00000   90.00000
LATT -1
SFAC C  
C      1  0.4673070000000  0.5790420000000  0.4948480000000 1.0
C      1  0.5334830000000  0.4213320000000  0.5036500000000 1.0
C      1  0.4263550000000  0.4687270000000  0.4811810000000 1.0
C      1  0.5785500000000  0.5224750000000  0.5180850000000 1.0
C      1  0.4760010000000  0.5344380000000  0.5429390000000 1.0
C      1  0.5238400000000  0.4665850000000  0.4611370000000 1.0
C      1  0.5066130000000  0.5424750000000  0.5410000000000 1.0
C      1  0.4941370000000  0.4572620000000  0.4624650000000 1.0
C      1  0.4821900000000  0.5354330000000  0.4700350000000 1.0
C      1  0.5218920000000  0.4640200000000  0.5326150000000 1.0
C      1  0.5419920000000  0.5381020000000  0.4677700000000 1.0
C      1  0.4605090000000  0.4517630000000  0.5354150000000 1.0
C      1  0.5397090000000  0.5061670000000  0.5572650000000 1.0
C      1  0.4589890000000  0.4901740000000  0.4495510000000 1.0
C      1  0.5643370000000  0.5138650000000  0.4891150000000 1.0
C      1  0.4312320000000  0.4853780000000  0.5119280000000 1.0
C      1  0.5517300000000  0.5073090000000  0.4578640000000 1.0
C      1  0.4493910000000  0.4921360000000  0.5401070000000 1.0
C      1  0.5197450000000  0.4482490000000  0.5053400000000 1.0
C      1  0.4799400000000  0.5543640000000  0.4965380000000 1.0
C      1  0.5473260000000  0.5407700000000  0.5010830000000 1.0
C      1  0.4489860000000  0.4574900000000  0.5039390000000 1.0
C      1  0.4721330000000  0.5076630000000  0.5561950000000 1.0
C      1  0.5266780000000  0.4909670000000  0.4430880000000 1.0
C      1  0.4835190000000  0.4665650000000  0.5216800000000 1.0
C      1  0.5120200000000  0.5346330000000  0.4834800000000 1.0
C      1  0.5061680000000  0.5112210000000  0.5544100000000 1.0
C      1  0.4929620000000  0.4882780000000  0.4485770000000 1.0
C      1  0.4486590000000  0.5122650000000  0.4625810000000 1.0
C      1  0.5541340000000  0.4891420000000  0.5350870000000 1.0
C      1  0.5367180000000  0.5535360000000  0.5398410000000 1.0
C      1  0.4654160000000  0.4453410000000  0.4625770000000 1.0
C      1  0.5392600000000  0.5704880000000  0.5119720000000 1.0
C      1  0.4612070000000  0.4302270000000  0.4890460000000 1.0
C      1  0.4668610000000  0.5319550000000  0.5137500000000 1.0
C      1  0.5344940000000  0.4725930000000  0.4902200000000 1.0
C      1  0.5266820000000  0.5042880000000  0.4806580000000 1.0
C      1  0.4736820000000  0.4988210000000  0.5172660000000 1.0
C      1  0.4461050000000  0.4658790000000  0.4579020000000 1.0
C      1  0.5563670000000  0.5289850000000  0.5404280000000 1.0
C      1  0.5140980000000  0.4913170000000  0.5309310000000 1.0
C      1  0.4859320000000  0.5046830000000  0.4751450000000 1.0
C      1  0.5104350000000  0.5533400000000  0.5099300000000 1.0
C      1  0.4895890000000  0.4489750000000  0.4942720000000 1.0
C      1  0.4635730000000  0.4842120000000  0.4887770000000 1.0
C      1  0.5337620000000  0.5161290000000  0.5185210000000 1.0
C      1  0.4437480000000  0.5113620000000  0.4938890000000 1.0
C      1  0.5579940000000  0.4868560000000  0.5062790000000 1.0
C      1  0.5040270000000  0.4986990000000  0.5021230000000 1.0
END
