TITL C-3289327-5623-206 0.000901411302492377 125000 -853.350415640824 0 0 153 (C1) n - 1
REM
REM in /nfs/bkarasulu/CARBON/AIRSS/Generating-Clusters/AIREBO/with-SteepDescent/Higher-Symm/SD-CG/HFTN-CG
REM
REM
REM
REM
REM
REM ./C.cell (b20cbc046b6831c77cfcea5457e17084)
REM
REM compiler GCC version 9.2.1 20190827 (Red Hat 9.2.1-1)
REM options -cpp -mtune=generic -march=x86-64 -g -O0 -fpre-include=/usr/include/finclude/math-vector-fortran.h
REM seed 255436022 380735232 -1413299661 1795058140 -612713654 -1931775338 -1893912200 -198970953 1755564411 -1080397910 -178489616 1251640167 1417703461 1219566779 1015729497 1103459006 -1858430532 908611131 261020092 -135875024 24767169 550001706 -1078594354 -1220489885 -1584770768 1917889889 -756277355 357664588 1558617311 1416397023 1999285601 442566180 -2056715932
REM
CELL 1.54180   50.00000   50.00000   50.00000   90.00000   90.00000   90.00000
LATT -1
SFAC C  
C      1  0.5479030000000  0.5426080000000  0.5352190000000 1.0
C      1  0.5610420000000  0.5492590000000  0.4865530000000 1.0
C      1  0.5527670000000  0.5454830000000  0.4436520000000 1.0
C      1  0.5056850000000  0.5351790000000  0.4376120000000 1.0
C      1  0.4522820000000  0.5321730000000  0.4597350000000 1.0
C      1  0.4292150000000  0.5213270000000  0.4900340000000 1.0
C      1  0.4433790000000  0.5412770000000  0.5499000000000 1.0
C      1  0.5129480000000  0.5451640000000  0.5542590000000 1.0
C      1  0.5263610000000  0.5072500000000  0.5147020000000 1.0
C      1  0.5367060000000  0.5091180000000  0.4839940000000 1.0
C      1  0.5119100000000  0.5107310000000  0.4604160000000 1.0
C      1  0.4798240000000  0.5164180000000  0.4691780000000 1.0
C      1  0.4592770000000  0.5059870000000  0.4909210000000 1.0
C      1  0.4563630000000  0.5067430000000  0.5238350000000 1.0
C      1  0.4859200000000  0.5111340000000  0.5400780000000 1.0
C      1  0.5148830000000  0.5042790000000  0.5464820000000 1.0
C      1  0.4325890000000  0.4620330000000  0.5021920000000 1.0
C      1  0.4472650000000  0.4665770000000  0.5547850000000 1.0
C      1  0.4986220000000  0.4596120000000  0.5736690000000 1.0
C      1  0.5551410000000  0.4815480000000  0.5413880000000 1.0
C      1  0.5671510000000  0.4621940000000  0.4985020000000 1.0
C      1  0.5494000000000  0.4631980000000  0.4525860000000 1.0
C      1  0.4895340000000  0.4870830000000  0.4364650000000 1.0
C      1  0.4470990000000  0.4634870000000  0.4460110000000 1.0
C      1  0.4492110000000  0.4956590000000  0.5958400000000 1.0
C      1  0.5305940000000  0.4908680000000  0.5993190000000 1.0
C      1  0.5939300000000  0.4805330000000  0.5506440000000 1.0
C      1  0.5998770000000  0.4924400000000  0.4744890000000 1.0
C      1  0.5494220000000  0.4889030000000  0.4099080000000 1.0
C      1  0.4724970000000  0.4943110000000  0.3909610000000 1.0
C      1  0.4085420000000  0.4829110000000  0.4446980000000 1.0
C      1  0.4010660000000  0.4931820000000  0.5236390000000 1.0
C      1  0.5172610000000  0.4125970000000  0.5305100000000 1.0
C      1  0.5419240000000  0.4234590000000  0.5127950000000 1.0
C      1  0.5376940000000  0.4165550000000  0.4835170000000 1.0
C      1  0.5157710000000  0.4332220000000  0.4635650000000 1.0
C      1  0.4869720000000  0.4412730000000  0.4674810000000 1.0
C      1  0.4629450000000  0.4239430000000  0.4817620000000 1.0
C      1  0.4650630000000  0.4162980000000  0.5126010000000 1.0
C      1  0.4931590000000  0.4267230000000  0.5270240000000 1.0
C      1  0.5057880000000  0.5544460000000  0.4635330000000 1.0
C      1  0.4771070000000  0.5602080000000  0.4730130000000 1.0
C      1  0.4532930000000  0.5453170000000  0.4910970000000 1.0
C      1  0.4594090000000  0.5464610000000  0.5203520000000 1.0
C      1  0.4864940000000  0.5370710000000  0.5237950000000 1.0
C      1  0.5101830000000  0.5539440000000  0.5278760000000 1.0
C      1  0.5294860000000  0.5392940000000  0.5089790000000 1.0
C      1  0.5307540000000  0.5551590000000  0.4824630000000 1.0
C      1  0.5507510000000  0.4365960000000  0.5592500000000 1.0
C      1  0.5817720000000  0.4221820000000  0.4675510000000 1.0
C      1  0.5434890000000  0.4184840000000  0.4231080000000 1.0
C      1  0.4945030000000  0.4359260000000  0.4286700000000 1.0
C      1  0.4339820000000  0.4161810000000  0.4554990000000 1.0
C      1  0.4189710000000  0.4231740000000  0.5315630000000 1.0
C      1  0.4624380000000  0.4204810000000  0.5663800000000 1.0
C      1  0.5249770000000  0.4130660000000  0.5787430000000 1.0
C      1  0.4348740000000  0.4841400000000  0.4244630000000 1.0
C      1  0.4050750000000  0.4796470000000  0.4968840000000 1.0
C      1  0.4318880000000  0.4908900000000  0.5719100000000 1.0
C      1  0.4994700000000  0.4883500000000  0.5918740000000 1.0
C      1  0.5679350000000  0.4815630000000  0.5706720000000 1.0
C      1  0.5930410000000  0.4804580000000  0.5042100000000 1.0
C      1  0.5659210000000  0.4844910000000  0.4338590000000 1.0
C      1  0.4978740000000  0.4867400000000  0.4052470000000 1.0
C      1  0.4340020000000  0.4068650000000  0.5194780000000 1.0
C      1  0.4640920000000  0.4070910000000  0.5453960000000 1.0
C      1  0.5202850000000  0.3997220000000  0.5552680000000 1.0
C      1  0.5556520000000  0.4123870000000  0.5416980000000 1.0
C      1  0.5635530000000  0.4049990000000  0.4720390000000 1.0
C      1  0.5320550000000  0.4091890000000  0.4478710000000 1.0
C      1  0.4837130000000  0.4112440000000  0.4338920000000 1.0
C      1  0.4624670000000  0.4078560000000  0.4518090000000 1.0
C      1  0.5375420000000  0.4762250000000  0.5060620000000 1.0
C      1  0.5319790000000  0.4784060000000  0.4724800000000 1.0
C      1  0.5017970000000  0.4785390000000  0.4646000000000 1.0
C      1  0.4854190000000  0.4652640000000  0.4868580000000 1.0
C      1  0.4605900000000  0.4757070000000  0.4995510000000 1.0
C      1  0.4675880000000  0.4762950000000  0.5333300000000 1.0
C      1  0.4947470000000  0.4581440000000  0.5399220000000 1.0
C      1  0.5241890000000  0.4747810000000  0.5373090000000 1.0
C      1  0.5257340000000  0.5914380000000  0.5272840000000 1.0
C      1  0.5410060000000  0.5981750000000  0.5046940000000 1.0
C      1  0.5300540000000  0.5871610000000  0.4785610000000 1.0
C      1  0.5068260000000  0.5958510000000  0.4616800000000 1.0
C      1  0.4793820000000  0.5996580000000  0.4682210000000 1.0
C      1  0.4638650000000  0.5979270000000  0.4919660000000 1.0
C      1  0.4732330000000  0.5951490000000  0.5190320000000 1.0
C      1  0.4981730000000  0.5939470000000  0.5336830000000 1.0
C      1  0.4389020000000  0.5822780000000  0.4869480000000 1.0
C      1  0.4526070000000  0.5754860000000  0.5358480000000 1.0
C      1  0.4928790000000  0.5857850000000  0.5615090000000 1.0
C      1  0.5407830000000  0.5730840000000  0.5490780000000 1.0
C      1  0.5688590000000  0.5988320000000  0.5014360000000 1.0
C      1  0.5543690000000  0.5757300000000  0.4576300000000 1.0
C      1  0.5101680000000  0.5748580000000  0.4366940000000 1.0
C      1  0.4658870000000  0.5794920000000  0.4473470000000 1.0
C      1  0.5707660000000  0.5632060000000  0.5601200000000 1.0
C      1  0.5790150000000  0.5772040000000  0.4799970000000 1.0
C      1  0.5391420000000  0.5712950000000  0.4270860000000 1.0
C      1  0.4824420000000  0.5697170000000  0.4223340000000 1.0
C      1  0.4402060000000  0.5639480000000  0.4583180000000 1.0
C      1  0.4291820000000  0.5708260000000  0.5116320000000 1.0
C      1  0.4668670000000  0.5744380000000  0.5656290000000 1.0
C      1  0.5182550000000  0.5709160000000  0.5744720000000 1.0
C      1  0.5468500000000  0.4670950000000  0.5891740000000 1.0
C      1  0.5901820000000  0.4589340000000  0.5307790000000 1.0
C      1  0.5876650000000  0.4742150000000  0.4558130000000 1.0
C      1  0.5262910000000  0.4717120000000  0.4112390000000 1.0
C      1  0.4500730000000  0.4791600000000  0.3960540000000 1.0
C      1  0.4069840000000  0.4625200000000  0.4675720000000 1.0
C      1  0.4107050000000  0.4759770000000  0.5498050000000 1.0
C      1  0.4700600000000  0.4757670000000  0.5959550000000 1.0
C      1  0.4583790000000  0.5232890000000  0.6012870000000 1.0
C      1  0.5525140000000  0.5144900000000  0.6102120000000 1.0
C      1  0.6007830000000  0.5033360000000  0.5360530000000 1.0
C      1  0.6003340000000  0.5219750000000  0.4657990000000 1.0
C      1  0.5441490000000  0.5180970000000  0.4023220000000 1.0
C      1  0.4661090000000  0.5229180000000  0.3920670000000 1.0
C      1  0.3853180000000  0.5066280000000  0.4524520000000 1.0
C      1  0.3914270000000  0.5134100000000  0.5492350000000 1.0
C      1  0.5401160000000  0.5153030000000  0.4419700000000 1.0
C      1  0.4787630000000  0.5162750000000  0.4292520000000 1.0
C      1  0.4248300000000  0.5115190000000  0.4517890000000 1.0
C      1  0.4256290000000  0.5147320000000  0.5288980000000 1.0
C      1  0.4688880000000  0.5232240000000  0.5631320000000 1.0
C      1  0.5254460000000  0.5127580000000  0.5738170000000 1.0
C      1  0.5618190000000  0.5116190000000  0.5336740000000 1.0
C      1  0.5656450000000  0.5189960000000  0.4851190000000 1.0
C      1  0.5728040000000  0.4507670000000  0.4708160000000 1.0
C      1  0.5264610000000  0.4462600000000  0.4340220000000 1.0
C      1  0.4760850000000  0.4587000000000  0.4414950000000 1.0
C      1  0.4359620000000  0.4454760000000  0.4726480000000 1.0
C      1  0.4264800000000  0.4526070000000  0.5317870000000 1.0
C      1  0.4659470000000  0.4499610000000  0.5749610000000 1.0
C      1  0.5264450000000  0.4452650000000  0.5794460000000 1.0
C      1  0.5574150000000  0.4500450000000  0.5287340000000 1.0
C      1  0.4208340000000  0.5182940000000  0.5608680000000 1.0
C      1  0.4889310000000  0.5185550000000  0.5890630000000 1.0
C      1  0.5581650000000  0.5110760000000  0.5786720000000 1.0
C      1  0.5809400000000  0.5103350000000  0.5093260000000 1.0
C      1  0.5708340000000  0.5102860000000  0.4536750000000 1.0
C      1  0.5165030000000  0.5099300000000  0.4178180000000 1.0
C      1  0.4473620000000  0.5154280000000  0.4194260000000 1.0
C      1  0.4057780000000  0.5048420000000  0.4779300000000 1.0
C      1  0.4305030000000  0.5405270000000  0.4349780000000 1.0
C      1  0.4197690000000  0.5440410000000  0.5126720000000 1.0
C      1  0.4634300000000  0.5509520000000  0.5820370000000 1.0
C      1  0.5116590000000  0.5396060000000  0.5863810000000 1.0
C      1  0.5703160000000  0.5321990000000  0.5593700000000 1.0
C      1  0.5939250000000  0.5465230000000  0.4786160000000 1.0
C      1  0.5518080000000  0.5440080000000  0.4104600000000 1.0
C      1  0.4778850000000  0.5448670000000  0.4107180000000 1.0
C      1  0.5030410000000  0.4597680000000  0.5075410000000 1.0
END
