TITL C-3289331-6719-137 -0.000411397180458651 125000 -838.790541890051 0 0 154 (C1) n - 1
REM
REM in /nfs/bkarasulu/CARBON/AIRSS/Generating-Clusters/AIREBO/with-SteepDescent/Higher-Symm/SD-CG/HFTN-CG
REM
REM
REM
REM
REM
REM ./C.cell (b20cbc046b6831c77cfcea5457e17084)
REM
REM compiler GCC version 9.2.1 20190827 (Red Hat 9.2.1-1)
REM options -cpp -mtune=generic -march=x86-64 -g -O0 -fpre-include=/usr/include/finclude/math-vector-fortran.h
REM seed 1590693196 1310014215 1884267378 926450223 -215370633 1304851851 1122668304 1558219003 -1206056152 -1104245175 1313076894 -1048876006 -527508354 -1794267229 613931854 1817380392 833766552 344688080 311507838 -457981871 -585534850 1547218427 1783868912 716527161 321337835 894060326 1884579674 -374400750 -1837907552 60825039 -1117296468 -726654379 -339168955
REM
CELL 1.54180   50.00000   50.00000   50.00000   90.00000   90.00000   90.00000
LATT -1
SFAC C  
C      1  0.5198890000000  0.5686120000000  0.4531110000000 1.0
C      1  0.4932570000000  0.5872300000000  0.4510450000000 1.0
C      1  0.4647880000000  0.5695800000000  0.4568800000000 1.0
C      1  0.4489820000000  0.5850350000000  0.4830390000000 1.0
C      1  0.4554320000000  0.5775160000000  0.5121880000000 1.0
C      1  0.4686510000000  0.5791600000000  0.5435270000000 1.0
C      1  0.4992170000000  0.5751240000000  0.5502610000000 1.0
C      1  0.5324960000000  0.5740110000000  0.5571610000000 1.0
C      1  0.5513040000000  0.5877610000000  0.5388050000000 1.0
C      1  0.5589930000000  0.5755740000000  0.5103500000000 1.0
C      1  0.5485670000000  0.5758670000000  0.4614920000000 1.0
C      1  0.5830480000000  0.5336130000000  0.5662030000000 1.0
C      1  0.6004740000000  0.5349140000000  0.5053530000000 1.0
C      1  0.5859110000000  0.5408360000000  0.4451120000000 1.0
C      1  0.5463030000000  0.5437820000000  0.4147720000000 1.0
C      1  0.4897840000000  0.5450280000000  0.3972850000000 1.0
C      1  0.4420390000000  0.5453650000000  0.4116750000000 1.0
C      1  0.4097500000000  0.5487030000000  0.4591270000000 1.0
C      1  0.4048820000000  0.5360130000000  0.5165530000000 1.0
C      1  0.4332910000000  0.5376500000000  0.5709120000000 1.0
C      1  0.4648230000000  0.5477010000000  0.6030280000000 1.0
C      1  0.5323810000000  0.5243650000000  0.5930520000000 1.0
C      1  0.5487170000000  0.5695740000000  0.5832720000000 1.0
C      1  0.5804020000000  0.5732400000000  0.5341500000000 1.0
C      1  0.5687450000000  0.5698040000000  0.4825920000000 1.0
C      1  0.5629760000000  0.5819970000000  0.4362200000000 1.0
C      1  0.5112080000000  0.5811020000000  0.4228920000000 1.0
C      1  0.4717780000000  0.5792650000000  0.4250400000000 1.0
C      1  0.4329700000000  0.5802150000000  0.4513520000000 1.0
C      1  0.4155090000000  0.5829310000000  0.4785750000000 1.0
C      1  0.4305750000000  0.5762420000000  0.5319980000000 1.0
C      1  0.4522710000000  0.5822090000000  0.5703490000000 1.0
C      1  0.5025290000000  0.5775130000000  0.5828950000000 1.0
C      1  0.4176580000000  0.4317480000000  0.4675190000000 1.0
C      1  0.4130900000000  0.4304420000000  0.5096640000000 1.0
C      1  0.4377600000000  0.4273790000000  0.5575960000000 1.0
C      1  0.4793410000000  0.4315160000000  0.5878820000000 1.0
C      1  0.5284990000000  0.4328950000000  0.5852300000000 1.0
C      1  0.5690430000000  0.4335130000000  0.5572890000000 1.0
C      1  0.5852380000000  0.4323150000000  0.5146300000000 1.0
C      1  0.5730420000000  0.4313850000000  0.4652640000000 1.0
C      1  0.5481580000000  0.4326630000000  0.4242690000000 1.0
C      1  0.5004440000000  0.4296030000000  0.4155380000000 1.0
C      1  0.4528330000000  0.4296690000000  0.4289280000000 1.0
C      1  0.5121090000000  0.5485080000000  0.5805590000000 1.0
C      1  0.5579840000000  0.5435220000000  0.5862960000000 1.0
C      1  0.5904350000000  0.5466800000000  0.5356960000000 1.0
C      1  0.5873140000000  0.5500750000000  0.4778070000000 1.0
C      1  0.5687600000000  0.5574020000000  0.4250670000000 1.0
C      1  0.5161180000000  0.5492850000000  0.4183000000000 1.0
C      1  0.4666470000000  0.5591510000000  0.4064070000000 1.0
C      1  0.4239310000000  0.5576770000000  0.4306910000000 1.0
C      1  0.4126010000000  0.5545910000000  0.4927360000000 1.0
C      1  0.4215640000000  0.5464200000000  0.5414860000000 1.0
C      1  0.4472600000000  0.5596560000000  0.5850060000000 1.0
C      1  0.5484200000000  0.5140010000000  0.4645780000000 1.0
C      1  0.5193390000000  0.5028160000000  0.4528330000000 1.0
C      1  0.4941220000000  0.4905430000000  0.4628650000000 1.0
C      1  0.4575470000000  0.5052580000000  0.4562660000000 1.0
C      1  0.4568530000000  0.4995840000000  0.4893450000000 1.0
C      1  0.4475280000000  0.5138940000000  0.5153870000000 1.0
C      1  0.4638540000000  0.5019340000000  0.5412530000000 1.0
C      1  0.4925600000000  0.5124390000000  0.5455690000000 1.0
C      1  0.5247130000000  0.4991010000000  0.5460830000000 1.0
C      1  0.5427220000000  0.5001600000000  0.5172620000000 1.0
C      1  0.5600430000000  0.5036490000000  0.4919600000000 1.0
C      1  0.5518010000000  0.4805700000000  0.4593580000000 1.0
C      1  0.5246130000000  0.4694210000000  0.4488040000000 1.0
C      1  0.4722690000000  0.4795740000000  0.4468300000000 1.0
C      1  0.4528090000000  0.4593240000000  0.4609000000000 1.0
C      1  0.4462940000000  0.4711430000000  0.4883430000000 1.0
C      1  0.4458310000000  0.4582630000000  0.5145330000000 1.0
C      1  0.4632970000000  0.4685030000000  0.5417130000000 1.0
C      1  0.4995230000000  0.4844620000000  0.5636130000000 1.0
C      1  0.5214890000000  0.4651870000000  0.5454220000000 1.0
C      1  0.5487550000000  0.4713900000000  0.5304250000000 1.0
C      1  0.5626050000000  0.4705630000000  0.4993850000000 1.0
C      1  0.5443910000000  0.5484490000000  0.5059080000000 1.0
C      1  0.5386800000000  0.5440200000000  0.4775430000000 1.0
C      1  0.5160100000000  0.5356900000000  0.4558660000000 1.0
C      1  0.4923180000000  0.5302800000000  0.4342370000000 1.0
C      1  0.4683410000000  0.5369900000000  0.4554930000000 1.0
C      1  0.4440500000000  0.5353500000000  0.4778080000000 1.0
C      1  0.4422300000000  0.5465390000000  0.5074120000000 1.0
C      1  0.4554640000000  0.5457720000000  0.5387260000000 1.0
C      1  0.4883840000000  0.5439970000000  0.5433040000000 1.0
C      1  0.5221110000000  0.5427900000000  0.5485400000000 1.0
C      1  0.5428770000000  0.5307730000000  0.5300160000000 1.0
C      1  0.5759580000000  0.4629070000000  0.5639450000000 1.0
C      1  0.5968280000000  0.4604940000000  0.5169550000000 1.0
C      1  0.5785000000000  0.4617250000000  0.4637740000000 1.0
C      1  0.5533560000000  0.4592560000000  0.4157080000000 1.0
C      1  0.5000890000000  0.4598720000000  0.4074750000000 1.0
C      1  0.4498480000000  0.4587300000000  0.4204870000000 1.0
C      1  0.4124890000000  0.4619680000000  0.4630260000000 1.0
C      1  0.4060640000000  0.4603920000000  0.5110410000000 1.0
C      1  0.4309810000000  0.4573490000000  0.5621790000000 1.0
C      1  0.4769000000000  0.4620240000000  0.5928750000000 1.0
C      1  0.5315100000000  0.4614160000000  0.5951690000000 1.0
C      1  0.4081620000000  0.5083650000000  0.5116040000000 1.0
C      1  0.4144920000000  0.5107190000000  0.5621150000000 1.0
C      1  0.4628490000000  0.5163140000000  0.5988170000000 1.0
C      1  0.5106960000000  0.5049210000000  0.6083010000000 1.0
C      1  0.5758400000000  0.5016400000000  0.5752510000000 1.0
C      1  0.6012530000000  0.5043500000000  0.5217950000000 1.0
C      1  0.5981330000000  0.5119500000000  0.4582370000000 1.0
C      1  0.5506270000000  0.5164440000000  0.4136160000000 1.0
C      1  0.5045350000000  0.5163080000000  0.3989130000000 1.0
C      1  0.4462690000000  0.5174680000000  0.4135070000000 1.0
C      1  0.4064430000000  0.5195650000000  0.4489140000000 1.0
C      1  0.4514590000000  0.4165650000000  0.5839770000000 1.0
C      1  0.5051920000000  0.4187380000000  0.6008050000000 1.0
C      1  0.5564250000000  0.4191660000000  0.5824440000000 1.0
C      1  0.5904890000000  0.4161600000000  0.5413070000000 1.0
C      1  0.5908140000000  0.4181180000000  0.4869330000000 1.0
C      1  0.5709650000000  0.4200590000000  0.4358100000000 1.0
C      1  0.5294540000000  0.4188980000000  0.4076810000000 1.0
C      1  0.4728940000000  0.4151630000000  0.4096850000000 1.0
C      1  0.4255330000000  0.4179390000000  0.4395580000000 1.0
C      1  0.3966940000000  0.4153280000000  0.4861520000000 1.0
C      1  0.4169670000000  0.4149060000000  0.5381790000000 1.0
C      1  0.4464490000000  0.4247010000000  0.4798430000000 1.0
C      1  0.4467680000000  0.4262340000000  0.5119180000000 1.0
C      1  0.4650050000000  0.4345730000000  0.5396960000000 1.0
C      1  0.4886470000000  0.4276910000000  0.5573440000000 1.0
C      1  0.5176490000000  0.4357440000000  0.5545510000000 1.0
C      1  0.5442800000000  0.4323150000000  0.5371180000000 1.0
C      1  0.5525930000000  0.4390560000000  0.5074060000000 1.0
C      1  0.5422490000000  0.4327120000000  0.4773010000000 1.0
C      1  0.5245890000000  0.4397970000000  0.4556270000000 1.0
C      1  0.4982330000000  0.4289610000000  0.4490650000000 1.0
C      1  0.4689250000000  0.4307090000000  0.4579900000000 1.0
C      1  0.5736030000000  0.4759290000000  0.4337650000000 1.0
C      1  0.5256630000000  0.4745200000000  0.4154630000000 1.0
C      1  0.4761740000000  0.4756910000000  0.4159320000000 1.0
C      1  0.4303030000000  0.4730960000000  0.4394340000000 1.0
C      1  0.4149440000000  0.4843050000000  0.4885450000000 1.0
C      1  0.4238780000000  0.4696060000000  0.5357860000000 1.0
C      1  0.4552960000000  0.4741350000000  0.5749460000000 1.0
C      1  0.5049970000000  0.4784370000000  0.5941440000000 1.0
C      1  0.5539500000000  0.4766300000000  0.5824860000000 1.0
C      1  0.5802560000000  0.4823670000000  0.5370350000000 1.0
C      1  0.5946060000000  0.4729840000000  0.4878950000000 1.0
C      1  0.4484250000000  0.5071850000000  0.5708740000000 1.0
C      1  0.4933130000000  0.5297160000000  0.5991410000000 1.0
C      1  0.5422790000000  0.5047990000000  0.5715400000000 1.0
C      1  0.5691160000000  0.5138340000000  0.5435830000000 1.0
C      1  0.5925680000000  0.5061740000000  0.4889690000000 1.0
C      1  0.5702600000000  0.5094890000000  0.4388960000000 1.0
C      1  0.5277890000000  0.5026850000000  0.4058790000000 1.0
C      1  0.4762640000000  0.5082810000000  0.4138680000000 1.0
C      1  0.4312580000000  0.5035210000000  0.4365410000000 1.0
C      1  0.4228520000000  0.5140350000000  0.4740370000000 1.0
C      1  0.4244980000000  0.4988110000000  0.5354420000000 1.0
END
