TITL C-3289327-5623-407 -0.000371576678947557 125000 -573.758453238824 0 0 107 (C1) n - 1
REM
REM in /nfs/bkarasulu/CARBON/AIRSS/Generating-Clusters/AIREBO/with-SteepDescent/Higher-Symm/SD-CG/HFTN-CG
REM
REM
REM
REM
REM
REM ./C.cell (b20cbc046b6831c77cfcea5457e17084)
REM
REM compiler GCC version 9.2.1 20190827 (Red Hat 9.2.1-1)
REM options -cpp -mtune=generic -march=x86-64 -g -O0 -fpre-include=/usr/include/finclude/math-vector-fortran.h
REM seed -2058082951 -1609216971 -2028480259 -1834563582 -654138121 256276174 -985699502 1412863180 -1223750561 1576893701 765824875 626533557 -1462360900 -838141676 -1509493331 -245276304 1958898802 -352491647 -1743506668 -1211787589 -1061280063 -677846105 897636929 1534390963 -180848206 -1334900836 -1282675192 954965290 1290743948 -1150416120 -862091646 1946235233 -1520881342
REM
CELL 1.54180   50.00000   50.00000   50.00000   90.00000   90.00000   90.00000
LATT -1
SFAC C  
C      1  0.4315650000000  0.4616830000000  0.5222920000000 1.0
C      1  0.5243240000000  0.4352870000000  0.4641300000000 1.0
C      1  0.4551420000000  0.5292630000000  0.4235960000000 1.0
C      1  0.5692780000000  0.5365930000000  0.5225250000000 1.0
C      1  0.5712620000000  0.4609620000000  0.4741110000000 1.0
C      1  0.4340690000000  0.5383780000000  0.4723830000000 1.0
C      1  0.4689930000000  0.5693630000000  0.4578380000000 1.0
C      1  0.4747730000000  0.4339970000000  0.5375720000000 1.0
C      1  0.5284330000000  0.5676600000000  0.5384790000000 1.0
C      1  0.5367060000000  0.4752740000000  0.4307400000000 1.0
C      1  0.5401740000000  0.5255890000000  0.5661080000000 1.0
C      1  0.4574880000000  0.4743800000000  0.5697890000000 1.0
C      1  0.4789110000000  0.4373310000000  0.4542200000000 1.0
C      1  0.4478270000000  0.4687670000000  0.4242620000000 1.0
C      1  0.4354550000000  0.4571420000000  0.4722760000000 1.0
C      1  0.5291680000000  0.5624340000000  0.4523170000000 1.0
C      1  0.5230170000000  0.4352430000000  0.5494160000000 1.0
C      1  0.4807780000000  0.5588750000000  0.5449180000000 1.0
C      1  0.5404450000000  0.5242260000000  0.4334450000000 1.0
C      1  0.5449050000000  0.4796000000000  0.5651790000000 1.0
C      1  0.4531820000000  0.5224770000000  0.5702140000000 1.0
C      1  0.5645000000000  0.5447590000000  0.4763690000000 1.0
C      1  0.5731430000000  0.4520370000000  0.5296570000000 1.0
C      1  0.4380570000000  0.5425020000000  0.5204400000000 1.0
C      1  0.4594680000000  0.5140370000000  0.4535500000000 1.0
C      1  0.4505280000000  0.4547490000000  0.4995810000000 1.0
C      1  0.5032880000000  0.4586840000000  0.4553140000000 1.0
C      1  0.5459100000000  0.4976370000000  0.4485040000000 1.0
C      1  0.5462860000000  0.5036050000000  0.5451260000000 1.0
C      1  0.4512320000000  0.4965510000000  0.5489630000000 1.0
C      1  0.5450610000000  0.5455420000000  0.5023300000000 1.0
C      1  0.5570460000000  0.4515940000000  0.4996930000000 1.0
C      1  0.4542340000000  0.5458040000000  0.4946500000000 1.0
C      1  0.4802410000000  0.5409530000000  0.4520920000000 1.0
C      1  0.4969670000000  0.4535170000000  0.5485900000000 1.0
C      1  0.5099790000000  0.5446330000000  0.5468930000000 1.0
C      1  0.5754620000000  0.5538400000000  0.5439600000000 1.0
C      1  0.5513430000000  0.5721150000000  0.5538020000000 1.0
C      1  0.5588840000000  0.5460210000000  0.5703360000000 1.0
C      1  0.4265780000000  0.4438530000000  0.5433510000000 1.0
C      1  0.4237380000000  0.5554460000000  0.4524100000000 1.0
C      1  0.5717120000000  0.4432200000000  0.4519650000000 1.0
C      1  0.4525200000000  0.4280490000000  0.5541320000000 1.0
C      1  0.4462070000000  0.5754190000000  0.4418850000000 1.0
C      1  0.5440410000000  0.4285630000000  0.4451790000000 1.0
C      1  0.4405140000000  0.4522850000000  0.5709620000000 1.0
C      1  0.4372020000000  0.5506550000000  0.4233970000000 1.0
C      1  0.5530860000000  0.4530090000000  0.4271440000000 1.0
C      1  0.5062060000000  0.4742040000000  0.4251990000000 1.0
C      1  0.4300940000000  0.5076890000000  0.4682510000000 1.0
C      1  0.4680350000000  0.4274130000000  0.5075060000000 1.0
C      1  0.4877410000000  0.5315480000000  0.4208610000000 1.0
C      1  0.4868120000000  0.4687460000000  0.5741920000000 1.0
C      1  0.5104560000000  0.5272120000000  0.5760950000000 1.0
C      1  0.5750480000000  0.4912850000000  0.4643530000000 1.0
C      1  0.5749300000000  0.5054240000000  0.5289820000000 1.0
C      1  0.4255420000000  0.4916220000000  0.5272130000000 1.0
C      1  0.5291870000000  0.5750020000000  0.5083870000000 1.0
C      1  0.5335850000000  0.4281620000000  0.4938990000000 1.0
C      1  0.4658400000000  0.5751180000000  0.4887000000000 1.0
C      1  0.5069270000000  0.4785660000000  0.5321990000000 1.0
C      1  0.5362880000000  0.5013720000000  0.4809010000000 1.0
C      1  0.4822530000000  0.5302150000000  0.4970960000000 1.0
C      1  0.5078890000000  0.5126580000000  0.5391470000000 1.0
C      1  0.5029250000000  0.4828430000000  0.4791950000000 1.0
C      1  0.5018860000000  0.5327370000000  0.4709370000000 1.0
C      1  0.4741670000000  0.4888320000000  0.4620730000000 1.0
C      1  0.4762400000000  0.5065260000000  0.5298960000000 1.0
C      1  0.5352420000000  0.4987510000000  0.5132930000000 1.0
C      1  0.5369540000000  0.4666600000000  0.5214230000000 1.0
C      1  0.5160160000000  0.5318700000000  0.5018520000000 1.0
C      1  0.4727730000000  0.4754030000000  0.4932790000000 1.0
C      1  0.5913610000000  0.4786710000000  0.5411550000000 1.0
C      1  0.5443650000000  0.5789520000000  0.4781900000000 1.0
C      1  0.4803080000000  0.5432880000000  0.5734980000000 1.0
C      1  0.4218860000000  0.5218060000000  0.5424980000000 1.0
C      1  0.4262710000000  0.4809970000000  0.4475400000000 1.0
C      1  0.5761750000000  0.5231560000000  0.4525000000000 1.0
C      1  0.4564710000000  0.4232600000000  0.4757940000000 1.0
C      1  0.4570370000000  0.5966690000000  0.5136320000000 1.0
C      1  0.5455900000000  0.4231110000000  0.5253140000000 1.0
C      1  0.5079880000000  0.4606140000000  0.5995180000000 1.0
C      1  0.5168130000000  0.5484260000000  0.4259760000000 1.0
C      1  0.4787930000000  0.4552060000000  0.4185520000000 1.0
C      1  0.5287510000000  0.4797560000000  0.5876450000000 1.0
C      1  0.5885850000000  0.5237110000000  0.4829550000000 1.0
C      1  0.4799850000000  0.5806420000000  0.5254150000000 1.0
C      1  0.4766040000000  0.5162760000000  0.5937440000000 1.0
C      1  0.4723390000000  0.4840770000000  0.4063490000000 1.0
C      1  0.5228650000000  0.5214790000000  0.4056710000000 1.0
C      1  0.4082720000000  0.4754880000000  0.4760210000000 1.0
C      1  0.4101960000000  0.5254450000000  0.5124700000000 1.0
C      1  0.5889490000000  0.4736410000000  0.5093860000000 1.0
C      1  0.5145000000000  0.4139280000000  0.5258100000000 1.0
C      1  0.5131240000000  0.5832400000000  0.4728940000000 1.0
C      1  0.4878790000000  0.4143000000000  0.4755590000000 1.0
C      1  0.5758730000000  0.4983600000000  0.4965330000000 1.0
C      1  0.4974200000000  0.5759360000000  0.4988360000000 1.0
C      1  0.5009740000000  0.4267660000000  0.5007330000000 1.0
C      1  0.5010710000000  0.4973130000000  0.5860170000000 1.0
C      1  0.4971230000000  0.5024250000000  0.4091380000000 1.0
C      1  0.4140840000000  0.4996280000000  0.4962120000000 1.0
C      1  0.5349980000000  0.5319110000000  0.4661190000000 1.0
C      1  0.4607690000000  0.5341820000000  0.5399220000000 1.0
C      1  0.5487410000000  0.4540220000000  0.5501090000000 1.0
C      1  0.4606270000000  0.4621790000000  0.4533970000000 1.0
C      1  0.5018110000000  0.5014970000000  0.5076020000000 1.0
END
