TITL C-3289327-5623-534 0.00618143352744562 125000 -819.922044265715 0 0 151 (C1) n - 1
REM
REM in /nfs/bkarasulu/CARBON/AIRSS/Generating-Clusters/AIREBO/with-SteepDescent/Higher-Symm/SD-CG/HFTN-CG
REM
REM
REM
REM
REM
REM ./C.cell (b20cbc046b6831c77cfcea5457e17084)
REM
REM compiler GCC version 9.2.1 20190827 (Red Hat 9.2.1-1)
REM options -cpp -mtune=generic -march=x86-64 -g -O0 -fpre-include=/usr/include/finclude/math-vector-fortran.h
REM seed -1016561799 1615951551 1019944599 1593034728 -2082245407 688111001 -284375542 777849949 -1389634876 -110192309 -603085150 1035946387 -1437740615 1040269068 2101067311 2125605181 328231597 1108182590 1497430921 -845117386 -1243136430 -435190333 -2144992342 -1055344354 -63239104 953942780 285918447 1684599018 -1349676711 1087555080 291552977 1546002478 1843976368
REM
CELL 1.54180   50.00000   50.00000   50.00000   90.00000   90.00000   90.00000
LATT -1
SFAC C  
C      1  0.5043960000000  0.4664970000000  0.5354880000000 1.0
C      1  0.5166590000000  0.4853520000000  0.5154460000000 1.0
C      1  0.5314160000000  0.4780780000000  0.4881790000000 1.0
C      1  0.5067070000000  0.4809170000000  0.4693950000000 1.0
C      1  0.4813520000000  0.4755270000000  0.4797320000000 1.0
C      1  0.4596350000000  0.4737000000000  0.5190060000000 1.0
C      1  0.5062600000000  0.5420450000000  0.4648080000000 1.0
C      1  0.5383480000000  0.5425380000000  0.4766420000000 1.0
C      1  0.5341960000000  0.5349960000000  0.5156490000000 1.0
C      1  0.5020290000000  0.5327290000000  0.5388490000000 1.0
C      1  0.4767050000000  0.5354230000000  0.5183270000000 1.0
C      1  0.4741180000000  0.5309230000000  0.4642860000000 1.0
C      1  0.5676500000000  0.4397130000000  0.6053490000000 1.0
C      1  0.5993320000000  0.4362740000000  0.5134920000000 1.0
C      1  0.5613060000000  0.4526960000000  0.4185490000000 1.0
C      1  0.4309120000000  0.4390380000000  0.4067630000000 1.0
C      1  0.3818090000000  0.4424270000000  0.5119590000000 1.0
C      1  0.4340490000000  0.4523090000000  0.5876400000000 1.0
C      1  0.5822310000000  0.5499330000000  0.3986850000000 1.0
C      1  0.6013250000000  0.5436570000000  0.4928950000000 1.0
C      1  0.5453480000000  0.5590970000000  0.6060140000000 1.0
C      1  0.4337250000000  0.5564810000000  0.6087700000000 1.0
C      1  0.3960780000000  0.5489860000000  0.5010570000000 1.0
C      1  0.4312830000000  0.5347390000000  0.4174290000000 1.0
C      1  0.5686220000000  0.5734480000000  0.5274360000000 1.0
C      1  0.5448640000000  0.5680250000000  0.4382730000000 1.0
C      1  0.4564380000000  0.5746120000000  0.4391480000000 1.0
C      1  0.4269480000000  0.5799240000000  0.4812570000000 1.0
C      1  0.4595770000000  0.5750830000000  0.5609340000000 1.0
C      1  0.5304270000000  0.5742060000000  0.5610440000000 1.0
C      1  0.5661710000000  0.4176860000000  0.4806900000000 1.0
C      1  0.5453020000000  0.4262620000000  0.5543520000000 1.0
C      1  0.4731710000000  0.4281060000000  0.5620250000000 1.0
C      1  0.4344980000000  0.4174510000000  0.5035450000000 1.0
C      1  0.4511780000000  0.4221060000000  0.4458830000000 1.0
C      1  0.5200420000000  0.4261060000000  0.4289680000000 1.0
C      1  0.3974810000000  0.5239270000000  0.4845280000000 1.0
C      1  0.4364160000000  0.5359520000000  0.5816180000000 1.0
C      1  0.5338510000000  0.5343610000000  0.6008550000000 1.0
C      1  0.6140640000000  0.5266540000000  0.5158990000000 1.0
C      1  0.5740000000000  0.5294060000000  0.4246800000000 1.0
C      1  0.4627010000000  0.5333470000000  0.4040310000000 1.0
C      1  0.4085600000000  0.4615940000000  0.5210720000000 1.0
C      1  0.4391750000000  0.4637600000000  0.4181090000000 1.0
C      1  0.5365630000000  0.4706110000000  0.4027110000000 1.0
C      1  0.5969720000000  0.4587870000000  0.4877660000000 1.0
C      1  0.5651570000000  0.4634880000000  0.5810310000000 1.0
C      1  0.4639660000000  0.4654980000000  0.5975630000000 1.0
C      1  0.5012460000000  0.5844030000000  0.5554620000000 1.0
C      1  0.5429670000000  0.5774240000000  0.5327150000000 1.0
C      1  0.5443090000000  0.5830140000000  0.4621950000000 1.0
C      1  0.4866410000000  0.5851530000000  0.4412890000000 1.0
C      1  0.4498720000000  0.5852650000000  0.4677360000000 1.0
C      1  0.4520650000000  0.5858330000000  0.5368310000000 1.0
C      1  0.5023310000000  0.4160320000000  0.4464860000000 1.0
C      1  0.5430530000000  0.4184440000000  0.4669520000000 1.0
C      1  0.5494460000000  0.4144500000000  0.5304080000000 1.0
C      1  0.4938180000000  0.4134930000000  0.5520970000000 1.0
C      1  0.4623200000000  0.4101800000000  0.5178490000000 1.0
C      1  0.4392820000000  0.4204430000000  0.4703780000000 1.0
C      1  0.4613490000000  0.5113800000000  0.4295300000000 1.0
C      1  0.4260580000000  0.5230880000000  0.5013330000000 1.0
C      1  0.4650670000000  0.5260160000000  0.5695920000000 1.0
C      1  0.5380290000000  0.5232590000000  0.5730530000000 1.0
C      1  0.5748640000000  0.5204180000000  0.5109750000000 1.0
C      1  0.5430260000000  0.5193840000000  0.4312300000000 1.0
C      1  0.4533590000000  0.4700760000000  0.5655840000000 1.0
C      1  0.4318830000000  0.4704080000000  0.5028550000000 1.0
C      1  0.4664460000000  0.4635950000000  0.4277930000000 1.0
C      1  0.5374120000000  0.4800570000000  0.4343900000000 1.0
C      1  0.5699180000000  0.4728550000000  0.4999430000000 1.0
C      1  0.5389440000000  0.4735670000000  0.5666770000000 1.0
C      1  0.5959560000000  0.5078690000000  0.4714360000000 1.0
C      1  0.5144170000000  0.5196270000000  0.3980580000000 1.0
C      1  0.4193320000000  0.5141340000000  0.4349810000000 1.0
C      1  0.4129890000000  0.5118480000000  0.5391810000000 1.0
C      1  0.4872520000000  0.5115170000000  0.5989050000000 1.0
C      1  0.5803150000000  0.5103000000000  0.5623130000000 1.0
C      1  0.5972740000000  0.4809430000000  0.5423060000000 1.0
C      1  0.5150780000000  0.4861650000000  0.6101370000000 1.0
C      1  0.4182940000000  0.4881520000000  0.5701820000000 1.0
C      1  0.4073820000000  0.4834850000000  0.4572360000000 1.0
C      1  0.4887760000000  0.4908300000000  0.3901350000000 1.0
C      1  0.5891500000000  0.4830300000000  0.4414430000000 1.0
C      1  0.4789480000000  0.5512430000000  0.5547640000000 1.0
C      1  0.5309690000000  0.5433890000000  0.5498070000000 1.0
C      1  0.5681450000000  0.5420440000000  0.4856110000000 1.0
C      1  0.5272800000000  0.5458460000000  0.4383520000000 1.0
C      1  0.4551100000000  0.5423090000000  0.4422080000000 1.0
C      1  0.4321260000000  0.5551070000000  0.5036480000000 1.0
C      1  0.4721800000000  0.4419210000000  0.4440680000000 1.0
C      1  0.5371160000000  0.4500680000000  0.4437120000000 1.0
C      1  0.5660830000000  0.4407870000000  0.5056430000000 1.0
C      1  0.5251480000000  0.4500580000000  0.5515640000000 1.0
C      1  0.4666010000000  0.4524800000000  0.5430970000000 1.0
C      1  0.4459720000000  0.4456330000000  0.4904350000000 1.0
C      1  0.5236690000000  0.5722150000000  0.4843850000000 1.0
C      1  0.4967070000000  0.5739310000000  0.4690780000000 1.0
C      1  0.4720090000000  0.5802020000000  0.4848160000000 1.0
C      1  0.4635180000000  0.5660590000000  0.5117210000000 1.0
C      1  0.4920330000000  0.5702680000000  0.5297790000000 1.0
C      1  0.5207250000000  0.5648020000000  0.5143330000000 1.0
C      1  0.5340110000000  0.4295600000000  0.5041490000000 1.0
C      1  0.5122240000000  0.4286010000000  0.5285580000000 1.0
C      1  0.4805970000000  0.4337500000000  0.5203340000000 1.0
C      1  0.4761410000000  0.4479840000000  0.4932700000000 1.0
C      1  0.4937900000000  0.4391560000000  0.4688280000000 1.0
C      1  0.5263350000000  0.4467190000000  0.4757960000000 1.0
C      1  0.5597620000000  0.4963100000000  0.4506290000000 1.0
C      1  0.4823780000000  0.4894020000000  0.4216190000000 1.0
C      1  0.4257810000000  0.4938360000000  0.4839010000000 1.0
C      1  0.4470230000000  0.5006980000000  0.5569930000000 1.0
C      1  0.5178240000000  0.4963760000000  0.5780690000000 1.0
C      1  0.5715320000000  0.4920120000000  0.5253740000000 1.0
C      1  0.5499540000000  0.5011000000000  0.5500400000000 1.0
C      1  0.4857020000000  0.4999990000000  0.5669450000000 1.0
C      1  0.4423740000000  0.5088860000000  0.5252360000000 1.0
C      1  0.4423860000000  0.5024670000000  0.4554900000000 1.0
C      1  0.5133360000000  0.5031390000000  0.4277860000000 1.0
C      1  0.5647530000000  0.5023220000000  0.4837730000000 1.0
C      1  0.5441900000000  0.5793280000000  0.5876410000000 1.0
C      1  0.5839280000000  0.5522720000000  0.5200720000000 1.0
C      1  0.5671900000000  0.5621950000000  0.4232430000000 1.0
C      1  0.4478810000000  0.5634080000000  0.4097670000000 1.0
C      1  0.4001210000000  0.5761360000000  0.4923030000000 1.0
C      1  0.4431830000000  0.5684000000000  0.5814350000000 1.0
C      1  0.5353450000000  0.4368070000000  0.4061480000000 1.0
C      1  0.5946850000000  0.4258070000000  0.4824890000000 1.0
C      1  0.5611120000000  0.4307900000000  0.5759750000000 1.0
C      1  0.4614440000000  0.4335000000000  0.5863440000000 1.0
C      1  0.4094650000000  0.4279220000000  0.5164320000000 1.0
C      1  0.4378300000000  0.4166080000000  0.4215280000000 1.0
C      1  0.5194990000000  0.4880830000000  0.3870900000000 1.0
C      1  0.4207470000000  0.4803680000000  0.4302380000000 1.0
C      1  0.4039000000000  0.4811770000000  0.5424970000000 1.0
C      1  0.4835300000000  0.4814560000000  0.6101140000000 1.0
C      1  0.5879680000000  0.4796510000000  0.5716590000000 1.0
C      1  0.6060480000000  0.4773950000000  0.4669970000000 1.0
C      1  0.5139710000000  0.5194080000000  0.6128550000000 1.0
C      1  0.4147470000000  0.5207990000000  0.5690700000000 1.0
C      1  0.3966250000000  0.5125780000000  0.4602430000000 1.0
C      1  0.4845130000000  0.5227790000000  0.3869840000000 1.0
C      1  0.5936020000000  0.5148420000000  0.4404220000000 1.0
C      1  0.6035940000000  0.5124960000000  0.5375920000000 1.0
C      1  0.5249720000000  0.5089690000000  0.5306870000000 1.0
C      1  0.5328760000000  0.5120030000000  0.4906040000000 1.0
C      1  0.5070770000000  0.5093600000000  0.4588680000000 1.0
C      1  0.4826720000000  0.4887330000000  0.5390090000000 1.0
C      1  0.4642600000000  0.5020810000000  0.4780230000000 1.0
C      1  0.4727470000000  0.5045130000000  0.5105600000000 1.0
C      1  0.4999520000000  0.5128970000000  0.4919500000000 1.0
END
