TITL C-3289320-4661-727 0.175935346722742 125000 -516.097316676499 0 0 92 (C1) n - 1
REM
REM in /nfs/bkarasulu/CARBON/AIRSS/Generating-Clusters/AIREBO/with-SteepDescent/Higher-Symm/SD-CG/HFTN-CG
REM
REM
REM
REM
REM
REM ./C.cell (b20cbc046b6831c77cfcea5457e17084)
REM
REM compiler GCC version 9.2.1 20190827 (Red Hat 9.2.1-1)
REM options -cpp -mtune=generic -march=x86-64 -g -O0 -fpre-include=/usr/include/finclude/math-vector-fortran.h
REM seed 732995563 -62381796 -1609529434 -1090469076 242283306 1561837664 -1816879472 -631921136 1581535482 1894535942 1091717147 127626645 -66261547 -1543561531 51294921 -1469935803 543544159 -1788332396 320592178 151218434 -304517172 517879067 1193620706 -182241103 1642927827 -642112199 1725541044 -37953449 -771506145 -957398574 -1648448023 1106593266 -144000301
REM
CELL 1.54180   50.00000   50.00000   50.00000   90.00000   90.00000   90.00000
LATT -1
SFAC C  
C      1  0.5676350000000  0.4682290000000  0.4411000000000 1.0
C      1  0.4509440000000  0.4637210000000  0.4395290000000 1.0
C      1  0.4950000000000  0.5587510000000  0.4421150000000 1.0
C      1  0.5569560000000  0.4662410000000  0.5574240000000 1.0
C      1  0.4401210000000  0.4692010000000  0.5604110000000 1.0
C      1  0.5021350000000  0.5628010000000  0.5579230000000 1.0
C      1  0.4760290000000  0.5247760000000  0.4789900000000 1.0
C      1  0.5183340000000  0.5008800000000  0.4774110000000 1.0
C      1  0.4976620000000  0.4740900000000  0.4807330000000 1.0
C      1  0.4866650000000  0.5181460000000  0.5102070000000 1.0
C      1  0.5208110000000  0.5030720000000  0.5108020000000 1.0
C      1  0.4869500000000  0.4803430000000  0.5100830000000 1.0
C      1  0.4658430000000  0.5602320000000  0.4424270000000 1.0
C      1  0.5712880000000  0.4984930000000  0.4464140000000 1.0
C      1  0.4678870000000  0.4397090000000  0.4441580000000 1.0
C      1  0.4735150000000  0.5655680000000  0.5593130000000 1.0
C      1  0.5703210000000  0.4920970000000  0.5522510000000 1.0
C      1  0.4547410000000  0.4435990000000  0.5569820000000 1.0
C      1  0.4256070000000  0.5363480000000  0.4905290000000 1.0
C      1  0.5634690000000  0.5467920000000  0.4826420000000 1.0
C      1  0.5064630000000  0.4227040000000  0.4899050000000 1.0
C      1  0.4348190000000  0.5258320000000  0.5147700000000 1.0
C      1  0.5609240000000  0.5584200000000  0.5053400000000 1.0
C      1  0.5123350000000  0.4335710000000  0.5149020000000 1.0
C      1  0.5001610000000  0.5891420000000  0.4853010000000 1.0
C      1  0.5849620000000  0.4391970000000  0.4852330000000 1.0
C      1  0.4208590000000  0.4606700000000  0.4878350000000 1.0
C      1  0.4956940000000  0.5830150000000  0.5151280000000 1.0
C      1  0.5779010000000  0.4469330000000  0.5113050000000 1.0
C      1  0.4094960000000  0.4651170000000  0.5130100000000 1.0
C      1  0.4859880000000  0.5270060000000  0.5895620000000 1.0
C      1  0.5334450000000  0.4947110000000  0.5860830000000 1.0
C      1  0.4817990000000  0.4751420000000  0.5881560000000 1.0
C      1  0.4827330000000  0.5249570000000  0.4100010000000 1.0
C      1  0.5326470000000  0.4947200000000  0.4120740000000 1.0
C      1  0.4904730000000  0.4779770000000  0.4167590000000 1.0
C      1  0.4515570000000  0.4523280000000  0.4878920000000 1.0
C      1  0.4680060000000  0.5785790000000  0.4870700000000 1.0
C      1  0.5658460000000  0.4869950000000  0.4843290000000 1.0
C      1  0.4594500000000  0.4498520000000  0.5167920000000 1.0
C      1  0.4657710000000  0.5688810000000  0.5186020000000 1.0
C      1  0.5666430000000  0.4771140000000  0.5127060000000 1.0
C      1  0.5873790000000  0.5011640000000  0.4713340000000 1.0
C      1  0.4582910000000  0.4282930000000  0.4688450000000 1.0
C      1  0.4552970000000  0.5805010000000  0.4594680000000 1.0
C      1  0.5905030000000  0.4911560000000  0.5307060000000 1.0
C      1  0.4424950000000  0.4273370000000  0.5345880000000 1.0
C      1  0.4591430000000  0.5882390000000  0.5456250000000 1.0
C      1  0.4409530000000  0.4946200000000  0.4817930000000 1.0
C      1  0.5196840000000  0.5514630000000  0.4871080000000 1.0
C      1  0.5398420000000  0.4499910000000  0.4811600000000 1.0
C      1  0.4357150000000  0.4952790000000  0.5141000000000 1.0
C      1  0.5319960000000  0.5516200000000  0.5179290000000 1.0
C      1  0.5381020000000  0.4491380000000  0.5125760000000 1.0
C      1  0.4875520000000  0.5515670000000  0.4883170000000 1.0
C      1  0.5396430000000  0.4798550000000  0.4665920000000 1.0
C      1  0.4679090000000  0.4779690000000  0.4727140000000 1.0
C      1  0.5051830000000  0.5344520000000  0.5298700000000 1.0
C      1  0.5355740000000  0.4795680000000  0.5265320000000 1.0
C      1  0.4611690000000  0.4809910000000  0.5287700000000 1.0
C      1  0.5076000000000  0.5296890000000  0.5634480000000 1.0
C      1  0.5246170000000  0.4767000000000  0.5586210000000 1.0
C      1  0.4672540000000  0.4897020000000  0.5610840000000 1.0
C      1  0.5054920000000  0.5306090000000  0.4320930000000 1.0
C      1  0.5360390000000  0.4712550000000  0.4335690000000 1.0
C      1  0.4720740000000  0.4902250000000  0.4412500000000 1.0
C      1  0.5683350000000  0.4507340000000  0.4641430000000 1.0
C      1  0.4309110000000  0.4709440000000  0.4592590000000 1.0
C      1  0.5100910000000  0.5715510000000  0.4623190000000 1.0
C      1  0.5602370000000  0.4465570000000  0.5375440000000 1.0
C      1  0.4228880000000  0.4754350000000  0.5385110000000 1.0
C      1  0.5139680000000  0.5735620000000  0.5342300000000 1.0
C      1  0.5087810000000  0.4471010000000  0.4696820000000 1.0
C      1  0.4457410000000  0.5244500000000  0.4696650000000 1.0
C      1  0.5377110000000  0.5281780000000  0.4713780000000 1.0
C      1  0.4907250000000  0.4501380000000  0.5254680000000 1.0
C      1  0.4612900000000  0.5368570000000  0.5232960000000 1.0
C      1  0.5423190000000  0.5207300000000  0.5249830000000 1.0
C      1  0.4833690000000  0.4453920000000  0.5543170000000 1.0
C      1  0.4609890000000  0.5405350000000  0.5536170000000 1.0
C      1  0.5533420000000  0.5153010000000  0.5502720000000 1.0
C      1  0.4969150000000  0.4421790000000  0.4430890000000 1.0
C      1  0.4510670000000  0.5355350000000  0.4420610000000 1.0
C      1  0.5509570000000  0.5192060000000  0.4447160000000 1.0
C      1  0.4605140000000  0.5159800000000  0.4247180000000 1.0
C      1  0.5325420000000  0.5191930000000  0.4241280000000 1.0
C      1  0.5085020000000  0.4595150000000  0.4249650000000 1.0
C      1  0.4639920000000  0.5203830000000  0.5719160000000 1.0
C      1  0.5362250000000  0.5194810000000  0.5721920000000 1.0
C      1  0.4992890000000  0.4586790000000  0.5724520000000 1.0
C      1  0.4937130000000  0.5115520000000  0.4565290000000 1.0
C      1  0.4991000000000  0.4984690000000  0.5529750000000 1.0
END
