TITL C-3289332-8317-655 -0.000639247212368862 125000 -549.661907147484 0 0 108 (C1) n - 1
REM
REM in /nfs/bkarasulu/CARBON/AIRSS/Generating-Clusters/AIREBO/with-SteepDescent/Higher-Symm/SD-CG/HFTN-CG
REM
REM
REM
REM
REM
REM ./C.cell (b20cbc046b6831c77cfcea5457e17084)
REM
REM compiler GCC version 9.2.1 20190827 (Red Hat 9.2.1-1)
REM options -cpp -mtune=generic -march=x86-64 -g -O0 -fpre-include=/usr/include/finclude/math-vector-fortran.h
REM seed -52127945 -1667550703 677627523 -1123714376 -1222013788 1854377066 -667635664 608182500 -1789802137 -1049375093 -743146565 749801038 -103341591 70291401 -355593860 145497381 529144488 29901181 1984489490 -1343129803 -1527521179 281227438 -180271259 -745766369 -467622274 1284768980 84043767 882764822 120194802 -1097265352 -948226990 712224370 -570095462
REM
CELL 1.54180   50.00000   50.00000   50.00000   90.00000   90.00000   90.00000
LATT -1
SFAC C  
C      1  0.5044620000000  0.5828430000000  0.4815610000000 1.0
C      1  0.5002150000000  0.5657530000000  0.5575180000000 1.0
C      1  0.4965730000000  0.4958440000000  0.5871390000000 1.0
C      1  0.4958330000000  0.4309970000000  0.5499130000000 1.0
C      1  0.4985060000000  0.4117190000000  0.4819480000000 1.0
C      1  0.5016460000000  0.4648470000000  0.4252950000000 1.0
C      1  0.4918880000000  0.5439480000000  0.4157730000000 1.0
C      1  0.4583810000000  0.4939580000000  0.4172320000000 1.0
C      1  0.4587810000000  0.5694330000000  0.4577520000000 1.0
C      1  0.4603660000000  0.5853130000000  0.5195980000000 1.0
C      1  0.4513260000000  0.5343950000000  0.5782110000000 1.0
C      1  0.4534590000000  0.4603510000000  0.5816630000000 1.0
C      1  0.4544140000000  0.4171930000000  0.5219780000000 1.0
C      1  0.4581510000000  0.4284860000000  0.4483040000000 1.0
C      1  0.4240280000000  0.5087540000000  0.5650020000000 1.0
C      1  0.4154330000000  0.4549730000000  0.5458190000000 1.0
C      1  0.4165650000000  0.4321350000000  0.4915790000000 1.0
C      1  0.4187200000000  0.4624600000000  0.4489630000000 1.0
C      1  0.4194220000000  0.5204930000000  0.4396950000000 1.0
C      1  0.4329690000000  0.5654990000000  0.4765930000000 1.0
C      1  0.4166770000000  0.5582840000000  0.5319110000000 1.0
C      1  0.5491940000000  0.5367100000000  0.4927660000000 1.0
C      1  0.5419490000000  0.5178670000000  0.5201540000000 1.0
C      1  0.5511480000000  0.4872120000000  0.5321300000000 1.0
C      1  0.5526940000000  0.4630180000000  0.5079830000000 1.0
C      1  0.5615810000000  0.4703400000000  0.4775100000000 1.0
C      1  0.5435220000000  0.4960800000000  0.4645380000000 1.0
C      1  0.5626670000000  0.5241900000000  0.4641360000000 1.0
C      1  0.5099760000000  0.5792290000000  0.5116030000000 1.0
C      1  0.4989630000000  0.5411260000000  0.5759910000000 1.0
C      1  0.5022840000000  0.4671680000000  0.5778410000000 1.0
C      1  0.5006050000000  0.4292950000000  0.5181860000000 1.0
C      1  0.5046190000000  0.4266300000000  0.4556660000000 1.0
C      1  0.5020550000000  0.4933640000000  0.4170540000000 1.0
C      1  0.5040890000000  0.5635070000000  0.4360150000000 1.0
C      1  0.5533300000000  0.5564170000000  0.4577370000000 1.0
C      1  0.5545970000000  0.5598020000000  0.5364310000000 1.0
C      1  0.5578080000000  0.5139960000000  0.5763070000000 1.0
C      1  0.5609540000000  0.4668510000000  0.5575370000000 1.0
C      1  0.5566210000000  0.4326460000000  0.5138770000000 1.0
C      1  0.5519050000000  0.4538620000000  0.4493410000000 1.0
C      1  0.5637590000000  0.5134740000000  0.4143420000000 1.0
C      1  0.5286190000000  0.5309420000000  0.5814600000000 1.0
C      1  0.5351510000000  0.4638920000000  0.5760840000000 1.0
C      1  0.5327020000000  0.4216690000000  0.5264170000000 1.0
C      1  0.5352560000000  0.4302770000000  0.4577190000000 1.0
C      1  0.5345260000000  0.5035010000000  0.4150930000000 1.0
C      1  0.5342550000000  0.5570800000000  0.4357560000000 1.0
C      1  0.5422570000000  0.5753910000000  0.5155420000000 1.0
C      1  0.4565860000000  0.4721980000000  0.4419340000000 1.0
C      1  0.4682690000000  0.5282220000000  0.4519410000000 1.0
C      1  0.4597740000000  0.5497560000000  0.5013850000000 1.0
C      1  0.4624150000000  0.5398250000000  0.5402290000000 1.0
C      1  0.4591940000000  0.4913930000000  0.5576250000000 1.0
C      1  0.4533650000000  0.4472900000000  0.5361670000000 1.0
C      1  0.4645620000000  0.4457870000000  0.4835500000000 1.0
C      1  0.5786320000000  0.5323780000000  0.5065320000000 1.0
C      1  0.5735540000000  0.5382040000000  0.5337370000000 1.0
C      1  0.5699810000000  0.5106910000000  0.5486080000000 1.0
C      1  0.5864070000000  0.4818310000000  0.5501980000000 1.0
C      1  0.5826440000000  0.4681490000000  0.4519910000000 1.0
C      1  0.5938740000000  0.4908330000000  0.4428520000000 1.0
C      1  0.5778660000000  0.5138360000000  0.4378660000000 1.0
C      1  0.4449900000000  0.5187630000000  0.5216800000000 1.0
C      1  0.4426390000000  0.4944450000000  0.5318230000000 1.0
C      1  0.4415490000000  0.4709610000000  0.5185180000000 1.0
C      1  0.4472810000000  0.4700210000000  0.4921060000000 1.0
C      1  0.4454870000000  0.4854550000000  0.4697190000000 1.0
C      1  0.4497890000000  0.5118320000000  0.4720190000000 1.0
C      1  0.4431290000000  0.5257930000000  0.4941910000000 1.0
C      1  0.4943340000000  0.4685910000000  0.5093690000000 1.0
C      1  0.4888140000000  0.4682650000000  0.4755580000000 1.0
C      1  0.4941400000000  0.5018210000000  0.4739100000000 1.0
C      1  0.4895640000000  0.5353810000000  0.4774810000000 1.0
C      1  0.4898620000000  0.5374980000000  0.5114340000000 1.0
C      1  0.4869730000000  0.5163930000000  0.5379610000000 1.0
C      1  0.4864960000000  0.4824140000000  0.5394340000000 1.0
C      1  0.5247380000000  0.4454110000000  0.5494980000000 1.0
C      1  0.5268170000000  0.4238570000000  0.4886910000000 1.0
C      1  0.5337050000000  0.4729180000000  0.4297990000000 1.0
C      1  0.5191140000000  0.5276360000000  0.4280150000000 1.0
C      1  0.5363590000000  0.5725290000000  0.4824130000000 1.0
C      1  0.5310580000000  0.5527030000000  0.5557240000000 1.0
C      1  0.5280690000000  0.4975530000000  0.5749920000000 1.0
C      1  0.4343540000000  0.5694720000000  0.5085180000000 1.0
C      1  0.4307670000000  0.5393480000000  0.5526610000000 1.0
C      1  0.4298260000000  0.4757740000000  0.5647010000000 1.0
C      1  0.4256950000000  0.4343890000000  0.5210820000000 1.0
C      1  0.4349040000000  0.4413100000000  0.4673720000000 1.0
C      1  0.4292900000000  0.4909840000000  0.4337750000000 1.0
C      1  0.4378970000000  0.5434860000000  0.4509200000000 1.0
C      1  0.4771580000000  0.4557030000000  0.5583370000000 1.0
C      1  0.4757310000000  0.4225990000000  0.5002890000000 1.0
C      1  0.4831520000000  0.4514620000000  0.4465350000000 1.0
C      1  0.4800770000000  0.5152340000000  0.4245880000000 1.0
C      1  0.4880840000000  0.5658240000000  0.4623980000000 1.0
C      1  0.4846030000000  0.5656290000000  0.5298190000000 1.0
C      1  0.4779010000000  0.5167200000000  0.5707440000000 1.0
C      1  0.5202250000000  0.4764710000000  0.5413720000000 1.0
C      1  0.5225980000000  0.4515710000000  0.5049070000000 1.0
C      1  0.5188970000000  0.4729840000000  0.4604080000000 1.0
C      1  0.5181190000000  0.5171990000000  0.4564880000000 1.0
C      1  0.5220370000000  0.5421360000000  0.4771320000000 1.0
C      1  0.5203200000000  0.5433530000000  0.5248410000000 1.0
C      1  0.5195250000000  0.5086290000000  0.5439940000000 1.0
C      1  0.5393410000000  0.4981490000000  0.4955530000000 1.0
C      1  0.5109030000000  0.4924120000000  0.4982350000000 1.0
C      1  0.5726340000000  0.5052050000000  0.4978570000000 1.0
END
