TITL C-3289333-7213-313 9.65333336556377e-05 125000 -456.317780037523 0 0 90 (C1) n - 1
REM
REM in /nfs/bkarasulu/CARBON/AIRSS/Generating-Clusters/AIREBO/with-SteepDescent/Higher-Symm/SD-CG/HFTN-CG
REM
REM
REM
REM
REM
REM ./C.cell (b20cbc046b6831c77cfcea5457e17084)
REM
REM compiler GCC version 9.2.1 20190827 (Red Hat 9.2.1-1)
REM options -cpp -mtune=generic -march=x86-64 -g -O0 -fpre-include=/usr/include/finclude/math-vector-fortran.h
REM seed -1523332907 1962398568 28462182 -490505792 664695977 1525831206 596195703 -1893448432 -374858563 324930632 -42001914 942597995 1001226667 664163225 998826142 127695324 1365191059 1182329433 2057415660 1156512942 -1852804629 695376938 -1843326777 -1121440047 -1993408493 933060389 -1367329295 517679514 110947013 -1247059168 -1739301017 -170961907 491763471
REM
CELL 1.54180   50.00000   50.00000   50.00000   90.00000   90.00000   90.00000
LATT -1
SFAC C  
C      1  0.5575450000000  0.5125500000000  0.4656280000000 1.0
C      1  0.4646860000000  0.5477300000000  0.4661060000000 1.0
C      1  0.4937770000000  0.4525750000000  0.4574750000000 1.0
C      1  0.4647170000000  0.4900870000000  0.5129650000000 1.0
C      1  0.5248470000000  0.4780640000000  0.5105510000000 1.0
C      1  0.5088640000000  0.5355400000000  0.5124930000000 1.0
C      1  0.5213760000000  0.5349440000000  0.5646180000000 1.0
C      1  0.4576650000000  0.4960360000000  0.5647920000000 1.0
C      1  0.5249380000000  0.4615250000000  0.5627180000000 1.0
C      1  0.5325430000000  0.5006660000000  0.4853770000000 1.0
C      1  0.4870710000000  0.5332270000000  0.4872050000000 1.0
C      1  0.4849780000000  0.4730680000000  0.4830310000000 1.0
C      1  0.5318290000000  0.5264750000000  0.4482720000000 1.0
C      1  0.4683670000000  0.5190310000000  0.4504030000000 1.0
C      1  0.4747510000000  0.4506740000000  0.4334640000000 1.0
C      1  0.5606160000000  0.5291090000000  0.5602490000000 1.0
C      1  0.4442320000000  0.5333280000000  0.5600680000000 1.0
C      1  0.4991280000000  0.4313160000000  0.5582950000000 1.0
C      1  0.4406980000000  0.5587400000000  0.4499590000000 1.0
C      1  0.4788170000000  0.4339690000000  0.4797980000000 1.0
C      1  0.5803400000000  0.5259260000000  0.4493600000000 1.0
C      1  0.5487630000000  0.4545740000000  0.5420240000000 1.0
C      1  0.5160800000000  0.5612600000000  0.5466330000000 1.0
C      1  0.4393410000000  0.4804170000000  0.5429140000000 1.0
C      1  0.4710910000000  0.4690350000000  0.5389030000000 1.0
C      1  0.5421720000000  0.4877130000000  0.5381850000000 1.0
C      1  0.4902140000000  0.5400230000000  0.5406000000000 1.0
C      1  0.4358310000000  0.4809980000000  0.4377610000000 1.0
C      1  0.5399490000000  0.4747350000000  0.4402520000000 1.0
C      1  0.5074210000000  0.5567370000000  0.4390980000000 1.0
C      1  0.5625770000000  0.4830520000000  0.4548440000000 1.0
C      1  0.4861370000000  0.5683160000000  0.4545000000000 1.0
C      1  0.4477100000000  0.4504960000000  0.4423330000000 1.0
C      1  0.4434720000000  0.5017160000000  0.4607930000000 1.0
C      1  0.5258840000000  0.4529300000000  0.4585450000000 1.0
C      1  0.5305520000000  0.5553530000000  0.4624760000000 1.0
C      1  0.5370050000000  0.5742510000000  0.5165910000000 1.0
C      1  0.4200130000000  0.4920410000000  0.5117270000000 1.0
C      1  0.5472970000000  0.4310780000000  0.5111570000000 1.0
C      1  0.5550810000000  0.5580190000000  0.4827620000000 1.0
C      1  0.4273250000000  0.5204050000000  0.4812080000000 1.0
C      1  0.5195540000000  0.4248520000000  0.4751920000000 1.0
C      1  0.5309410000000  0.4854490000000  0.5779880000000 1.0
C      1  0.4966980000000  0.5287500000000  0.5794120000000 1.0
C      1  0.4756350000000  0.4775540000000  0.5786840000000 1.0
C      1  0.5049000000000  0.4670190000000  0.5357960000000 1.0
C      1  0.5256260000000  0.5173410000000  0.5358290000000 1.0
C      1  0.4732440000000  0.5106320000000  0.5383220000000 1.0
C      1  0.4703690000000  0.5379710000000  0.5671320000000 1.0
C      1  0.4820890000000  0.4515110000000  0.5645940000000 1.0
C      1  0.5499100000000  0.5047200000000  0.5648990000000 1.0
C      1  0.5553650000000  0.5237530000000  0.5206190000000 1.0
C      1  0.4558020000000  0.5342590000000  0.5211760000000 1.0
C      1  0.4957300000000  0.4392050000000  0.5185140000000 1.0
C      1  0.4304590000000  0.4589890000000  0.4666870000000 1.0
C      1  0.5690720000000  0.4646760000000  0.4739890000000 1.0
C      1  0.4961770000000  0.5832240000000  0.4757520000000 1.0
C      1  0.4751480000000  0.4677820000000  0.4106250000000 1.0
C      1  0.5395000000000  0.5237260000000  0.4159640000000 1.0
C      1  0.4693240000000  0.5122110000000  0.4195470000000 1.0
C      1  0.5162110000000  0.5621190000000  0.4925680000000 1.0
C      1  0.4426260000000  0.4819280000000  0.4884290000000 1.0
C      1  0.5399760000000  0.4561500000000  0.4893810000000 1.0
C      1  0.5017800000000  0.5749130000000  0.5205840000000 1.0
C      1  0.4374780000000  0.4612230000000  0.5149120000000 1.0
C      1  0.5630820000000  0.4626910000000  0.5134620000000 1.0
C      1  0.4763420000000  0.5579900000000  0.5078930000000 1.0
C      1  0.4679270000000  0.4515210000000  0.5032880000000 1.0
C      1  0.5605110000000  0.4946320000000  0.5037510000000 1.0
C      1  0.4552600000000  0.4881920000000  0.4148930000000 1.0
C      1  0.5322060000000  0.4928870000000  0.4217920000000 1.0
C      1  0.5122970000000  0.5410500000000  0.4165770000000 1.0
C      1  0.5240300000000  0.4319950000000  0.5359350000000 1.0
C      1  0.5474440000000  0.5507180000000  0.5388020000000 1.0
C      1  0.4334720000000  0.5129950000000  0.5350240000000 1.0
C      1  0.4445380000000  0.5398870000000  0.4920600000000 1.0
C      1  0.5112730000000  0.4197600000000  0.4981720000000 1.0
C      1  0.5631130000000  0.5326290000000  0.4915570000000 1.0
C      1  0.5022560000000  0.4952670000000  0.6422370000000 1.0
C      1  0.5015000000000  0.4977540000000  0.5496270000000 1.0
C      1  0.4955170000000  0.4951110000000  0.5089470000000 1.0
C      1  0.5280180000000  0.4630350000000  0.3571730000000 1.0
C      1  0.5027020000000  0.5085090000000  0.4142260000000 1.0
C      1  0.4971230000000  0.4797970000000  0.3973680000000 1.0
C      1  0.5011930000000  0.4969510000000  0.5836330000000 1.0
C      1  0.4996170000000  0.5032220000000  0.4772700000000 1.0
C      1  0.5136710000000  0.4706550000000  0.3777410000000 1.0
C      1  0.5021910000000  0.5132420000000  0.4478970000000 1.0
C      1  0.5027380000000  0.4945140000000  0.6684250000000 1.0
C      1  0.5017730000000  0.4960250000000  0.6158700000000 1.0
END
