TITL C-3289335-9438-419 214.589933731604 125000 -952.997850352145 0 0 176 (C1) n - 1
REM
REM in /nfs/bkarasulu/CARBON/AIRSS/Generating-Clusters/AIREBO/with-SteepDescent/Higher-Symm/SD-CG/HFTN-CG
REM
REM
REM
REM
REM
REM ./C.cell (b20cbc046b6831c77cfcea5457e17084)
REM
REM compiler GCC version 9.2.1 20190827 (Red Hat 9.2.1-1)
REM options -cpp -mtune=generic -march=x86-64 -g -O0 -fpre-include=/usr/include/finclude/math-vector-fortran.h
REM seed -1925070356 1975105329 -175907983 -716136614 1965042854 1574067665 -2074780424 634969324 -1275346409 1551070814 1472921765 -1008986912 -687496098 -627345352 -965831055 1043932663 1082735876 1088338211 -397892685 -1440884745 593756747 2108402481 -889850473 -1173971936 564408056 -171310623 456823661 670909000 -1311956213 -1953241798 -181815915 -43522166 -1509999050
REM
CELL 1.54180   50.00000   50.00000   50.00000   90.00000   90.00000   90.00000
LATT -1
SFAC C  
C      1  0.4048670000000  0.5390330000000  0.4539670000000 1.0
C      1  0.4959990000000  0.5888010000000  0.4447970000000 1.0
C      1  0.5988360000000  0.5284600000000  0.4444360000000 1.0
C      1  0.5555960000000  0.4314350000000  0.4492010000000 1.0
C      1  0.4374960000000  0.4279710000000  0.4602050000000 1.0
C      1  0.4091840000000  0.5366870000000  0.5447210000000 1.0
C      1  0.4912210000000  0.5820430000000  0.5477610000000 1.0
C      1  0.5908830000000  0.5169770000000  0.5546120000000 1.0
C      1  0.5554440000000  0.4189180000000  0.5489060000000 1.0
C      1  0.4388170000000  0.4298900000000  0.5513880000000 1.0
C      1  0.5380320000000  0.5046840000000  0.4239060000000 1.0
C      1  0.5139880000000  0.4819970000000  0.4203340000000 1.0
C      1  0.4838610000000  0.4816750000000  0.4316250000000 1.0
C      1  0.4752930000000  0.5124060000000  0.4288620000000 1.0
C      1  0.5080350000000  0.5207490000000  0.4249850000000 1.0
C      1  0.5444400000000  0.5056660000000  0.5665540000000 1.0
C      1  0.5200460000000  0.4820850000000  0.5689170000000 1.0
C      1  0.4886410000000  0.4710620000000  0.5585330000000 1.0
C      1  0.4747530000000  0.5013570000000  0.5630750000000 1.0
C      1  0.4961980000000  0.5194080000000  0.5782260000000 1.0
C      1  0.4769570000000  0.4957780000000  0.6038300000000 1.0
C      1  0.4893860000000  0.5260490000000  0.6108680000000 1.0
C      1  0.5206530000000  0.5200530000000  0.6113130000000 1.0
C      1  0.5255470000000  0.4930400000000  0.6081480000000 1.0
C      1  0.5014830000000  0.4784830000000  0.5971990000000 1.0
C      1  0.4731610000000  0.5025450000000  0.3901930000000 1.0
C      1  0.4877290000000  0.5278480000000  0.3876580000000 1.0
C      1  0.5187480000000  0.5215400000000  0.3933370000000 1.0
C      1  0.5251850000000  0.4899050000000  0.3833090000000 1.0
C      1  0.4938740000000  0.4807630000000  0.3929450000000 1.0
C      1  0.4670870000000  0.5936950000000  0.4719910000000 1.0
C      1  0.5807060000000  0.5684460000000  0.4889470000000 1.0
C      1  0.5859710000000  0.4370060000000  0.4764080000000 1.0
C      1  0.4671700000000  0.3958270000000  0.4795550000000 1.0
C      1  0.3918360000000  0.4987610000000  0.4713570000000 1.0
C      1  0.4628590000000  0.5902920000000  0.5195880000000 1.0
C      1  0.5853610000000  0.5589700000000  0.5359970000000 1.0
C      1  0.5859390000000  0.4251010000000  0.5351970000000 1.0
C      1  0.4730660000000  0.4060560000000  0.5203810000000 1.0
C      1  0.4041450000000  0.5054830000000  0.5206850000000 1.0
C      1  0.5225160000000  0.5119270000000  0.5254920000000 1.0
C      1  0.5234620000000  0.4826170000000  0.5350890000000 1.0
C      1  0.4903750000000  0.4857210000000  0.5278970000000 1.0
C      1  0.4846140000000  0.5185940000000  0.5354730000000 1.0
C      1  0.5118680000000  0.5319970000000  0.5508010000000 1.0
C      1  0.5236080000000  0.5049490000000  0.4718410000000 1.0
C      1  0.5176480000000  0.4777490000000  0.4523170000000 1.0
C      1  0.4884390000000  0.4791980000000  0.4644260000000 1.0
C      1  0.4819400000000  0.5092500000000  0.4778770000000 1.0
C      1  0.5016150000000  0.5258650000000  0.4556700000000 1.0
C      1  0.4232260000000  0.4364830000000  0.5219000000000 1.0
C      1  0.4085600000000  0.5470400000000  0.5123310000000 1.0
C      1  0.5097830000000  0.5780390000000  0.5195130000000 1.0
C      1  0.5942780000000  0.5046080000000  0.5245630000000 1.0
C      1  0.5355000000000  0.4183620000000  0.5241330000000 1.0
C      1  0.4346030000000  0.4366430000000  0.4928360000000 1.0
C      1  0.4178250000000  0.5354670000000  0.4848940000000 1.0
C      1  0.5111460000000  0.5758190000000  0.4723320000000 1.0
C      1  0.5951600000000  0.5163910000000  0.4740990000000 1.0
C      1  0.5361220000000  0.4267660000000  0.4762950000000 1.0
C      1  0.4576490000000  0.4093150000000  0.4545420000000 1.0
C      1  0.3990130000000  0.5122990000000  0.4467400000000 1.0
C      1  0.4630320000000  0.5957400000000  0.4416930000000 1.0
C      1  0.5836930000000  0.5498700000000  0.4345470000000 1.0
C      1  0.5774860000000  0.4564530000000  0.4512890000000 1.0
C      1  0.4653170000000  0.4119780000000  0.5505420000000 1.0
C      1  0.3977510000000  0.5053930000000  0.5515380000000 1.0
C      1  0.4580290000000  0.5884640000000  0.5490350000000 1.0
C      1  0.5769230000000  0.5403820000000  0.5571590000000 1.0
C      1  0.5707170000000  0.4463340000000  0.5570020000000 1.0
C      1  0.4226290000000  0.5023920000000  0.4854200000000 1.0
C      1  0.4828510000000  0.5714870000000  0.4807040000000 1.0
C      1  0.5761390000000  0.5366730000000  0.4884130000000 1.0
C      1  0.5556780000000  0.4498190000000  0.4846550000000 1.0
C      1  0.4657250000000  0.4286100000000  0.4884930000000 1.0
C      1  0.4338170000000  0.5139710000000  0.5153670000000 1.0
C      1  0.4817590000000  0.5694140000000  0.5110120000000 1.0
C      1  0.5755180000000  0.5316910000000  0.5182370000000 1.0
C      1  0.5549940000000  0.4415350000000  0.5162220000000 1.0
C      1  0.4630420000000  0.4385870000000  0.5208790000000 1.0
C      1  0.4434470000000  0.5030880000000  0.4067190000000 1.0
C      1  0.4721140000000  0.5533420000000  0.3971060000000 1.0
C      1  0.5385090000000  0.5425880000000  0.4116330000000 1.0
C      1  0.5416870000000  0.4679670000000  0.3951350000000 1.0
C      1  0.4959240000000  0.4504170000000  0.4039310000000 1.0
C      1  0.4492240000000  0.4995580000000  0.5969160000000 1.0
C      1  0.4623380000000  0.5412460000000  0.6022940000000 1.0
C      1  0.5407730000000  0.5423490000000  0.5955060000000 1.0
C      1  0.5518070000000  0.4795530000000  0.5977960000000 1.0
C      1  0.4962780000000  0.4483660000000  0.6017720000000 1.0
C      1  0.4349120000000  0.4490240000000  0.4427450000000 1.0
C      1  0.4143630000000  0.5597730000000  0.4391390000000 1.0
C      1  0.5255080000000  0.5990140000000  0.4434580000000 1.0
C      1  0.5928430000000  0.5008040000000  0.4373510000000 1.0
C      1  0.5329430000000  0.4113250000000  0.4397300000000 1.0
C      1  0.4191380000000  0.4533430000000  0.5658770000000 1.0
C      1  0.4116410000000  0.5655280000000  0.5616980000000 1.0
C      1  0.5235820000000  0.5881310000000  0.5552360000000 1.0
C      1  0.5953770000000  0.4871610000000  0.5604500000000 1.0
C      1  0.5282220000000  0.4121800000000  0.5642130000000 1.0
C      1  0.4833660000000  0.4561150000000  0.4803700000000 1.0
C      1  0.4548320000000  0.4922710000000  0.4895510000000 1.0
C      1  0.4712520000000  0.5406690000000  0.4852940000000 1.0
C      1  0.5469520000000  0.5283740000000  0.4754890000000 1.0
C      1  0.5403460000000  0.4784210000000  0.4851820000000 1.0
C      1  0.4890840000000  0.4563250000000  0.5122370000000 1.0
C      1  0.4574210000000  0.4900720000000  0.5207400000000 1.0
C      1  0.4726340000000  0.5399070000000  0.5181020000000 1.0
C      1  0.5451670000000  0.5321070000000  0.5222610000000 1.0
C      1  0.5430100000000  0.4705730000000  0.5167250000000 1.0
C      1  0.4103120000000  0.4660350000000  0.5198250000000 1.0
C      1  0.4158070000000  0.5781470000000  0.5084730000000 1.0
C      1  0.5395040000000  0.5945450000000  0.5187800000000 1.0
C      1  0.6005070000000  0.4741050000000  0.5108240000000 1.0
C      1  0.5235660000000  0.3926540000000  0.5115020000000 1.0
C      1  0.4075840000000  0.4651200000000  0.4853790000000 1.0
C      1  0.4284470000000  0.5852720000000  0.4773530000000 1.0
C      1  0.5362200000000  0.5952250000000  0.4822800000000 1.0
C      1  0.6051990000000  0.4856980000000  0.4818530000000 1.0
C      1  0.5211310000000  0.3963570000000  0.4789460000000 1.0
C      1  0.5411850000000  0.5667990000000  0.5413190000000 1.0
C      1  0.5951000000000  0.4623610000000  0.5422720000000 1.0
C      1  0.4986410000000  0.4183530000000  0.5483000000000 1.0
C      1  0.4219940000000  0.4818600000000  0.5475750000000 1.0
C      1  0.4334190000000  0.5687750000000  0.5360110000000 1.0
C      1  0.5472640000000  0.5762190000000  0.4556850000000 1.0
C      1  0.5992590000000  0.4772510000000  0.4540490000000 1.0
C      1  0.5045030000000  0.4146230000000  0.4555740000000 1.0
C      1  0.4170360000000  0.4726460000000  0.4533550000000 1.0
C      1  0.4429940000000  0.5698250000000  0.4508730000000 1.0
C      1  0.5579550000000  0.5130410000000  0.5968720000000 1.0
C      1  0.5322640000000  0.4536180000000  0.6073450000000 1.0
C      1  0.4687650000000  0.4408590000000  0.5904070000000 1.0
C      1  0.4396380000000  0.5240190000000  0.6106510000000 1.0
C      1  0.5106470000000  0.5494070000000  0.5865610000000 1.0
C      1  0.5577730000000  0.5180860000000  0.4004080000000 1.0
C      1  0.5241090000000  0.4456090000000  0.4082780000000 1.0
C      1  0.4781500000000  0.4427680000000  0.4244270000000 1.0
C      1  0.4549800000000  0.5319640000000  0.4098560000000 1.0
C      1  0.5196700000000  0.5650650000000  0.4231740000000 1.0
C      1  0.4604810000000  0.4528170000000  0.5641020000000 1.0
C      1  0.4401180000000  0.5327500000000  0.5584490000000 1.0
C      1  0.4895230000000  0.5551330000000  0.5618600000000 1.0
C      1  0.5647610000000  0.4881220000000  0.5456750000000 1.0
C      1  0.5297310000000  0.4336850000000  0.5866350000000 1.0
C      1  0.4580430000000  0.4634700000000  0.4368640000000 1.0
C      1  0.4483570000000  0.5171320000000  0.4454490000000 1.0
C      1  0.4966300000000  0.5550720000000  0.4415170000000 1.0
C      1  0.5622160000000  0.4925620000000  0.4438290000000 1.0
C      1  0.5304760000000  0.4512090000000  0.4396390000000 1.0
C      1  0.4460680000000  0.5397400000000  0.4664160000000 1.0
C      1  0.5354880000000  0.5555350000000  0.4799720000000 1.0
C      1  0.5654310000000  0.4998750000000  0.4770240000000 1.0
C      1  0.5052920000000  0.4322860000000  0.4848960000000 1.0
C      1  0.4395660000000  0.4669270000000  0.4781720000000 1.0
C      1  0.4447500000000  0.5395100000000  0.5272510000000 1.0
C      1  0.5321630000000  0.5569040000000  0.5100600000000 1.0
C      1  0.5657120000000  0.4935290000000  0.5119340000000 1.0
C      1  0.5057570000000  0.4289730000000  0.5187970000000 1.0
C      1  0.4483710000000  0.4646250000000  0.5347530000000 1.0
C      1  0.5431990000000  0.5395240000000  0.5617040000000 1.0
C      1  0.5510710000000  0.4665520000000  0.5681210000000 1.0
C      1  0.5024700000000  0.4418080000000  0.5689870000000 1.0
C      1  0.4432090000000  0.5013520000000  0.5657210000000 1.0
C      1  0.4618740000000  0.5476250000000  0.5744050000000 1.0
C      1  0.5579750000000  0.5590630000000  0.4326160000000 1.0
C      1  0.5568850000000  0.4644570000000  0.4253740000000 1.0
C      1  0.4799270000000  0.4187300000000  0.4397510000000 1.0
C      1  0.4242950000000  0.4984330000000  0.4344740000000 1.0
C      1  0.4681890000000  0.5643980000000  0.4286470000000 1.0
C      1  0.3898780000000  0.4863430000000  0.5017610000000 1.0
C      1  0.4424300000000  0.5966130000000  0.5033320000000 1.0
C      1  0.5875220000000  0.4436240000000  0.5079380000000 1.0
C      1  0.4931390000000  0.3966170000000  0.4983180000000 1.0
C      1  0.5635860000000  0.5872440000000  0.4975920000000 1.0
C      1  0.5067130000000  0.5103740000000  0.5007450000000 1.0
END
