TITL C-3289330-4660-512 2.53316685677896e-07 125000 -70.1070437864235 0 0 15 (C2v) n - 1
REM
REM in /nfs/bkarasulu/CARBON/AIRSS/Generating-Clusters/AIREBO/with-SteepDescent/Higher-Symm/SD-CG/HFTN-CG
REM
REM
REM
REM
REM
REM ./C.cell (b20cbc046b6831c77cfcea5457e17084)
REM
REM compiler GCC version 9.2.1 20190827 (Red Hat 9.2.1-1)
REM options -cpp -mtune=generic -march=x86-64 -g -O0 -fpre-include=/usr/include/finclude/math-vector-fortran.h
REM seed 986595075 -1187484026 1837481081 -445041351 -1427205378 1437894408 -1918421975 334876590 -1014915514 517592937 1539569418 -945205264 -79462663 -458718792 -699408536 619800317 1021108106 -350887306 -324074318 119236087 -1353192681 1186588519 2056760481 769233312 706323047 -565228391 -801441683 1811303867 -561337075 1204314100 -791057074 1302422899 -1581421226
REM
CELL 1.54180   50.00000   50.00000   50.00000   90.00000   90.00000   90.00000
LATT -1
SFAC C  
C      1  0.4951320000000  0.5561710000000  0.4569680000000 1.0
C      1  0.5073850000000  0.4592030000000  0.4319450000000 1.0
C      1  0.4949340000000  0.5565600000000  0.5411750000000 1.0
C      1  0.5070680000000  0.4598280000000  0.5671490000000 1.0
C      1  0.5080830000000  0.5414320000000  0.4315670000000 1.0
C      1  0.4941880000000  0.4449200000000  0.4574790000000 1.0
C      1  0.5077650000000  0.5420560000000  0.5667710000000 1.0
C      1  0.4939900000000  0.4453090000000  0.5416870000000 1.0
C      1  0.5002140000000  0.4772750000000  0.5404940000000 1.0
C      1  0.5006150000000  0.5244830000000  0.5402770000000 1.0
C      1  0.5004070000000  0.4768960000000  0.4584060000000 1.0
C      1  0.5008070000000  0.5241040000000  0.4581890000000 1.0
C      1  0.5001700000000  0.5005650000000  0.4716310000000 1.0
C      1  0.5000400000000  0.5008210000000  0.5270500000000 1.0
C      1  0.4987260000000  0.5007050000000  0.4993370000000 1.0
END
