TITL C-3289324-3781-363 0.00299970162142137 125000 -899.160106761384 0 0 162 (C1) n - 1
REM
REM in /nfs/bkarasulu/CARBON/AIRSS/Generating-Clusters/AIREBO/with-SteepDescent/Higher-Symm/SD-CG/HFTN-CG
REM
REM
REM
REM
REM
REM ./C.cell (b20cbc046b6831c77cfcea5457e17084)
REM
REM compiler GCC version 9.2.1 20190827 (Red Hat 9.2.1-1)
REM options -cpp -mtune=generic -march=x86-64 -g -O0 -fpre-include=/usr/include/finclude/math-vector-fortran.h
REM seed 1004172563 1385617935 1902541358 -218447472 -446581021 -1560736091 684402636 -1344581920 1226176124 1931860919 1915693841 2072176197 -964269553 63663830 2002587405 -1104288231 -642146912 -21142277 -935048314 261715148 -1355488441 503499793 -1543640686 1023646118 -45448488 964216320 1083319703 -141465055 -1969119400 -1425751875 -1471629756 1748073475 1900926078
REM
CELL 1.54180   50.00000   50.00000   50.00000   90.00000   90.00000   90.00000
LATT -1
SFAC C  
C      1  0.3959510000000  0.5169700000000  0.4927390000000 1.0
C      1  0.3907160000000  0.4839150000000  0.4912950000000 1.0
C      1  0.3965290000000  0.4999310000000  0.5208260000000 1.0
C      1  0.4895670000000  0.5399530000000  0.5003690000000 1.0
C      1  0.4898800000000  0.4791750000000  0.4751890000000 1.0
C      1  0.4862930000000  0.4724320000000  0.5288780000000 1.0
C      1  0.5307420000000  0.5672320000000  0.4332920000000 1.0
C      1  0.5370170000000  0.4151570000000  0.4619170000000 1.0
C      1  0.5305290000000  0.5171250000000  0.5905060000000 1.0
C      1  0.5477100000000  0.4725560000000  0.4813740000000 1.0
C      1  0.5488280000000  0.4943410000000  0.5345470000000 1.0
C      1  0.5626500000000  0.5219090000000  0.4883740000000 1.0
C      1  0.4584290000000  0.5103200000000  0.4561040000000 1.0
C      1  0.4676370000000  0.4390550000000  0.5076220000000 1.0
C      1  0.4562890000000  0.5502480000000  0.5473200000000 1.0
C      1  0.4794660000000  0.3973140000000  0.4526940000000 1.0
C      1  0.4831390000000  0.5249280000000  0.6067290000000 1.0
C      1  0.4803040000000  0.5849170000000  0.4310750000000 1.0
C      1  0.5500490000000  0.5925510000000  0.5023600000000 1.0
C      1  0.5512340000000  0.4565790000000  0.4149530000000 1.0
C      1  0.5542480000000  0.4527290000000  0.5806350000000 1.0
C      1  0.5175970000000  0.5635440000000  0.4719110000000 1.0
C      1  0.5085820000000  0.4466840000000  0.4512930000000 1.0
C      1  0.4989600000000  0.4861070000000  0.5719660000000 1.0
C      1  0.5406660000000  0.5419210000000  0.4458880000000 1.0
C      1  0.5513220000000  0.4225660000000  0.4908680000000 1.0
C      1  0.5380950000000  0.5368740000000  0.5634670000000 1.0
C      1  0.5768020000000  0.4627960000000  0.5221740000000 1.0
C      1  0.5752210000000  0.5378580000000  0.5228140000000 1.0
C      1  0.5811790000000  0.4981220000000  0.4502400000000 1.0
C      1  0.5903490000000  0.4654630000000  0.4525930000000 1.0
C      1  0.5788790000000  0.4852630000000  0.5476150000000 1.0
C      1  0.5844750000000  0.5507640000000  0.4933280000000 1.0
C      1  0.5224130000000  0.4128840000000  0.4353010000000 1.0
C      1  0.5227980000000  0.4882130000000  0.6038870000000 1.0
C      1  0.5217790000000  0.5903380000000  0.4528330000000 1.0
C      1  0.5752670000000  0.4394220000000  0.4735820000000 1.0
C      1  0.5640700000000  0.5150550000000  0.5695140000000 1.0
C      1  0.5666210000000  0.5474360000000  0.4581760000000 1.0
C      1  0.5856170000000  0.4377260000000  0.5039300000000 1.0
C      1  0.5769380000000  0.5399250000000  0.5555330000000 1.0
C      1  0.5777170000000  0.5294980000000  0.4373750000000 1.0
C      1  0.4451340000000  0.5451370000000  0.4946220000000 1.0
C      1  0.4527710000000  0.4726820000000  0.4438560000000 1.0
C      1  0.4404420000000  0.4852780000000  0.5434410000000 1.0
C      1  0.4035960000000  0.4548230000000  0.5467970000000 1.0
C      1  0.4022340000000  0.5701760000000  0.5128090000000 1.0
C      1  0.3963160000000  0.4693650000000  0.4398870000000 1.0
C      1  0.5318080000000  0.4362830000000  0.5094540000000 1.0
C      1  0.5168880000000  0.5495760000000  0.5436770000000 1.0
C      1  0.5288890000000  0.5100880000000  0.4479540000000 1.0
C      1  0.5616590000000  0.5517220000000  0.5829710000000 1.0
C      1  0.5662220000000  0.5376780000000  0.4118150000000 1.0
C      1  0.5771540000000  0.4087090000000  0.5083200000000 1.0
C      1  0.4784800000000  0.4130610000000  0.4797090000000 1.0
C      1  0.4805950000000  0.5513800000000  0.5979300000000 1.0
C      1  0.4841580000000  0.5534690000000  0.4340590000000 1.0
C      1  0.4414460000000  0.5084560000000  0.5799450000000 1.0
C      1  0.4435440000000  0.5653310000000  0.4547460000000 1.0
C      1  0.4194770000000  0.4221110000000  0.4465310000000 1.0
C      1  0.4816030000000  0.5009210000000  0.5468620000000 1.0
C      1  0.4893450000000  0.5455630000000  0.4668120000000 1.0
C      1  0.4846020000000  0.4457020000000  0.4723760000000 1.0
C      1  0.4787200000000  0.3908360000000  0.5347390000000 1.0
C      1  0.4867090000000  0.5788790000000  0.5696600000000 1.0
C      1  0.4847310000000  0.5200950000000  0.4117180000000 1.0
C      1  0.4643520000000  0.5224160000000  0.5111580000000 1.0
C      1  0.4632180000000  0.4925630000000  0.4818500000000 1.0
C      1  0.4594100000000  0.4890110000000  0.5154610000000 1.0
C      1  0.4338830000000  0.4993720000000  0.4373370000000 1.0
C      1  0.4373410000000  0.4369550000000  0.5190210000000 1.0
C      1  0.4316520000000  0.5683550000000  0.5502960000000 1.0
C      1  0.5537260000000  0.4986160000000  0.4675790000000 1.0
C      1  0.5436710000000  0.4678380000000  0.5138810000000 1.0
C      1  0.5472530000000  0.5195160000000  0.5166780000000 1.0
C      1  0.5033470000000  0.4876520000000  0.4467740000000 1.0
C      1  0.4993080000000  0.4449290000000  0.5442010000000 1.0
C      1  0.4981130000000  0.5629500000000  0.5209060000000 1.0
C      1  0.5712250000000  0.4462580000000  0.5513630000000 1.0
C      1  0.5643550000000  0.5699490000000  0.5231700000000 1.0
C      1  0.5686770000000  0.4852340000000  0.4214540000000 1.0
C      1  0.5626630000000  0.4497690000000  0.4438740000000 1.0
C      1  0.5574710000000  0.4832310000000  0.5724170000000 1.0
C      1  0.5593750000000  0.5680890000000  0.4835390000000 1.0
C      1  0.4299690000000  0.5317470000000  0.4382210000000 1.0
C      1  0.4252240000000  0.4223180000000  0.4932930000000 1.0
C      1  0.4288740000000  0.5541810000000  0.5761600000000 1.0
C      1  0.4105740000000  0.4625540000000  0.5046680000000 1.0
C      1  0.4100570000000  0.5196250000000  0.5450460000000 1.0
C      1  0.4168550000000  0.5191850000000  0.4672110000000 1.0
C      1  0.4406750000000  0.4650760000000  0.5001880000000 1.0
C      1  0.4322360000000  0.5177690000000  0.5207090000000 1.0
C      1  0.4345540000000  0.5070580000000  0.4898730000000 1.0
C      1  0.4184370000000  0.4767980000000  0.4239670000000 1.0
C      1  0.4250340000000  0.4362800000000  0.5454870000000 1.0
C      1  0.4222810000000  0.5828670000000  0.5284340000000 1.0
C      1  0.4537660000000  0.5750470000000  0.4917330000000 1.0
C      1  0.4692960000000  0.4616150000000  0.4189100000000 1.0
C      1  0.4516880000000  0.4696150000000  0.5668310000000 1.0
C      1  0.5308960000000  0.4218220000000  0.5363950000000 1.0
C      1  0.5249310000000  0.5781340000000  0.5588530000000 1.0
C      1  0.5239650000000  0.5129640000000  0.4144330000000 1.0
C      1  0.5983570000000  0.5149020000000  0.5130020000000 1.0
C      1  0.5999290000000  0.5042900000000  0.4779850000000 1.0
C      1  0.5965750000000  0.4829700000000  0.5041400000000 1.0
C      1  0.5143480000000  0.5237110000000  0.4734710000000 1.0
C      1  0.4996400000000  0.4453450000000  0.5028700000000 1.0
C      1  0.5084150000000  0.5183130000000  0.5441200000000 1.0
C      1  0.4159210000000  0.5521420000000  0.4615240000000 1.0
C      1  0.4223850000000  0.4399760000000  0.4688550000000 1.0
C      1  0.4199440000000  0.5273760000000  0.5706260000000 1.0
C      1  0.4118950000000  0.5469860000000  0.4949160000000 1.0
C      1  0.4002170000000  0.4628310000000  0.4663580000000 1.0
C      1  0.4108200000000  0.4802940000000  0.5404470000000 1.0
C      1  0.4502650000000  0.5617340000000  0.5944210000000 1.0
C      1  0.4542440000000  0.5429030000000  0.4235360000000 1.0
C      1  0.4528990000000  0.4071190000000  0.4975100000000 1.0
C      1  0.4356690000000  0.4621930000000  0.4090970000000 1.0
C      1  0.4435370000000  0.4389490000000  0.5664080000000 1.0
C      1  0.4424290000000  0.5956760000000  0.5131460000000 1.0
C      1  0.5018210000000  0.4040490000000  0.4994420000000 1.0
C      1  0.5099790000000  0.5641320000000  0.5859890000000 1.0
C      1  0.5082800000000  0.5415890000000  0.4130720000000 1.0
C      1  0.5286580000000  0.4981920000000  0.5623030000000 1.0
C      1  0.5379270000000  0.5428070000000  0.4856060000000 1.0
C      1  0.5376520000000  0.4490700000000  0.4644490000000 1.0
C      1  0.4578780000000  0.5394520000000  0.4660370000000 1.0
C      1  0.4521670000000  0.4556160000000  0.4695030000000 1.0
C      1  0.4516530000000  0.5169570000000  0.5486310000000 1.0
C      1  0.4990830000000  0.4539650000000  0.5740390000000 1.0
C      1  0.4986680000000  0.5893590000000  0.5063120000000 1.0
C      1  0.4981810000000  0.4636230000000  0.4247870000000 1.0
C      1  0.5072170000000  0.5005750000000  0.4922870000000 1.0
C      1  0.5110900000000  0.4754130000000  0.5091940000000 1.0
C      1  0.5163350000000  0.5235040000000  0.5133770000000 1.0
C      1  0.4653360000000  0.5864460000000  0.5863880000000 1.0
C      1  0.4599670000000  0.5296710000000  0.3976480000000 1.0
C      1  0.4588420000000  0.3874710000000  0.5195000000000 1.0
C      1  0.5371930000000  0.4874760000000  0.4159130000000 1.0
C      1  0.5417980000000  0.4352550000000  0.5562760000000 1.0
C      1  0.5369150000000  0.5833090000000  0.5324930000000 1.0
C      1  0.4729710000000  0.5979010000000  0.5017300000000 1.0
C      1  0.4557030000000  0.4452490000000  0.3923880000000 1.0
C      1  0.4702780000000  0.4485130000000  0.5813620000000 1.0
C      1  0.4965170000000  0.6019300000000  0.4402040000000 1.0
C      1  0.5004760000000  0.3971950000000  0.4352290000000 1.0
C      1  0.4950020000000  0.5014930000000  0.6001480000000 1.0
C      1  0.4800240000000  0.5645640000000  0.5466620000000 1.0
C      1  0.4809950000000  0.5059960000000  0.4355170000000 1.0
C      1  0.5013960000000  0.4130830000000  0.5322700000000 1.0
C      1  0.6071370000000  0.4947070000000  0.5540340000000 1.0
C      1  0.6124030000000  0.5492440000000  0.4847030000000 1.0
C      1  0.6177570000000  0.4632100000000  0.4634490000000 1.0
C      1  0.5258270000000  0.4634650000000  0.5909910000000 1.0
C      1  0.5222740000000  0.5925380000000  0.4868630000000 1.0
C      1  0.5235650000000  0.4413790000000  0.4206760000000 1.0
C      1  0.5330130000000  0.5495840000000  0.6003280000000 1.0
C      1  0.5405730000000  0.5504460000000  0.4071150000000 1.0
C      1  0.5236080000000  0.3948350000000  0.4849850000000 1.0
C      1  0.6204260000000  0.5264580000000  0.4765960000000 1.0
C      1  0.6212140000000  0.4701440000000  0.4876510000000 1.0
C      1  0.6172790000000  0.5099460000000  0.5362700000000 1.0
END
