TITL C-3289329-2751-693 -733.811973684821 125000 -114.296346342029 0 0 23 (C1) n - 1
REM
REM in /nfs/bkarasulu/CARBON/AIRSS/Generating-Clusters/AIREBO/with-SteepDescent/Higher-Symm/SD-CG/HFTN-CG
REM
REM
REM
REM
REM
REM ./C.cell (b20cbc046b6831c77cfcea5457e17084)
REM
REM compiler GCC version 9.2.1 20190827 (Red Hat 9.2.1-1)
REM options -cpp -mtune=generic -march=x86-64 -g -O0 -fpre-include=/usr/include/finclude/math-vector-fortran.h
REM seed 292322141 1619883720 -1963783484 -1398081966 1780647393 52685528 981175496 -1885187639 144241377 58497465 -1393807842 1909497189 -2013793486 -381366429 -448888757 -1798359355 584479461 1841766861 -280225440 731691120 2113445689 -988073049 1600317984 -230593500 314975043 1127365469 -969387738 104134625 369162513 -1128344318 1657465871 -1735328325 730884465
REM
CELL 1.54180   50.00000   50.00000   50.00000   90.00000   90.00000   90.00000
LATT -1
SFAC C  
C      1  0.5004120000000  0.5368490000000  0.5208850000000 1.0
C      1  0.5232790000000  0.4849720000000  0.5132240000000 1.0
C      1  0.4678700000000  0.4884910000000  0.5116100000000 1.0
C      1  0.5013240000000  0.4617180000000  0.4823430000000 1.0
C      1  0.4765890000000  0.5286860000000  0.4756330000000 1.0
C      1  0.5237340000000  0.5227070000000  0.4763510000000 1.0
C      1  0.5679120000000  0.4565460000000  0.5107930000000 1.0
C      1  0.4219700000000  0.4632660000000  0.5036820000000 1.0
C      1  0.5071210000000  0.5890320000000  0.5269650000000 1.0
C      1  0.4447680000000  0.4759980000000  0.5089330000000 1.0
C      1  0.5035060000000  0.5627020000000  0.5251770000000 1.0
C      1  0.5447980000000  0.4697520000000  0.5117990000000 1.0
C      1  0.5086970000000  0.6149770000000  0.5303420000000 1.0
C      1  0.5896630000000  0.4422180000000  0.5078590000000 1.0
C      1  0.4000450000000  0.4492530000000  0.5005330000000 1.0
C      1  0.4923540000000  0.4981310000000  0.5749320000000 1.0
C      1  0.4917140000000  0.4967530000000  0.6010970000000 1.0
C      1  0.4798330000000  0.4838390000000  0.4168400000000 1.0
C      1  0.4954930000000  0.5001160000000  0.5487990000000 1.0
C      1  0.4885250000000  0.4842240000000  0.4415660000000 1.0
C      1  0.4950510000000  0.4844510000000  0.4682950000000 1.0
C      1  0.4982840000000  0.5113650000000  0.4821600000000 1.0
C      1  0.4965030000000  0.5041250000000  0.5153320000000 1.0
END
