TITL C-3289329-2751-525 -0.00214341186101732 125000 -760.710974839381 0 0 141 (C1) n - 1
REM
REM in /nfs/bkarasulu/CARBON/AIRSS/Generating-Clusters/AIREBO/with-SteepDescent/Higher-Symm/SD-CG/HFTN-CG
REM
REM
REM
REM
REM
REM ./C.cell (b20cbc046b6831c77cfcea5457e17084)
REM
REM compiler GCC version 9.2.1 20190827 (Red Hat 9.2.1-1)
REM options -cpp -mtune=generic -march=x86-64 -g -O0 -fpre-include=/usr/include/finclude/math-vector-fortran.h
REM seed 1044083829 139190518 1839348080 -107579818 2005840663 1798001418 -182107189 -229239606 -834594993 -619683309 -1067201876 1265434587 811273229 -1844683808 -103604148 1855296996 -611005586 714999033 1304947582 1568226880 -2073510309 -195993970 -1197842480 1738151568 -1671948953 1721898899 -220119671 832394505 979943590 -1277214464 1029133796 528050865 95880931
REM
CELL 1.54180   50.00000   50.00000   50.00000   90.00000   90.00000   90.00000
LATT -1
SFAC C  
C      1  0.5508740000000  0.4303470000000  0.4367260000000 1.0
C      1  0.4336390000000  0.4342800000000  0.4484080000000 1.0
C      1  0.4553840000000  0.4276990000000  0.5586800000000 1.0
C      1  0.5687090000000  0.4316780000000  0.5617190000000 1.0
C      1  0.4546990000000  0.4400660000000  0.4265540000000 1.0
C      1  0.5709500000000  0.4195020000000  0.4566140000000 1.0
C      1  0.5461700000000  0.4373500000000  0.5812930000000 1.0
C      1  0.4300400000000  0.4350810000000  0.5436760000000 1.0
C      1  0.4584790000000  0.5219200000000  0.4844170000000 1.0
C      1  0.4774510000000  0.5176580000000  0.5361550000000 1.0
C      1  0.5435320000000  0.5216510000000  0.5189600000000 1.0
C      1  0.5134620000000  0.5110970000000  0.4606130000000 1.0
C      1  0.5427970000000  0.5114700000000  0.4778010000000 1.0
C      1  0.5231310000000  0.5104390000000  0.5437420000000 1.0
C      1  0.4524840000000  0.5302920000000  0.5168340000000 1.0
C      1  0.4816000000000  0.5221730000000  0.4592180000000 1.0
C      1  0.4561470000000  0.5401200000000  0.5684210000000 1.0
C      1  0.5750220000000  0.5366500000000  0.5484780000000 1.0
C      1  0.5436690000000  0.5327860000000  0.4268000000000 1.0
C      1  0.4303760000000  0.5453990000000  0.4643590000000 1.0
C      1  0.5463330000000  0.5412520000000  0.5664930000000 1.0
C      1  0.4255310000000  0.5323730000000  0.5570810000000 1.0
C      1  0.4517870000000  0.5382250000000  0.4381800000000 1.0
C      1  0.5712030000000  0.5284790000000  0.4466390000000 1.0
C      1  0.4587530000000  0.4882800000000  0.4823120000000 1.0
C      1  0.4815780000000  0.4873910000000  0.5318910000000 1.0
C      1  0.5406890000000  0.4883300000000  0.5157960000000 1.0
C      1  0.5114290000000  0.4787150000000  0.4669250000000 1.0
C      1  0.5418790000000  0.4779280000000  0.4833390000000 1.0
C      1  0.5119900000000  0.4802720000000  0.5322200000000 1.0
C      1  0.4600190000000  0.4762210000000  0.5120130000000 1.0
C      1  0.4806140000000  0.4757930000000  0.4611310000000 1.0
C      1  0.4523300000000  0.4593890000000  0.5661560000000 1.0
C      1  0.5814570000000  0.4622580000000  0.5594410000000 1.0
C      1  0.5648870000000  0.4535540000000  0.4235370000000 1.0
C      1  0.4303080000000  0.4666390000000  0.4430180000000 1.0
C      1  0.5620170000000  0.4630420000000  0.5852840000000 1.0
C      1  0.4235700000000  0.4625340000000  0.5550580000000 1.0
C      1  0.4512240000000  0.4704930000000  0.4212930000000 1.0
C      1  0.5841660000000  0.4488410000000  0.4484170000000 1.0
C      1  0.4562900000000  0.5703170000000  0.4423360000000 1.0
C      1  0.4352520000000  0.5806170000000  0.5360210000000 1.0
C      1  0.5381410000000  0.5715040000000  0.5592790000000 1.0
C      1  0.5518900000000  0.5787700000000  0.4687130000000 1.0
C      1  0.5309060000000  0.5832030000000  0.4423300000000 1.0
C      1  0.5511950000000  0.5784180000000  0.5286590000000 1.0
C      1  0.4598170000000  0.5713180000000  0.5577680000000 1.0
C      1  0.4399210000000  0.5840400000000  0.4674500000000 1.0
C      1  0.4664140000000  0.5616820000000  0.5197610000000 1.0
C      1  0.5149600000000  0.5413980000000  0.5382130000000 1.0
C      1  0.5330970000000  0.5420890000000  0.4807690000000 1.0
C      1  0.4874370000000  0.5532990000000  0.4682260000000 1.0
C      1  0.5290500000000  0.5510750000000  0.5099140000000 1.0
C      1  0.4904070000000  0.5416720000000  0.5195920000000 1.0
C      1  0.4594450000000  0.5558100000000  0.4870390000000 1.0
C      1  0.5188410000000  0.5575640000000  0.4611760000000 1.0
C      1  0.4547860000000  0.4336230000000  0.4823300000000 1.0
C      1  0.4830670000000  0.4332690000000  0.5304350000000 1.0
C      1  0.5374600000000  0.4341430000000  0.5197150000000 1.0
C      1  0.5252820000000  0.4480030000000  0.4621260000000 1.0
C      1  0.5422050000000  0.4446580000000  0.4904060000000 1.0
C      1  0.5134340000000  0.4479720000000  0.5365340000000 1.0
C      1  0.4606330000000  0.4455960000000  0.5123770000000 1.0
C      1  0.4757930000000  0.4455980000000  0.4598880000000 1.0
C      1  0.4782340000000  0.5203040000000  0.4273050000000 1.0
C      1  0.4221070000000  0.5347910000000  0.5266700000000 1.0
C      1  0.5170760000000  0.5244360000000  0.5741560000000 1.0
C      1  0.5710770000000  0.5301540000000  0.4806100000000 1.0
C      1  0.5102320000000  0.5305920000000  0.4326460000000 1.0
C      1  0.5739530000000  0.5331700000000  0.5149170000000 1.0
C      1  0.4840840000000  0.5226180000000  0.5660900000000 1.0
C      1  0.4245120000000  0.5209620000000  0.4858460000000 1.0
C      1  0.5992800000000  0.5125190000000  0.5168720000000 1.0
C      1  0.5223370000000  0.5376330000000  0.4007650000000 1.0
C      1  0.3907250000000  0.5241670000000  0.4880310000000 1.0
C      1  0.4943580000000  0.5066930000000  0.6138980000000 1.0
C      1  0.4017400000000  0.5153090000000  0.5159000000000 1.0
C      1  0.4972250000000  0.5011610000000  0.3834380000000 1.0
C      1  0.5906870000000  0.5069710000000  0.4652980000000 1.0
C      1  0.5133340000000  0.5248130000000  0.6079510000000 1.0
C      1  0.5289370000000  0.3995670000000  0.4865950000000 1.0
C      1  0.4879300000000  0.4167050000000  0.4686200000000 1.0
C      1  0.4684220000000  0.3907610000000  0.5082040000000 1.0
C      1  0.5113330000000  0.3930590000000  0.5306040000000 1.0
C      1  0.4662050000000  0.4028500000000  0.4832760000000 1.0
C      1  0.5147810000000  0.4179100000000  0.4710340000000 1.0
C      1  0.5307340000000  0.4046780000000  0.5142020000000 1.0
C      1  0.4852590000000  0.4027580000000  0.5271600000000 1.0
C      1  0.4881950000000  0.4597470000000  0.5863330000000 1.0
C      1  0.5864900000000  0.4511020000000  0.5214370000000 1.0
C      1  0.5293160000000  0.4457860000000  0.4070350000000 1.0
C      1  0.4043240000000  0.4637140000000  0.4755130000000 1.0
C      1  0.5191090000000  0.4646570000000  0.5912590000000 1.0
C      1  0.4025120000000  0.4546830000000  0.5222890000000 1.0
C      1  0.4847010000000  0.4557070000000  0.4056900000000 1.0
C      1  0.5896190000000  0.4496530000000  0.4925790000000 1.0
C      1  0.4794790000000  0.5853760000000  0.4622310000000 1.0
C      1  0.4623900000000  0.5944440000000  0.5223720000000 1.0
C      1  0.5125190000000  0.5746920000000  0.5374730000000 1.0
C      1  0.5285080000000  0.5921830000000  0.4810760000000 1.0
C      1  0.5067580000000  0.5987250000000  0.4609750000000 1.0
C      1  0.5256550000000  0.5849160000000  0.5094260000000 1.0
C      1  0.4865290000000  0.5865790000000  0.5436960000000 1.0
C      1  0.4632930000000  0.5893510000000  0.4912650000000 1.0
C      1  0.5560130000000  0.4912110000000  0.5680550000000 1.0
C      1  0.5636570000000  0.4744280000000  0.4574480000000 1.0
C      1  0.4762080000000  0.4871940000000  0.4293760000000 1.0
C      1  0.4376150000000  0.4857330000000  0.5358080000000 1.0
C      1  0.4681270000000  0.4846920000000  0.5615550000000 1.0
C      1  0.4314800000000  0.4897410000000  0.4620040000000 1.0
C      1  0.5542020000000  0.4832010000000  0.4259410000000 1.0
C      1  0.5649470000000  0.4810440000000  0.5367390000000 1.0
C      1  0.4112700000000  0.4899750000000  0.4890910000000 1.0
C      1  0.4926390000000  0.4934720000000  0.5834260000000 1.0
C      1  0.5895520000000  0.4835560000000  0.5134590000000 1.0
C      1  0.5290260000000  0.4736020000000  0.4098860000000 1.0
C      1  0.5889300000000  0.4789360000000  0.4797470000000 1.0
C      1  0.5263160000000  0.4920490000000  0.5789160000000 1.0
C      1  0.4091440000000  0.4837810000000  0.5207880000000 1.0
C      1  0.5003850000000  0.4843700000000  0.4056280000000 1.0
C      1  0.5178510000000  0.4393900000000  0.5691380000000 1.0
C      1  0.5697160000000  0.4337020000000  0.4823580000000 1.0
C      1  0.4879240000000  0.4361610000000  0.4315130000000 1.0
C      1  0.4277760000000  0.4366310000000  0.5112690000000 1.0
C      1  0.4857530000000  0.4379050000000  0.5635710000000 1.0
C      1  0.4222690000000  0.4379640000000  0.4785120000000 1.0
C      1  0.5180140000000  0.4310970000000  0.4334960000000 1.0
C      1  0.5656350000000  0.4370730000000  0.5328670000000 1.0
C      1  0.5053710000000  0.5642170000000  0.4311600000000 1.0
C      1  0.4213370000000  0.5676370000000  0.4884590000000 1.0
C      1  0.4859700000000  0.5686180000000  0.5793300000000 1.0
C      1  0.5718980000000  0.5668870000000  0.5128410000000 1.0
C      1  0.4814780000000  0.5766950000000  0.4232900000000 1.0
C      1  0.5704380000000  0.5641200000000  0.4820500000000 1.0
C      1  0.5108540000000  0.5578700000000  0.5742990000000 1.0
C      1  0.4205270000000  0.5643450000000  0.5170490000000 1.0
C      1  0.5646510000000  0.5096100000000  0.4200720000000 1.0
C      1  0.4466620000000  0.5080490000000  0.5596240000000 1.0
C      1  0.4281840000000  0.5165850000000  0.4464330000000 1.0
C      1  0.5683500000000  0.5176740000000  0.5738210000000 1.0
C      1  0.4959410000000  0.5358460000000  0.4936090000000 1.0
END
