TITL C-3289324-3781-779 -0.00651348548473302 125000 -568.496927848038 0 0 104 (C1) n - 1
REM
REM in /nfs/bkarasulu/CARBON/AIRSS/Generating-Clusters/AIREBO/with-SteepDescent/Higher-Symm/SD-CG/HFTN-CG
REM
REM
REM
REM
REM
REM ./C.cell (b20cbc046b6831c77cfcea5457e17084)
REM
REM compiler GCC version 9.2.1 20190827 (Red Hat 9.2.1-1)
REM options -cpp -mtune=generic -march=x86-64 -g -O0 -fpre-include=/usr/include/finclude/math-vector-fortran.h
REM seed -382905808 -1140593487 -913887958 570090217 -1252284080 506390025 471158366 -102563932 1848104937 476251380 -1322874728 -817343312 -1693155878 675201456 2024185328 1166432423 -697712330 -894277282 -66654701 1721840758 -356580709 -1954276 1241288099 -970489866 -1134148212 -1889056867 -1888053534 -1905968654 -1567301797 1590974717 -1807342621 -1894526159 -1886756008
REM
CELL 1.54180   50.00000   50.00000   50.00000   90.00000   90.00000   90.00000
LATT -1
SFAC C  
C      1  0.5568010000000  0.5031930000000  0.5718640000000 1.0
C      1  0.4285330000000  0.5114590000000  0.5225710000000 1.0
C      1  0.5135600000000  0.5063130000000  0.4220060000000 1.0
C      1  0.5627350000000  0.4767640000000  0.5678650000000 1.0
C      1  0.4340350000000  0.4817570000000  0.5143310000000 1.0
C      1  0.5072750000000  0.4764610000000  0.4201710000000 1.0
C      1  0.5430400000000  0.5086590000000  0.4365950000000 1.0
C      1  0.4309970000000  0.5131260000000  0.4886300000000 1.0
C      1  0.5246340000000  0.5061510000000  0.5790300000000 1.0
C      1  0.5530140000000  0.4875070000000  0.4529410000000 1.0
C      1  0.4459570000000  0.4931250000000  0.4716470000000 1.0
C      1  0.5146390000000  0.4774910000000  0.5758020000000 1.0
C      1  0.5237940000000  0.5754300000000  0.5093640000000 1.0
C      1  0.4612830000000  0.5831750000000  0.5291220000000 1.0
C      1  0.4883980000000  0.5825630000000  0.4568080000000 1.0
C      1  0.5245530000000  0.4259230000000  0.5160450000000 1.0
C      1  0.4686750000000  0.4153010000000  0.5188510000000 1.0
C      1  0.4895440000000  0.4178270000000  0.4490620000000 1.0
C      1  0.5287830000000  0.5754680000000  0.4817370000000 1.0
C      1  0.4694050000000  0.5814670000000  0.4770650000000 1.0
C      1  0.4876400000000  0.5701040000000  0.5461940000000 1.0
C      1  0.5218770000000  0.4226660000000  0.4883800000000 1.0
C      1  0.4625380000000  0.4176330000000  0.4666640000000 1.0
C      1  0.4865840000000  0.4136570000000  0.5414480000000 1.0
C      1  0.5104600000000  0.4554820000000  0.4685730000000 1.0
C      1  0.5318170000000  0.4555590000000  0.5281490000000 1.0
C      1  0.4543240000000  0.4452730000000  0.5197740000000 1.0
C      1  0.5019610000000  0.5431990000000  0.4713590000000 1.0
C      1  0.5365190000000  0.5507930000000  0.5281100000000 1.0
C      1  0.4617340000000  0.5564540000000  0.5112480000000 1.0
C      1  0.4996500000000  0.4560980000000  0.5240590000000 1.0
C      1  0.5415170000000  0.4423840000000  0.4730840000000 1.0
C      1  0.4655360000000  0.4424710000000  0.4897670000000 1.0
C      1  0.5027560000000  0.5467820000000  0.5275590000000 1.0
C      1  0.5335380000000  0.5475340000000  0.4689180000000 1.0
C      1  0.4573750000000  0.5500820000000  0.4780930000000 1.0
C      1  0.4524550000000  0.4765860000000  0.4426520000000 1.0
C      1  0.5617130000000  0.4976950000000  0.4810980000000 1.0
C      1  0.4840960000000  0.4740950000000  0.5655730000000 1.0
C      1  0.4565500000000  0.5089060000000  0.4328890000000 1.0
C      1  0.5782720000000  0.5224710000000  0.4861500000000 1.0
C      1  0.5019140000000  0.5262740000000  0.5710740000000 1.0
C      1  0.4535390000000  0.4885090000000  0.5617280000000 1.0
C      1  0.5899700000000  0.4934950000000  0.5218260000000 1.0
C      1  0.4783560000000  0.4639080000000  0.4245740000000 1.0
C      1  0.4481020000000  0.5148310000000  0.5477650000000 1.0
C      1  0.5832510000000  0.5220360000000  0.5160520000000 1.0
C      1  0.4866000000000  0.5222590000000  0.4322150000000 1.0
C      1  0.5633400000000  0.5320970000000  0.5665050000000 1.0
C      1  0.4141050000000  0.5397810000000  0.5121580000000 1.0
C      1  0.5342770000000  0.5330100000000  0.4160230000000 1.0
C      1  0.5591460000000  0.4558870000000  0.5426920000000 1.0
C      1  0.4182330000000  0.4669840000000  0.4978550000000 1.0
C      1  0.5284620000000  0.4597050000000  0.4246560000000 1.0
C      1  0.5502840000000  0.5395690000000  0.4455710000000 1.0
C      1  0.4253310000000  0.5443050000000  0.4847190000000 1.0
C      1  0.5396000000000  0.5359560000000  0.5860450000000 1.0
C      1  0.5439690000000  0.4618980000000  0.4478770000000 1.0
C      1  0.4258600000000  0.4674000000000  0.4710380000000 1.0
C      1  0.5358470000000  0.4604460000000  0.5676060000000 1.0
C      1  0.5313980000000  0.5208270000000  0.5178780000000 1.0
C      1  0.4659410000000  0.5253910000000  0.5212380000000 1.0
C      1  0.4932290000000  0.5129950000000  0.4638960000000 1.0
C      1  0.5234200000000  0.4880670000000  0.5227840000000 1.0
C      1  0.4661130000000  0.4766460000000  0.5145410000000 1.0
C      1  0.5044340000000  0.4851720000000  0.4752860000000 1.0
C      1  0.5326790000000  0.5247290000000  0.4890540000000 1.0
C      1  0.4702640000000  0.5204150000000  0.4878830000000 1.0
C      1  0.4918790000000  0.5195320000000  0.5409420000000 1.0
C      1  0.5293410000000  0.4927230000000  0.4902350000000 1.0
C      1  0.4735210000000  0.4876890000000  0.4872200000000 1.0
C      1  0.4911780000000  0.4871620000000  0.5349850000000 1.0
C      1  0.6098630000000  0.4685310000000  0.5225290000000 1.0
C      1  0.4368950000000  0.4663070000000  0.5644680000000 1.0
C      1  0.4686120000000  0.4521610000000  0.4007170000000 1.0
C      1  0.5946810000000  0.5518060000000  0.5278480000000 1.0
C      1  0.4311900000000  0.5478840000000  0.5817350000000 1.0
C      1  0.4831900000000  0.5320150000000  0.4001100000000 1.0
C      1  0.5799430000000  0.4719950000000  0.4808650000000 1.0
C      1  0.4259080000000  0.4710930000000  0.4244740000000 1.0
C      1  0.4745560000000  0.4641050000000  0.5939230000000 1.0
C      1  0.6057190000000  0.5297980000000  0.4672210000000 1.0
C      1  0.4333550000000  0.5298330000000  0.4254670000000 1.0
C      1  0.4902410000000  0.5341840000000  0.6004680000000 1.0
C      1  0.5777390000000  0.5398940000000  0.4569560000000 1.0
C      1  0.4780180000000  0.5483010000000  0.5657120000000 1.0
C      1  0.4548040000000  0.5428550000000  0.4449640000000 1.0
C      1  0.5661910000000  0.4482740000000  0.4908810000000 1.0
C      1  0.4808210000000  0.4437950000000  0.5495570000000 1.0
C      1  0.4493990000000  0.4483290000000  0.4621480000000 1.0
C      1  0.5643430000000  0.5405870000000  0.5379010000000 1.0
C      1  0.4862840000000  0.5546810000000  0.4435980000000 1.0
C      1  0.4515810000000  0.5385090000000  0.5661870000000 1.0
C      1  0.5766140000000  0.4621490000000  0.5193950000000 1.0
C      1  0.4966380000000  0.4448800000000  0.4438080000000 1.0
C      1  0.4467990000000  0.4447730000000  0.5510560000000 1.0
C      1  0.4995070000000  0.5855190000000  0.5186740000000 1.0
C      1  0.4752170000000  0.5929120000000  0.5018150000000 1.0
C      1  0.5141010000000  0.5920430000000  0.4638100000000 1.0
C      1  0.5132570000000  0.4083170000000  0.5348340000000 1.0
C      1  0.4754410000000  0.4040890000000  0.4946890000000 1.0
C      1  0.5000390000000  0.4075660000000  0.4762450000000 1.0
C      1  0.4930630000000  0.4526830000000  0.4952690000000 1.0
C      1  0.4923620000000  0.5519120000000  0.4982090000000 1.0
END
