TITL C-3289327-5623-9 0.00057875070307514 125000 -922.998674244917 0 0 183 (C1) n - 1
REM
REM in /nfs/bkarasulu/CARBON/AIRSS/Generating-Clusters/AIREBO/with-SteepDescent/Higher-Symm/SD-CG/HFTN-CG
REM
REM
REM
REM
REM
REM ./C.cell (b20cbc046b6831c77cfcea5457e17084)
REM
REM compiler GCC version 9.2.1 20190827 (Red Hat 9.2.1-1)
REM options -cpp -mtune=generic -march=x86-64 -g -O0 -fpre-include=/usr/include/finclude/math-vector-fortran.h
REM seed 1888330537 -194721132 -1396108458 -277077356 1161001475 169980298 -1833685925 8853199 -1721005375 -1089873635 -217795969 -1915246300 -1343478709 -71403965 927985277 808582775 103548953 -74221756 1159011291 1832527679 -2038672821 -347462728 -938875865 1113679216 -388541428 -2086605063 -624358275 2051251842 -1244379666 -1471910981 -863475827 -1570902794 1218529780
REM
CELL 1.54180   50.00000   50.00000   50.00000   90.00000   90.00000   90.00000
LATT -1
SFAC C  
C      1  0.5305150000000  0.5093590000000  0.3916250000000 1.0
C      1  0.4839550000000  0.4549900000000  0.4171360000000 1.0
C      1  0.5283050000000  0.4046850000000  0.4561890000000 1.0
C      1  0.4707970000000  0.4010620000000  0.5170120000000 1.0
C      1  0.5246010000000  0.4341500000000  0.5735510000000 1.0
C      1  0.4761740000000  0.4874630000000  0.6040320000000 1.0
C      1  0.5417800000000  0.5620370000000  0.5750270000000 1.0
C      1  0.4754920000000  0.5839850000000  0.5362190000000 1.0
C      1  0.5237940000000  0.5981400000000  0.4816160000000 1.0
C      1  0.4701660000000  0.5697910000000  0.4258570000000 1.0
C      1  0.3893460000000  0.5163590000000  0.5140070000000 1.0
C      1  0.5954900000000  0.5249620000000  0.4945740000000 1.0
C      1  0.3959480000000  0.5177190000000  0.4872840000000 1.0
C      1  0.6165700000000  0.5048050000000  0.4798700000000 1.0
C      1  0.3962330000000  0.4907860000000  0.4752990000000 1.0
C      1  0.6083440000000  0.4788010000000  0.4839690000000 1.0
C      1  0.3993880000000  0.4770810000000  0.5036310000000 1.0
C      1  0.6058470000000  0.4737540000000  0.5126110000000 1.0
C      1  0.4062020000000  0.4930860000000  0.5321820000000 1.0
C      1  0.6009990000000  0.5039480000000  0.5198150000000 1.0
C      1  0.4681300000000  0.5701340000000  0.5910530000000 1.0
C      1  0.5224040000000  0.5977330000000  0.5274970000000 1.0
C      1  0.4680040000000  0.6098340000000  0.4605500000000 1.0
C      1  0.5241720000000  0.5661960000000  0.4069220000000 1.0
C      1  0.4756240000000  0.5033320000000  0.3802420000000 1.0
C      1  0.5308550000000  0.4399730000000  0.4177990000000 1.0
C      1  0.4715470000000  0.3894550000000  0.4685570000000 1.0
C      1  0.5153130000000  0.4050330000000  0.5338980000000 1.0
C      1  0.4786960000000  0.4274520000000  0.5975700000000 1.0
C      1  0.5212560000000  0.5158430000000  0.6144140000000 1.0
C      1  0.5079810000000  0.5533840000000  0.3875670000000 1.0
C      1  0.5040230000000  0.4938510000000  0.3798000000000 1.0
C      1  0.5125040000000  0.4179240000000  0.4163860000000 1.0
C      1  0.4879040000000  0.3682390000000  0.4812490000000 1.0
C      1  0.4873790000000  0.3985820000000  0.5415570000000 1.0
C      1  0.5070220000000  0.4382170000000  0.6019210000000 1.0
C      1  0.4981590000000  0.5309040000000  0.6235760000000 1.0
C      1  0.4864040000000  0.5900610000000  0.5843000000000 1.0
C      1  0.4957640000000  0.6090750000000  0.5254620000000 1.0
C      1  0.4887510000000  0.6086930000000  0.4394660000000 1.0
C      1  0.5090620000000  0.4800960000000  0.5440860000000 1.0
C      1  0.4901450000000  0.5041870000000  0.5464960000000 1.0
C      1  0.5013680000000  0.5296950000000  0.5344590000000 1.0
C      1  0.4906730000000  0.5321050000000  0.5028360000000 1.0
C      1  0.5130480000000  0.5407780000000  0.4804880000000 1.0
C      1  0.5040150000000  0.5242710000000  0.4564840000000 1.0
C      1  0.5073690000000  0.4944600000000  0.4509120000000 1.0
C      1  0.4944490000000  0.4738920000000  0.4747080000000 1.0
C      1  0.5153410000000  0.4507400000000  0.4891090000000 1.0
C      1  0.5024920000000  0.4698170000000  0.5136360000000 1.0
C      1  0.4717790000000  0.5788950000000  0.4646180000000 1.0
C      1  0.5259360000000  0.5464040000000  0.4315160000000 1.0
C      1  0.4785050000000  0.4937610000000  0.4120030000000 1.0
C      1  0.5261970000000  0.4525080000000  0.4433770000000 1.0
C      1  0.4752760000000  0.4188580000000  0.4801970000000 1.0
C      1  0.5165260000000  0.4321910000000  0.5285830000000 1.0
C      1  0.4773600000000  0.4547250000000  0.5816530000000 1.0
C      1  0.5157310000000  0.5162920000000  0.5848430000000 1.0
C      1  0.4837910000000  0.5469720000000  0.5690620000000 1.0
C      1  0.5207980000000  0.5736320000000  0.5132110000000 1.0
C      1  0.4970720000000  0.4178210000000  0.4466850000000 1.0
C      1  0.4990310000000  0.3933690000000  0.4994260000000 1.0
C      1  0.4942200000000  0.4259780000000  0.5605070000000 1.0
C      1  0.5060470000000  0.4712280000000  0.6035360000000 1.0
C      1  0.4776910000000  0.5333960000000  0.5996460000000 1.0
C      1  0.5016570000000  0.5825910000000  0.5578870000000 1.0
C      1  0.4923940000000  0.5945730000000  0.4948910000000 1.0
C      1  0.5014670000000  0.5771960000000  0.4379310000000 1.0
C      1  0.4942110000000  0.5294400000000  0.4039770000000 1.0
C      1  0.5107640000000  0.4716230000000  0.4043080000000 1.0
C      1  0.4896710000000  0.5650080000000  0.5114910000000 1.0
C      1  0.5037540000000  0.5725630000000  0.4715530000000 1.0
C      1  0.4920170000000  0.5448280000000  0.4333460000000 1.0
C      1  0.5101380000000  0.5028670000000  0.4180710000000 1.0
C      1  0.4956210000000  0.4517310000000  0.4489220000000 1.0
C      1  0.5076470000000  0.4191700000000  0.4790010000000 1.0
C      1  0.4892170000000  0.4470050000000  0.5338550000000 1.0
C      1  0.5062330000000  0.4626830000000  0.5706220000000 1.0
C      1  0.4852720000000  0.5082040000000  0.5786650000000 1.0
C      1  0.5151720000000  0.5514000000000  0.5567070000000 1.0
C      1  0.4641260000000  0.5422930000000  0.5418200000000 1.0
C      1  0.5444630000000  0.5654490000000  0.5022570000000 1.0
C      1  0.4570350000000  0.5538250000000  0.4680100000000 1.0
C      1  0.5422830000000  0.5262790000000  0.4451780000000 1.0
C      1  0.4636310000000  0.4831400000000  0.4383890000000 1.0
C      1  0.5503530000000  0.4585480000000  0.4657230000000 1.0
C      1  0.4618340000000  0.4424100000000  0.4951700000000 1.0
C      1  0.5413010000000  0.4460920000000  0.5340680000000 1.0
C      1  0.4550080000000  0.4700040000000  0.5732640000000 1.0
C      1  0.5375640000000  0.5193830000000  0.5649510000000 1.0
C      1  0.5380680000000  0.4903200000000  0.4640520000000 1.0
C      1  0.4602150000000  0.4721190000000  0.4787140000000 1.0
C      1  0.5448540000000  0.4549550000000  0.5050890000000 1.0
C      1  0.4485000000000  0.4763110000000  0.5416970000000 1.0
C      1  0.5375820000000  0.4971480000000  0.5420970000000 1.0
C      1  0.4574560000000  0.5091650000000  0.5380540000000 1.0
C      1  0.5534390000000  0.5352220000000  0.5083880000000 1.0
C      1  0.4583340000000  0.5316410000000  0.4905870000000 1.0
C      1  0.5409390000000  0.5213400000000  0.4787930000000 1.0
C      1  0.4579820000000  0.5021360000000  0.4613480000000 1.0
C      1  0.5654070000000  0.5468570000000  0.5731320000000 1.0
C      1  0.4434450000000  0.5764780000000  0.5415030000000 1.0
C      1  0.5533680000000  0.5983410000000  0.4816350000000 1.0
C      1  0.4427330000000  0.5654910000000  0.4327830000000 1.0
C      1  0.5539820000000  0.5219010000000  0.4008870000000 1.0
C      1  0.4498880000000  0.4554490000000  0.4142050000000 1.0
C      1  0.5554410000000  0.4086970000000  0.4526890000000 1.0
C      1  0.4438810000000  0.4126360000000  0.5141900000000 1.0
C      1  0.5561730000000  0.4332080000000  0.5685440000000 1.0
C      1  0.4468170000000  0.4874670000000  0.6079660000000 1.0
C      1  0.5627730000000  0.4344500000000  0.4448900000000 1.0
C      1  0.4364850000000  0.4232890000000  0.4829670000000 1.0
C      1  0.5618190000000  0.4211840000000  0.5398130000000 1.0
C      1  0.4294880000000  0.4625670000000  0.5942630000000 1.0
C      1  0.5649150000000  0.5169960000000  0.5850160000000 1.0
C      1  0.4403360000000  0.5529380000000  0.5633730000000 1.0
C      1  0.5665250000000  0.5872410000000  0.5102480000000 1.0
C      1  0.4311260000000  0.5753120000000  0.4632070000000 1.0
C      1  0.5671810000000  0.5397860000000  0.4270870000000 1.0
C      1  0.4420880000000  0.4885120000000  0.4126280000000 1.0
C      1  0.4482660000000  0.5473100000000  0.6017770000000 1.0
C      1  0.5341790000000  0.5923640000000  0.5557240000000 1.0
C      1  0.4619560000000  0.6063810000000  0.4911000000000 1.0
C      1  0.5343900000000  0.5841340000000  0.4310020000000 1.0
C      1  0.4620080000000  0.5266920000000  0.3973490000000 1.0
C      1  0.5435470000000  0.4625290000000  0.4031400000000 1.0
C      1  0.4660190000000  0.4066030000000  0.4435540000000 1.0
C      1  0.5296250000000  0.3895770000000  0.5137860000000 1.0
C      1  0.4636360000000  0.4188500000000  0.5710410000000 1.0
C      1  0.5306390000000  0.4877280000000  0.6083790000000 1.0
C      1  0.5879110000000  0.5687950000000  0.5275190000000 1.0
C      1  0.4171120000000  0.5619810000000  0.4911710000000 1.0
C      1  0.5805060000000  0.5150380000000  0.4462760000000 1.0
C      1  0.4210200000000  0.5058940000000  0.4292960000000 1.0
C      1  0.5783210000000  0.4587360000000  0.4374400000000 1.0
C      1  0.4206560000000  0.4460550000000  0.4647010000000 1.0
C      1  0.5794090000000  0.4239570000000  0.5144370000000 1.0
C      1  0.4226890000000  0.4477000000000  0.5669710000000 1.0
C      1  0.5758640000000  0.4942240000000  0.5631250000000 1.0
C      1  0.4187580000000  0.5290160000000  0.5514700000000 1.0
C      1  0.4582330000000  0.4469550000000  0.5286820000000 1.0
C      1  0.5455100000000  0.4693810000000  0.5561980000000 1.0
C      1  0.4530250000000  0.5028510000000  0.5711700000000 1.0
C      1  0.5433970000000  0.5419610000000  0.5401860000000 1.0
C      1  0.4577100000000  0.5554770000000  0.5111240000000 1.0
C      1  0.5501050000000  0.5536120000000  0.4732530000000 1.0
C      1  0.4652840000000  0.5311550000000  0.4493340000000 1.0
C      1  0.5418350000000  0.4982270000000  0.4311960000000 1.0
C      1  0.4635970000000  0.4534190000000  0.4515100000000 1.0
C      1  0.5526720000000  0.4310490000000  0.4856110000000 1.0
C      1  0.4260560000000  0.5316380000000  0.4797920000000 1.0
C      1  0.5729990000000  0.5103880000000  0.4757060000000 1.0
C      1  0.4261370000000  0.4903820000000  0.4591220000000 1.0
C      1  0.5816630000000  0.4714510000000  0.4688040000000 1.0
C      1  0.4289520000000  0.4662080000000  0.4908170000000 1.0
C      1  0.5763240000000  0.4576730000000  0.5177200000000 1.0
C      1  0.4193870000000  0.4807220000000  0.5587080000000 1.0
C      1  0.5693100000000  0.4967780000000  0.5298490000000 1.0
C      1  0.4286200000000  0.5163210000000  0.5214930000000 1.0
C      1  0.5816790000000  0.5519700000000  0.4991270000000 1.0
C      1  0.5725880000000  0.5259110000000  0.5470930000000 1.0
C      1  0.4281870000000  0.5500950000000  0.5256300000000 1.0
C      1  0.5756450000000  0.5738720000000  0.4737080000000 1.0
C      1  0.4263230000000  0.5393020000000  0.4469980000000 1.0
C      1  0.5726810000000  0.5015510000000  0.4172860000000 1.0
C      1  0.4273800000000  0.4630310000000  0.4389200000000 1.0
C      1  0.5708610000000  0.4033650000000  0.4771760000000 1.0
C      1  0.4276990000000  0.4429250000000  0.5156890000000 1.0
C      1  0.5752230000000  0.4562630000000  0.5518720000000 1.0
C      1  0.4244030000000  0.5010090000000  0.5857890000000 1.0
C      1  0.5580350000000  0.5667730000000  0.4447030000000 1.0
C      1  0.4462670000000  0.5270810000000  0.4223190000000 1.0
C      1  0.5674070000000  0.4717960000000  0.4155170000000 1.0
C      1  0.4471900000000  0.4283890000000  0.4526750000000 1.0
C      1  0.5541610000000  0.4031920000000  0.5050490000000 1.0
C      1  0.4446100000000  0.4331220000000  0.5566000000000 1.0
C      1  0.5502570000000  0.4869940000000  0.5844900000000 1.0
C      1  0.4246400000000  0.5330680000000  0.5847180000000 1.0
C      1  0.5562190000000  0.5734630000000  0.5395790000000 1.0
C      1  0.4446690000000  0.5817160000000  0.4938520000000 1.0
C      1  0.5704410000000  0.4847990000000  0.4980230000000 1.0
C      1  0.4316060000000  0.5001180000000  0.4912900000000 1.0
C      1  0.4972410000000  0.4989550000000  0.4975280000000 1.0
END
