TITL C-3289323-3850-729 0.00012251108086194 125000 -939.093175048891 0 0 172 (C1) n - 1
REM
REM in /nfs/bkarasulu/CARBON/AIRSS/Generating-Clusters/AIREBO/with-SteepDescent/Higher-Symm/SD-CG/HFTN-CG
REM
REM
REM
REM
REM
REM ./C.cell (b20cbc046b6831c77cfcea5457e17084)
REM
REM compiler GCC version 9.2.1 20190827 (Red Hat 9.2.1-1)
REM options -cpp -mtune=generic -march=x86-64 -g -O0 -fpre-include=/usr/include/finclude/math-vector-fortran.h
REM seed 1901133714 1720920843 1106268230 2081116904 47943595 1984397441 518664203 -88513394 -1843807743 1527876031 642960515 -1940486170 218783415 89464987 1795178746 -1387721552 -160031245 -1266172912 825581591 -436329996 -1529048049 -162804761 -633439830 -1389400652 -433882586 679216137 1633218847 -1521864369 -716279968 -327811376 1259311869 831866409 1636970329
REM
CELL 1.54180   50.00000   50.00000   50.00000   90.00000   90.00000   90.00000
LATT -1
SFAC C  
C      1  0.4592510000000  0.4780380000000  0.5145300000000 1.0
C      1  0.4646400000000  0.4803830000000  0.4808400000000 1.0
C      1  0.4635770000000  0.5347430000000  0.5013630000000 1.0
C      1  0.5340280000000  0.5255350000000  0.5199730000000 1.0
C      1  0.5360830000000  0.5106690000000  0.4765120000000 1.0
C      1  0.5319450000000  0.4766950000000  0.5099810000000 1.0
C      1  0.4994600000000  0.5318480000000  0.4086360000000 1.0
C      1  0.5098330000000  0.5694910000000  0.5663350000000 1.0
C      1  0.4995110000000  0.4023070000000  0.5302150000000 1.0
C      1  0.4976970000000  0.4680050000000  0.4033520000000 1.0
C      1  0.4905190000000  0.4247640000000  0.5647140000000 1.0
C      1  0.4995650000000  0.5984620000000  0.5214340000000 1.0
C      1  0.5528350000000  0.4308540000000  0.5639500000000 1.0
C      1  0.5491430000000  0.4799480000000  0.4099270000000 1.0
C      1  0.5538460000000  0.5910850000000  0.5249590000000 1.0
C      1  0.4467590000000  0.5810830000000  0.5688490000000 1.0
C      1  0.4415620000000  0.5298000000000  0.4087810000000 1.0
C      1  0.4446490000000  0.4053700000000  0.5275950000000 1.0
C      1  0.4676170000000  0.4755570000000  0.5886020000000 1.0
C      1  0.4771750000000  0.4251570000000  0.4212050000000 1.0
C      1  0.4674600000000  0.5930950000000  0.4730320000000 1.0
C      1  0.5591630000000  0.5073260000000  0.6047640000000 1.0
C      1  0.5469590000000  0.5824460000000  0.4429790000000 1.0
C      1  0.5281170000000  0.3980470000000  0.4763890000000 1.0
C      1  0.5108590000000  0.4768730000000  0.4761080000000 1.0
C      1  0.5115520000000  0.5259450000000  0.4944360000000 1.0
C      1  0.5021560000000  0.4927830000000  0.5341120000000 1.0
C      1  0.4839980000000  0.5309110000000  0.4750920000000 1.0
C      1  0.4755010000000  0.4491860000000  0.4821640000000 1.0
C      1  0.4800070000000  0.5185320000000  0.5423610000000 1.0
C      1  0.5196150000000  0.5739510000000  0.5151760000000 1.0
C      1  0.5309850000000  0.4299440000000  0.5305670000000 1.0
C      1  0.5135440000000  0.4840070000000  0.4275850000000 1.0
C      1  0.4901480000000  0.4341590000000  0.5330470000000 1.0
C      1  0.4850900000000  0.5708260000000  0.5349790000000 1.0
C      1  0.4820500000000  0.5132400000000  0.4312510000000 1.0
C      1  0.4598480000000  0.5679390000000  0.4372250000000 1.0
C      1  0.4508970000000  0.5434210000000  0.5964730000000 1.0
C      1  0.4523520000000  0.3980320000000  0.4786720000000 1.0
C      1  0.5590340000000  0.4403640000000  0.4325840000000 1.0
C      1  0.5570660000000  0.4595630000000  0.5936010000000 1.0
C      1  0.5560780000000  0.5986510000000  0.4783030000000 1.0
C      1  0.5960470000000  0.5516250000000  0.4843390000000 1.0
C      1  0.5913630000000  0.4762780000000  0.5503290000000 1.0
C      1  0.5907190000000  0.4677610000000  0.4679040000000 1.0
C      1  0.4022550000000  0.4273220000000  0.4805830000000 1.0
C      1  0.4129980000000  0.5176470000000  0.5683390000000 1.0
C      1  0.3981930000000  0.5379200000000  0.4906300000000 1.0
C      1  0.5435290000000  0.4789110000000  0.4669140000000 1.0
C      1  0.5568190000000  0.5440580000000  0.4839370000000 1.0
C      1  0.5345140000000  0.4830780000000  0.5408670000000 1.0
C      1  0.4562970000000  0.5114650000000  0.4698430000000 1.0
C      1  0.4473620000000  0.4343230000000  0.4797170000000 1.0
C      1  0.4538750000000  0.5266810000000  0.5279050000000 1.0
C      1  0.5197800000000  0.6183890000000  0.5053120000000 1.0
C      1  0.5105450000000  0.4370810000000  0.5884600000000 1.0
C      1  0.5189580000000  0.4452440000000  0.4014350000000 1.0
C      1  0.4850710000000  0.3841990000000  0.5107490000000 1.0
C      1  0.4875280000000  0.5739750000000  0.5916070000000 1.0
C      1  0.4796910000000  0.5534830000000  0.3946770000000 1.0
C      1  0.5188820000000  0.4504030000000  0.5119680000000 1.0
C      1  0.5152340000000  0.5075410000000  0.4515910000000 1.0
C      1  0.5183180000000  0.5489590000000  0.5331280000000 1.0
C      1  0.4855220000000  0.5563720000000  0.5057130000000 1.0
C      1  0.4866500000000  0.4897810000000  0.4566220000000 1.0
C      1  0.4825220000000  0.4650600000000  0.5357130000000 1.0
C      1  0.5624590000000  0.4758040000000  0.4949910000000 1.0
C      1  0.5625440000000  0.5157680000000  0.4938070000000 1.0
C      1  0.5617820000000  0.5061080000000  0.5230220000000 1.0
C      1  0.4367530000000  0.5352530000000  0.4804720000000 1.0
C      1  0.4320170000000  0.4710440000000  0.4783100000000 1.0
C      1  0.4377020000000  0.5015740000000  0.5262710000000 1.0
C      1  0.4107660000000  0.5328870000000  0.4615140000000 1.0
C      1  0.4111470000000  0.5044090000000  0.5443590000000 1.0
C      1  0.4134160000000  0.4537040000000  0.4913040000000 1.0
C      1  0.5930020000000  0.4904150000000  0.4931540000000 1.0
C      1  0.5854790000000  0.4859110000000  0.5260060000000 1.0
C      1  0.5929590000000  0.5241350000000  0.4872370000000 1.0
C      1  0.5560860000000  0.4375130000000  0.5089160000000 1.0
C      1  0.5625350000000  0.5194710000000  0.4366210000000 1.0
C      1  0.5568370000000  0.5418880000000  0.5391860000000 1.0
C      1  0.4372070000000  0.5564500000000  0.5239140000000 1.0
C      1  0.4468170000000  0.4894350000000  0.4464270000000 1.0
C      1  0.4385940000000  0.4550640000000  0.5290430000000 1.0
C      1  0.4426900000000  0.4807690000000  0.5507330000000 1.0
C      1  0.4490720000000  0.4562340000000  0.4530520000000 1.0
C      1  0.4409380000000  0.5657280000000  0.4914000000000 1.0
C      1  0.5469380000000  0.5093740000000  0.5534460000000 1.0
C      1  0.5482050000000  0.5430090000000  0.4566150000000 1.0
C      1  0.5452320000000  0.4484310000000  0.4819150000000 1.0
C      1  0.5237990000000  0.3938310000000  0.5098510000000 1.0
C      1  0.5233550000000  0.5534040000000  0.4203840000000 1.0
C      1  0.5280610000000  0.5455790000000  0.5824660000000 1.0
C      1  0.4720380000000  0.5966010000000  0.5047490000000 1.0
C      1  0.4696060000000  0.4550430000000  0.4115440000000 1.0
C      1  0.4716390000000  0.4441250000000  0.5833280000000 1.0
C      1  0.4991180000000  0.4769400000000  0.5640470000000 1.0
C      1  0.5141060000000  0.4598580000000  0.4480010000000 1.0
C      1  0.5135710000000  0.5588370000000  0.4860570000000 1.0
C      1  0.4935940000000  0.5430290000000  0.5528150000000 1.0
C      1  0.5007510000000  0.5359880000000  0.4482520000000 1.0
C      1  0.4949900000000  0.4350750000000  0.4993700000000 1.0
C      1  0.5106890000000  0.3909070000000  0.5583480000000 1.0
C      1  0.5129350000000  0.5139610000000  0.3878640000000 1.0
C      1  0.5266480000000  0.5965800000000  0.5781650000000 1.0
C      1  0.4739380000000  0.6198150000000  0.5560150000000 1.0
C      1  0.4760110000000  0.4876990000000  0.3894040000000 1.0
C      1  0.4802170000000  0.3934290000000  0.5641100000000 1.0
C      1  0.5003310000000  0.5475160000000  0.5983620000000 1.0
C      1  0.5011260000000  0.3821060000000  0.4841950000000 1.0
C      1  0.4988870000000  0.5715640000000  0.4077790000000 1.0
C      1  0.4957380000000  0.4626270000000  0.6009420000000 1.0
C      1  0.4951800000000  0.6099630000000  0.4834070000000 1.0
C      1  0.5071070000000  0.4210180000000  0.4142210000000 1.0
C      1  0.5740970000000  0.5241730000000  0.5868380000000 1.0
C      1  0.5559170000000  0.3894260000000  0.4869900000000 1.0
C      1  0.5597790000000  0.5742320000000  0.4228350000000 1.0
C      1  0.4394290000000  0.4849180000000  0.5811580000000 1.0
C      1  0.4360730000000  0.5848970000000  0.4641290000000 1.0
C      1  0.4600520000000  0.4044430000000  0.4137150000000 1.0
C      1  0.4720020000000  0.4944340000000  0.5604390000000 1.0
C      1  0.4753130000000  0.4362320000000  0.4522300000000 1.0
C      1  0.4664050000000  0.5593600000000  0.4689230000000 1.0
C      1  0.5357890000000  0.5142920000000  0.5810730000000 1.0
C      1  0.5209190000000  0.5629670000000  0.4529470000000 1.0
C      1  0.5207930000000  0.4297390000000  0.4778380000000 1.0
C      1  0.4854090000000  0.5849150000000  0.4287270000000 1.0
C      1  0.4765060000000  0.5319110000000  0.6062430000000 1.0
C      1  0.4790500000000  0.3932870000000  0.4639830000000 1.0
C      1  0.5272360000000  0.4331070000000  0.4386040000000 1.0
C      1  0.5441310000000  0.4822770000000  0.6031870000000 1.0
C      1  0.5250820000000  0.6012280000000  0.4697090000000 1.0
C      1  0.5579530000000  0.4893340000000  0.4379280000000 1.0
C      1  0.5618850000000  0.5616120000000  0.5126390000000 1.0
C      1  0.5568000000000  0.4574660000000  0.5434990000000 1.0
C      1  0.4183300000000  0.5296890000000  0.4296790000000 1.0
C      1  0.4303100000000  0.4299140000000  0.5087760000000 1.0
C      1  0.4312520000000  0.5608080000000  0.5571480000000 1.0
C      1  0.4067400000000  0.5470240000000  0.5121690000000 1.0
C      1  0.4291460000000  0.4441760000000  0.5582120000000 1.0
C      1  0.4238380000000  0.4981820000000  0.4251080000000 1.0
C      1  0.5702580000000  0.4257100000000  0.5363750000000 1.0
C      1  0.5722960000000  0.5712490000000  0.5771360000000 1.0
C      1  0.5827750000000  0.5278210000000  0.4106080000000 1.0
C      1  0.5390060000000  0.4356630000000  0.5912920000000 1.0
C      1  0.5453370000000  0.4522850000000  0.4085730000000 1.0
C      1  0.5463460000000  0.6095180000000  0.5046150000000 1.0
C      1  0.4594710000000  0.5717100000000  0.5917780000000 1.0
C      1  0.4551060000000  0.5542810000000  0.4079630000000 1.0
C      1  0.4580950000000  0.3893950000000  0.5080110000000 1.0
C      1  0.4477510000000  0.4283690000000  0.5702150000000 1.0
C      1  0.4481280000000  0.4756120000000  0.4153900000000 1.0
C      1  0.4508130000000  0.5876090000000  0.5231430000000 1.0
C      1  0.5591350000000  0.5465840000000  0.5709960000000 1.0
C      1  0.5534920000000  0.5445020000000  0.4151030000000 1.0
C      1  0.5561020000000  0.4039120000000  0.5141170000000 1.0
C      1  0.5737670000000  0.4617360000000  0.4473110000000 1.0
C      1  0.5769550000000  0.5778060000000  0.4868060000000 1.0
C      1  0.5733000000000  0.4643340000000  0.5711220000000 1.0
C      1  0.4290040000000  0.5572830000000  0.4470480000000 1.0
C      1  0.4210760000000  0.4053130000000  0.4868330000000 1.0
C      1  0.4299210000000  0.5386530000000  0.5758240000000 1.0
C      1  0.5300780000000  0.5865320000000  0.5449860000000 1.0
C      1  0.5303180000000  0.4117160000000  0.5536290000000 1.0
C      1  0.5270580000000  0.4946870000000  0.3990190000000 1.0
C      1  0.4548890000000  0.4061780000000  0.5543130000000 1.0
C      1  0.4653180000000  0.5941910000000  0.5499450000000 1.0
C      1  0.4600940000000  0.5066090000000  0.4108290000000 1.0
C      1  0.5013640000000  0.4165770000000  0.4532210000000 1.0
C      1  0.5038520000000  0.5920020000000  0.4482460000000 1.0
C      1  0.5157750000000  0.4876210000000  0.5895350000000 1.0
C      1  0.5052010000000  0.4944570000000  0.5017470000000 1.0
END
