TITL C-3289333-7213-657 -0.000987816243837468 125000 -830.477492287423 0 0 146 (C1) n - 1
REM
REM in /nfs/bkarasulu/CARBON/AIRSS/Generating-Clusters/AIREBO/with-SteepDescent/Higher-Symm/SD-CG/HFTN-CG
REM
REM
REM
REM
REM
REM ./C.cell (b20cbc046b6831c77cfcea5457e17084)
REM
REM compiler GCC version 9.2.1 20190827 (Red Hat 9.2.1-1)
REM options -cpp -mtune=generic -march=x86-64 -g -O0 -fpre-include=/usr/include/finclude/math-vector-fortran.h
REM seed -1663598778 1263173024 -757562690 -1738599916 -1612736842 327849621 -929948410 -1855476767 583696234 858087362 -1790153400 -2096754056 849624528 811736629 -2140098316 432198598 301084262 462237120 381104690 -613399554 -107557521 1855369521 1013425982 366403338 -1234657541 1390823579 -44170931 -1436488753 270097792 -987985349 1518678319 -1060761158 -1219436545
REM
CELL 1.54180   50.00000   50.00000   50.00000   90.00000   90.00000   90.00000
LATT -1
SFAC C  
C      1  0.5185800000000  0.5784490000000  0.5631040000000 1.0
C      1  0.5922400000000  0.5107300000000  0.5672220000000 1.0
C      1  0.5468660000000  0.4164460000000  0.5637480000000 1.0
C      1  0.4410360000000  0.4407610000000  0.5612510000000 1.0
C      1  0.4166270000000  0.5441910000000  0.5641220000000 1.0
C      1  0.5080220000000  0.5680860000000  0.4439990000000 1.0
C      1  0.5758280000000  0.5075520000000  0.4138530000000 1.0
C      1  0.5408470000000  0.4156470000000  0.4404120000000 1.0
C      1  0.4472800000000  0.4393100000000  0.4232730000000 1.0
C      1  0.4300210000000  0.5466750000000  0.4388570000000 1.0
C      1  0.4784220000000  0.5431940000000  0.4834110000000 1.0
C      1  0.5298210000000  0.5360170000000  0.4833490000000 1.0
C      1  0.5517290000000  0.4813600000000  0.4816060000000 1.0
C      1  0.4945600000000  0.4543130000000  0.4861040000000 1.0
C      1  0.4314290000000  0.4753670000000  0.4783990000000 1.0
C      1  0.4709110000000  0.5422080000000  0.5148320000000 1.0
C      1  0.5252090000000  0.5429300000000  0.5138990000000 1.0
C      1  0.5458700000000  0.4885540000000  0.5127670000000 1.0
C      1  0.5055600000000  0.4566610000000  0.5181910000000 1.0
C      1  0.4561890000000  0.4722960000000  0.5146210000000 1.0
C      1  0.4758340000000  0.4670160000000  0.4192910000000 1.0
C      1  0.4765200000000  0.5350080000000  0.4179460000000 1.0
C      1  0.5056030000000  0.5435940000000  0.4125980000000 1.0
C      1  0.5276190000000  0.4897640000000  0.4257470000000 1.0
C      1  0.5093420000000  0.4619870000000  0.4222850000000 1.0
C      1  0.4717450000000  0.4886550000000  0.5774240000000 1.0
C      1  0.4760110000000  0.5195160000000  0.5734760000000 1.0
C      1  0.5035270000000  0.5339230000000  0.5859060000000 1.0
C      1  0.5375080000000  0.4866190000000  0.5755820000000 1.0
C      1  0.5251090000000  0.4592680000000  0.5866830000000 1.0
C      1  0.4715190000000  0.4688060000000  0.4714510000000 1.0
C      1  0.4634890000000  0.5223420000000  0.4662630000000 1.0
C      1  0.5044610000000  0.5285990000000  0.4699190000000 1.0
C      1  0.5508820000000  0.5132590000000  0.4818700000000 1.0
C      1  0.5240090000000  0.4676240000000  0.4830140000000 1.0
C      1  0.4795470000000  0.4652840000000  0.5307140000000 1.0
C      1  0.4477460000000  0.5037240000000  0.5146790000000 1.0
C      1  0.5016460000000  0.5417300000000  0.5294680000000 1.0
C      1  0.5450480000000  0.5192530000000  0.5161420000000 1.0
C      1  0.5283080000000  0.4735540000000  0.5304970000000 1.0
C      1  0.4428480000000  0.5703970000000  0.4834640000000 1.0
C      1  0.5517510000000  0.5823820000000  0.4709610000000 1.0
C      1  0.5915200000000  0.4818010000000  0.4785390000000 1.0
C      1  0.5112790000000  0.4100330000000  0.4795970000000 1.0
C      1  0.4108530000000  0.4613710000000  0.4562280000000 1.0
C      1  0.4448970000000  0.5863610000000  0.5268650000000 1.0
C      1  0.5469500000000  0.5748890000000  0.5236680000000 1.0
C      1  0.5934110000000  0.4793280000000  0.5301430000000 1.0
C      1  0.5123070000000  0.4107730000000  0.5293640000000 1.0
C      1  0.4144950000000  0.4582220000000  0.5217950000000 1.0
C      1  0.5981930000000  0.5058310000000  0.5381750000000 1.0
C      1  0.5394380000000  0.4113660000000  0.5356060000000 1.0
C      1  0.4306210000000  0.4344570000000  0.5336370000000 1.0
C      1  0.3996300000000  0.5655120000000  0.5664330000000 1.0
C      1  0.5256040000000  0.5880680000000  0.5368510000000 1.0
C      1  0.5891300000000  0.5088500000000  0.4714310000000 1.0
C      1  0.5377650000000  0.4105910000000  0.4696020000000 1.0
C      1  0.4246450000000  0.4393010000000  0.4451680000000 1.0
C      1  0.4223870000000  0.5539860000000  0.4712230000000 1.0
C      1  0.5192450000000  0.5883480000000  0.4692800000000 1.0
C      1  0.5253300000000  0.5413580000000  0.4384080000000 1.0
C      1  0.5576940000000  0.4872740000000  0.4312620000000 1.0
C      1  0.5166850000000  0.4375860000000  0.4385930000000 1.0
C      1  0.4472930000000  0.4706080000000  0.4363320000000 1.0
C      1  0.4560920000000  0.5590990000000  0.4284220000000 1.0
C      1  0.5284750000000  0.5501830000000  0.5694750000000 1.0
C      1  0.5657860000000  0.4916980000000  0.5633900000000 1.0
C      1  0.5218860000000  0.4370340000000  0.5653660000000 1.0
C      1  0.4451490000000  0.4737680000000  0.5683280000000 1.0
C      1  0.4436770000000  0.5480550000000  0.5483230000000 1.0
C      1  0.5695630000000  0.5534180000000  0.4714130000000 1.0
C      1  0.5780750000000  0.4546820000000  0.4700030000000 1.0
C      1  0.4865290000000  0.4107110000000  0.4657280000000 1.0
C      1  0.4061220000000  0.4938450000000  0.4651210000000 1.0
C      1  0.4614730000000  0.5890430000000  0.4720560000000 1.0
C      1  0.5664710000000  0.5572290000000  0.5345810000000 1.0
C      1  0.5818370000000  0.4478250000000  0.5311780000000 1.0
C      1  0.4802600000000  0.4194820000000  0.5311390000000 1.0
C      1  0.4114670000000  0.4848100000000  0.5287300000000 1.0
C      1  0.4704290000000  0.5994700000000  0.5389590000000 1.0
C      1  0.5645070000000  0.4597570000000  0.4411210000000 1.0
C      1  0.4908900000000  0.4205820000000  0.4397500000000 1.0
C      1  0.4280330000000  0.4931700000000  0.4391200000000 1.0
C      1  0.4616150000000  0.5887110000000  0.4441940000000 1.0
C      1  0.5557110000000  0.5427250000000  0.4426690000000 1.0
C      1  0.5705560000000  0.4621490000000  0.5589210000000 1.0
C      1  0.4931620000000  0.4293500000000  0.5610250000000 1.0
C      1  0.4245110000000  0.4927770000000  0.5575600000000 1.0
C      1  0.4659320000000  0.5709380000000  0.5569170000000 1.0
C      1  0.5574630000000  0.5459080000000  0.5634530000000 1.0
C      1  0.4722340000000  0.4630350000000  0.3859770000000 1.0
C      1  0.4652200000000  0.5241410000000  0.3939280000000 1.0
C      1  0.5152450000000  0.5493240000000  0.3888750000000 1.0
C      1  0.5209730000000  0.4871830000000  0.3937930000000 1.0
C      1  0.5010260000000  0.4669390000000  0.3885420000000 1.0
C      1  0.4839460000000  0.4772330000000  0.6030990000000 1.0
C      1  0.4658310000000  0.5357790000000  0.5991000000000 1.0
C      1  0.5043770000000  0.5373630000000  0.6155520000000 1.0
C      1  0.5372790000000  0.4913700000000  0.6071180000000 1.0
C      1  0.5062840000000  0.4620170000000  0.6058340000000 1.0
C      1  0.5158740000000  0.5095350000000  0.4456550000000 1.0
C      1  0.5056140000000  0.4895100000000  0.4711720000000 1.0
C      1  0.4845270000000  0.4848220000000  0.4449120000000 1.0
C      1  0.4931700000000  0.4981560000000  0.4964200000000 1.0
C      1  0.4765270000000  0.5141460000000  0.4404240000000 1.0
C      1  0.5106630000000  0.5255030000000  0.5544200000000 1.0
C      1  0.5180490000000  0.4944970000000  0.5530740000000 1.0
C      1  0.4878070000000  0.4894720000000  0.5500390000000 1.0
C      1  0.4797530000000  0.5039250000000  0.5207280000000 1.0
C      1  0.4686970000000  0.5256360000000  0.5444590000000 1.0
C      1  0.5391580000000  0.4494750000000  0.4612760000000 1.0
C      1  0.4523690000000  0.4452810000000  0.4624090000000 1.0
C      1  0.4351060000000  0.5196740000000  0.4576590000000 1.0
C      1  0.4944840000000  0.5667680000000  0.4737180000000 1.0
C      1  0.5645030000000  0.5123640000000  0.4518620000000 1.0
C      1  0.5438250000000  0.4502840000000  0.5428410000000 1.0
C      1  0.4712380000000  0.4539050000000  0.5577940000000 1.0
C      1  0.4304090000000  0.5188270000000  0.5364890000000 1.0
C      1  0.4907930000000  0.5689480000000  0.5361230000000 1.0
C      1  0.5611470000000  0.5190250000000  0.5436610000000 1.0
C      1  0.4117940000000  0.5186540000000  0.5718540000000 1.0
C      1  0.4929890000000  0.5838890000000  0.5729550000000 1.0
C      1  0.5849130000000  0.5353870000000  0.5769140000000 1.0
C      1  0.5703230000000  0.4299850000000  0.5692600000000 1.0
C      1  0.4636120000000  0.4192180000000  0.5747530000000 1.0
C      1  0.4188110000000  0.5193670000000  0.4217870000000 1.0
C      1  0.4852010000000  0.5768020000000  0.4268990000000 1.0
C      1  0.5745530000000  0.5323580000000  0.4187320000000 1.0
C      1  0.5636150000000  0.4284740000000  0.4310680000000 1.0
C      1  0.4697850000000  0.4232690000000  0.4217840000000 1.0
C      1  0.4907700000000  0.5957330000000  0.4881360000000 1.0
C      1  0.5847450000000  0.5338600000000  0.4872090000000 1.0
C      1  0.5567590000000  0.4335240000000  0.4859630000000 1.0
C      1  0.4634120000000  0.4222380000000  0.4791620000000 1.0
C      1  0.4132200000000  0.5225050000000  0.4823890000000 1.0
C      1  0.4979010000000  0.5962330000000  0.5188250000000 1.0
C      1  0.5829050000000  0.5307850000000  0.5203070000000 1.0
C      1  0.5566070000000  0.4323910000000  0.5168180000000 1.0
C      1  0.4556190000000  0.4261780000000  0.5120350000000 1.0
C      1  0.4088280000000  0.5116740000000  0.5112060000000 1.0
C      1  0.5068940000000  0.4275470000000  0.5031870000000 1.0
C      1  0.4377070000000  0.4520060000000  0.4989830000000 1.0
C      1  0.5399350000000  0.5657430000000  0.4948980000000 1.0
C      1  0.5758950000000  0.4770120000000  0.5051370000000 1.0
C      1  0.4489800000000  0.5652440000000  0.5102910000000 1.0
C      1  0.4556180000000  0.4963580000000  0.4828530000000 1.0
END
