TITL C-3289329-2751-390 -0.00406945267470292 125000 -609.120327171702 0 0 102 (C1) n - 1
REM
REM in /nfs/bkarasulu/CARBON/AIRSS/Generating-Clusters/AIREBO/with-SteepDescent/Higher-Symm/SD-CG/HFTN-CG
REM
REM
REM
REM
REM
REM ./C.cell (b20cbc046b6831c77cfcea5457e17084)
REM
REM compiler GCC version 9.2.1 20190827 (Red Hat 9.2.1-1)
REM options -cpp -mtune=generic -march=x86-64 -g -O0 -fpre-include=/usr/include/finclude/math-vector-fortran.h
REM seed 1655203505 -1044567090 -1826312163 -532677583 -883951098 -259536381 819097333 32863037 -1038224491 654573456 1037480983 908114400 318539879 1233150105 1957016571 -437761476 -657970589 924757098 -373464049 1855250306 -372003843 805313081 -255173188 -233203571 845981859 711251058 271196844 -2062767264 234890124 1440395997 -185005189 1361774494 790672068
REM
CELL 1.54180   50.00000   50.00000   50.00000   90.00000   90.00000   90.00000
LATT -1
SFAC C  
C      1  0.5333130000000  0.5796670000000  0.4747680000000 1.0
C      1  0.4126630000000  0.4811320000000  0.4707840000000 1.0
C      1  0.5538630000000  0.4363090000000  0.4726880000000 1.0
C      1  0.5296770000000  0.5801050000000  0.5250780000000 1.0
C      1  0.4076730000000  0.4832550000000  0.5205920000000 1.0
C      1  0.5577590000000  0.4361680000000  0.5270760000000 1.0
C      1  0.5277690000000  0.4241740000000  0.4749760000000 1.0
C      1  0.4121350000000  0.5090650000000  0.4684350000000 1.0
C      1  0.5578420000000  0.5634760000000  0.4766450000000 1.0
C      1  0.5309040000000  0.4289350000000  0.5271580000000 1.0
C      1  0.4083620000000  0.5135460000000  0.5217880000000 1.0
C      1  0.5537940000000  0.5651860000000  0.5274290000000 1.0
C      1  0.5049470000000  0.5368980000000  0.5109270000000 1.0
C      1  0.4773530000000  0.4907770000000  0.5192760000000 1.0
C      1  0.5234240000000  0.4792110000000  0.5105540000000 1.0
C      1  0.4885950000000  0.5370770000000  0.4818350000000 1.0
C      1  0.4595110000000  0.4788530000000  0.4717020000000 1.0
C      1  0.5434490000000  0.4836520000000  0.4834280000000 1.0
C      1  0.4946590000000  0.4700260000000  0.5055510000000 1.0
C      1  0.4667680000000  0.5112700000000  0.5069980000000 1.0
C      1  0.5357250000000  0.5229850000000  0.5156920000000 1.0
C      1  0.4887270000000  0.4722870000000  0.4770940000000 1.0
C      1  0.4664670000000  0.5120670000000  0.4754190000000 1.0
C      1  0.5305050000000  0.5112470000000  0.4882160000000 1.0
C      1  0.5011530000000  0.4770110000000  0.4279560000000 1.0
C      1  0.5218400000000  0.5179910000000  0.4151960000000 1.0
C      1  0.4759040000000  0.5170400000000  0.4275140000000 1.0
C      1  0.5070150000000  0.4777350000000  0.5883110000000 1.0
C      1  0.5285670000000  0.5190010000000  0.5831250000000 1.0
C      1  0.4780420000000  0.5139730000000  0.5808090000000 1.0
C      1  0.5003030000000  0.5299920000000  0.4290680000000 1.0
C      1  0.5266270000000  0.4913570000000  0.4225710000000 1.0
C      1  0.4765500000000  0.4894850000000  0.4249680000000 1.0
C      1  0.5009360000000  0.5278290000000  0.5733150000000 1.0
C      1  0.5295610000000  0.4935490000000  0.5955740000000 1.0
C      1  0.4829830000000  0.4908440000000  0.5966880000000 1.0
C      1  0.4777420000000  0.5916030000000  0.5228620000000 1.0
C      1  0.4252490000000  0.4244070000000  0.5180960000000 1.0
C      1  0.5893430000000  0.4574020000000  0.5133780000000 1.0
C      1  0.4921490000000  0.5882620000000  0.4974830000000 1.0
C      1  0.4201430000000  0.4447800000000  0.4971370000000 1.0
C      1  0.5891270000000  0.4534100000000  0.4804700000000 1.0
C      1  0.4923870000000  0.4171740000000  0.5055710000000 1.0
C      1  0.4299890000000  0.5451740000000  0.5137000000000 1.0
C      1  0.5842780000000  0.5364960000000  0.5070270000000 1.0
C      1  0.4717050000000  0.4054630000000  0.4912550000000 1.0
C      1  0.4244350000000  0.5576100000000  0.4855250000000 1.0
C      1  0.6020440000000  0.5238060000000  0.4896520000000 1.0
C      1  0.4274810000000  0.4641670000000  0.4526000000000 1.0
C      1  0.5578800000000  0.4584580000000  0.4560740000000 1.0
C      1  0.5144520000000  0.5721730000000  0.4549850000000 1.0
C      1  0.4237160000000  0.4748160000000  0.5457380000000 1.0
C      1  0.5662050000000  0.4541070000000  0.5457450000000 1.0
C      1  0.5096720000000  0.5719640000000  0.5426850000000 1.0
C      1  0.4245990000000  0.5202230000000  0.4467970000000 1.0
C      1  0.5570660000000  0.5382270000000  0.4599790000000 1.0
C      1  0.5058950000000  0.4320720000000  0.4564310000000 1.0
C      1  0.4270470000000  0.5054660000000  0.5472540000000 1.0
C      1  0.5544110000000  0.5447500000000  0.5476590000000 1.0
C      1  0.5125950000000  0.4424040000000  0.5444160000000 1.0
C      1  0.4520950000000  0.4441280000000  0.4399700000000 1.0
C      1  0.5700850000000  0.4856610000000  0.4439840000000 1.0
C      1  0.4845480000000  0.5724810000000  0.4447120000000 1.0
C      1  0.4506770000000  0.4617640000000  0.5463370000000 1.0
C      1  0.5595760000000  0.4859100000000  0.5462390000000 1.0
C      1  0.4783240000000  0.5685670000000  0.5523360000000 1.0
C      1  0.4578940000000  0.5580470000000  0.4476870000000 1.0
C      1  0.5741650000000  0.5164740000000  0.4508280000000 1.0
C      1  0.4767150000000  0.4277340000000  0.4492930000000 1.0
C      1  0.4663740000000  0.5398260000000  0.5526600000000 1.0
C      1  0.5708310000000  0.5166020000000  0.5558710000000 1.0
C      1  0.4794250000000  0.4437060000000  0.5494250000000 1.0
C      1  0.4755340000000  0.4845770000000  0.5492200000000 1.0
C      1  0.5280630000000  0.4868280000000  0.5405690000000 1.0
C      1  0.5054360000000  0.5402570000000  0.5447640000000 1.0
C      1  0.4555450000000  0.4765050000000  0.4397780000000 1.0
C      1  0.5321180000000  0.4775730000000  0.4529300000000 1.0
C      1  0.5074230000000  0.5416670000000  0.4557770000000 1.0
C      1  0.4550010000000  0.5101100000000  0.5585500000000 1.0
C      1  0.5316670000000  0.5195040000000  0.5492460000000 1.0
C      1  0.5051330000000  0.4726130000000  0.5581330000000 1.0
C      1  0.4553120000000  0.5275870000000  0.4473520000000 1.0
C      1  0.5314270000000  0.5279830000000  0.4664660000000 1.0
C      1  0.5047380000000  0.4618970000000  0.4552240000000 1.0
C      1  0.4527070000000  0.4443960000000  0.5198240000000 1.0
C      1  0.5770020000000  0.4865270000000  0.5176340000000 1.0
C      1  0.4797090000000  0.5577710000000  0.5200870000000 1.0
C      1  0.4494900000000  0.4496250000000  0.4860180000000 1.0
C      1  0.5750720000000  0.4821970000000  0.4857650000000 1.0
C      1  0.4788830000000  0.5686060000000  0.4795470000000 1.0
C      1  0.4562100000000  0.5353220000000  0.5214070000000 1.0
C      1  0.5675530000000  0.5168680000000  0.5224530000000 1.0
C      1  0.4841500000000  0.4433340000000  0.5164900000000 1.0
C      1  0.4455620000000  0.5686290000000  0.4727490000000 1.0
C      1  0.5901090000000  0.5049580000000  0.4726290000000 1.0
C      1  0.4601980000000  0.4235730000000  0.4732020000000 1.0
C      1  0.5199680000000  0.4177740000000  0.5024880000000 1.0
C      1  0.5204970000000  0.5878460000000  0.4990690000000 1.0
C      1  0.4111180000000  0.5268960000000  0.4925910000000 1.0
C      1  0.4068970000000  0.4691340000000  0.4961330000000 1.0
C      1  0.5691500000000  0.5600210000000  0.5034490000000 1.0
C      1  0.5726410000000  0.4309360000000  0.4993930000000 1.0
END
