TITL C-3289330-4660-726 0.000883437471829926 125000 -765.684236361141 0 0 151 (C1) n - 1
REM
REM in /nfs/bkarasulu/CARBON/AIRSS/Generating-Clusters/AIREBO/with-SteepDescent/Higher-Symm/SD-CG/HFTN-CG
REM
REM
REM
REM
REM
REM ./C.cell (b20cbc046b6831c77cfcea5457e17084)
REM
REM compiler GCC version 9.2.1 20190827 (Red Hat 9.2.1-1)
REM options -cpp -mtune=generic -march=x86-64 -g -O0 -fpre-include=/usr/include/finclude/math-vector-fortran.h
REM seed 991837701 -1312801097 -1938882857 -45646170 1898161647 -1173096678 -297328996 -887672445 815319877 -2772783 1046533271 1339934097 -488415862 -1799735642 -641338035 1362881198 -112797607 362585592 700369416 33175696 -1049714722 -1639609597 1763961434 201521331 -1816385126 -1138961998 89375071 133986423 -1189315662 1026586347 1165375839 -128497990 1180826202
REM
CELL 1.54180   50.00000   50.00000   50.00000   90.00000   90.00000   90.00000
LATT -1
SFAC C  
C      1  0.4626850000000  0.4378080000000  0.5096730000000 1.0
C      1  0.4709260000000  0.4809930000000  0.4529070000000 1.0
C      1  0.4737910000000  0.5399990000000  0.4620050000000 1.0
C      1  0.4624460000000  0.5421810000000  0.5273770000000 1.0
C      1  0.4681720000000  0.4934370000000  0.5597850000000 1.0
C      1  0.4376500000000  0.5007850000000  0.5505450000000 1.0
C      1  0.4326790000000  0.4401510000000  0.5057510000000 1.0
C      1  0.4424310000000  0.4913280000000  0.4517150000000 1.0
C      1  0.4226040000000  0.5496380000000  0.4525790000000 1.0
C      1  0.4214830000000  0.5500240000000  0.5216650000000 1.0
C      1  0.5116040000000  0.5658370000000  0.4518900000000 1.0
C      1  0.5134970000000  0.5616070000000  0.5436850000000 1.0
C      1  0.5083270000000  0.4686700000000  0.5716270000000 1.0
C      1  0.5097280000000  0.4287370000000  0.4956800000000 1.0
C      1  0.5150100000000  0.4781440000000  0.4278290000000 1.0
C      1  0.4469420000000  0.3935010000000  0.5095750000000 1.0
C      1  0.4442020000000  0.4505700000000  0.4320190000000 1.0
C      1  0.4411900000000  0.5573930000000  0.4250710000000 1.0
C      1  0.4372330000000  0.5798510000000  0.5259470000000 1.0
C      1  0.4389960000000  0.5057930000000  0.5841490000000 1.0
C      1  0.4803420000000  0.4129140000000  0.5403360000000 1.0
C      1  0.4818200000000  0.4343830000000  0.4347700000000 1.0
C      1  0.4829210000000  0.5579040000000  0.4198910000000 1.0
C      1  0.4875290000000  0.5865980000000  0.5264390000000 1.0
C      1  0.4956670000000  0.5120200000000  0.6076270000000 1.0
C      1  0.4681960000000  0.5843610000000  0.4844800000000 1.0
C      1  0.4741870000000  0.5438530000000  0.5726470000000 1.0
C      1  0.4573580000000  0.4357870000000  0.5850700000000 1.0
C      1  0.4748560000000  0.3974590000000  0.4683150000000 1.0
C      1  0.4646170000000  0.5071270000000  0.4081180000000 1.0
C      1  0.4198410000000  0.5317220000000  0.4253510000000 1.0
C      1  0.4222270000000  0.5722720000000  0.4959440000000 1.0
C      1  0.4270160000000  0.5340850000000  0.5698560000000 1.0
C      1  0.4186740000000  0.4527900000000  0.5297130000000 1.0
C      1  0.4288980000000  0.4631030000000  0.4545830000000 1.0
C      1  0.5607060000000  0.5722220000000  0.4512920000000 1.0
C      1  0.5617620000000  0.5663720000000  0.5506270000000 1.0
C      1  0.5621550000000  0.4639510000000  0.5689250000000 1.0
C      1  0.5602250000000  0.4114520000000  0.4981030000000 1.0
C      1  0.5634910000000  0.4851910000000  0.4217490000000 1.0
C      1  0.5155490000000  0.4779810000000  0.4764640000000 1.0
C      1  0.5165520000000  0.5191570000000  0.4768050000000 1.0
C      1  0.5147770000000  0.5302860000000  0.5145620000000 1.0
C      1  0.5141020000000  0.4980260000000  0.5376960000000 1.0
C      1  0.5066750000000  0.4673490000000  0.5136170000000 1.0
C      1  0.4825900000000  0.4419270000000  0.4856320000000 1.0
C      1  0.4978430000000  0.4994580000000  0.4480290000000 1.0
C      1  0.4930580000000  0.5621110000000  0.4792240000000 1.0
C      1  0.4906590000000  0.5362840000000  0.5454180000000 1.0
C      1  0.4816240000000  0.4643590000000  0.5508300000000 1.0
C      1  0.4576980000000  0.5539870000000  0.4956520000000 1.0
C      1  0.4774560000000  0.5155130000000  0.5803350000000 1.0
C      1  0.4688460000000  0.4367360000000  0.5576350000000 1.0
C      1  0.4725600000000  0.4248980000000  0.4622710000000 1.0
C      1  0.4690470000000  0.5293280000000  0.4320150000000 1.0
C      1  0.4832060000000  0.5059310000000  0.5319550000000 1.0
C      1  0.4771150000000  0.4632340000000  0.5198310000000 1.0
C      1  0.4851870000000  0.4712150000000  0.4791100000000 1.0
C      1  0.4839490000000  0.5111090000000  0.4768090000000 1.0
C      1  0.4881120000000  0.5420350000000  0.5050770000000 1.0
C      1  0.5079910000000  0.5790460000000  0.5046670000000 1.0
C      1  0.5157460000000  0.5235370000000  0.5880240000000 1.0
C      1  0.5061080000000  0.4280030000000  0.5466060000000 1.0
C      1  0.5089360000000  0.4330870000000  0.4478740000000 1.0
C      1  0.5068250000000  0.5353760000000  0.4216410000000 1.0
C      1  0.5744950000000  0.4521610000000  0.5110600000000 1.0
C      1  0.5714180000000  0.4782980000000  0.4602080000000 1.0
C      1  0.5702470000000  0.5350760000000  0.4633170000000 1.0
C      1  0.5696790000000  0.5393100000000  0.5222570000000 1.0
C      1  0.5696620000000  0.4961920000000  0.5399130000000 1.0
C      1  0.5273410000000  0.4499180000000  0.5311830000000 1.0
C      1  0.5322370000000  0.4501490000000  0.4662930000000 1.0
C      1  0.5262910000000  0.5186640000000  0.4442210000000 1.0
C      1  0.5288040000000  0.5538800000000  0.4948020000000 1.0
C      1  0.5337240000000  0.5127470000000  0.5612470000000 1.0
C      1  0.5134770000000  0.5963470000000  0.4759150000000 1.0
C      1  0.5192970000000  0.5532980000000  0.5757300000000 1.0
C      1  0.5101300000000  0.4362140000000  0.5786870000000 1.0
C      1  0.5235630000000  0.4112460000000  0.4629760000000 1.0
C      1  0.5145440000000  0.5059390000000  0.4082470000000 1.0
C      1  0.5484340000000  0.5290840000000  0.4832150000000 1.0
C      1  0.5429640000000  0.5244230000000  0.5306660000000 1.0
C      1  0.5427010000000  0.4798920000000  0.5358750000000 1.0
C      1  0.5490320000000  0.4631530000000  0.4928710000000 1.0
C      1  0.5420660000000  0.4933850000000  0.4606280000000 1.0
C      1  0.5716410000000  0.5865660000000  0.4306980000000 1.0
C      1  0.5497220000000  0.5951200000000  0.5363400000000 1.0
C      1  0.5570640000000  0.4766230000000  0.5981110000000 1.0
C      1  0.5717760000000  0.3890700000000  0.5030750000000 1.0
C      1  0.5590380000000  0.4560060000000  0.4057530000000 1.0
C      1  0.4781090000000  0.4076090000000  0.5068200000000 1.0
C      1  0.4749280000000  0.4643790000000  0.4267160000000 1.0
C      1  0.4645720000000  0.5690220000000  0.4468560000000 1.0
C      1  0.4637490000000  0.5710320000000  0.5453380000000 1.0
C      1  0.4554460000000  0.4755230000000  0.5857420000000 1.0
C      1  0.5392230000000  0.4418440000000  0.5620040000000 1.0
C      1  0.5519400000000  0.4226580000000  0.4698280000000 1.0
C      1  0.5458490000000  0.5101500000000  0.4177380000000 1.0
C      1  0.5430140000000  0.5797070000000  0.4785450000000 1.0
C      1  0.5506800000000  0.5412310000000  0.5688680000000 1.0
C      1  0.4589580000000  0.5404800000000  0.4015210000000 1.0
C      1  0.4621970000000  0.5940720000000  0.5128100000000 1.0
C      1  0.4624570000000  0.5072480000000  0.6089800000000 1.0
C      1  0.4593430000000  0.3882450000000  0.5358490000000 1.0
C      1  0.4579660000000  0.4315500000000  0.4114580000000 1.0
C      1  0.4908330000000  0.5704700000000  0.5659090000000 1.0
C      1  0.4836990000000  0.4554120000000  0.5896670000000 1.0
C      1  0.5024860000000  0.3971280000000  0.4855480000000 1.0
C      1  0.4875810000000  0.4858740000000  0.4078340000000 1.0
C      1  0.4901950000000  0.5908800000000  0.4517890000000 1.0
C      1  0.4415340000000  0.5806070000000  0.4691870000000 1.0
C      1  0.4456520000000  0.5553440000000  0.5704630000000 1.0
C      1  0.4337600000000  0.4507320000000  0.5942220000000 1.0
C      1  0.4267920000000  0.4096680000000  0.5012690000000 1.0
C      1  0.4374010000000  0.5035220000000  0.4248730000000 1.0
C      1  0.5858200000000  0.5448300000000  0.5503620000000 1.0
C      1  0.5798850000000  0.4662980000000  0.5415390000000 1.0
C      1  0.5856850000000  0.4549210000000  0.4803600000000 1.0
C      1  0.5757800000000  0.5075750000000  0.4440720000000 1.0
C      1  0.5790060000000  0.5626640000000  0.4766560000000 1.0
C      1  0.5436880000000  0.4617860000000  0.4364580000000 1.0
C      1  0.5358650000000  0.5512660000000  0.4475580000000 1.0
C      1  0.5390790000000  0.5647520000000  0.5253410000000 1.0
C      1  0.5342560000000  0.4826820000000  0.5747860000000 1.0
C      1  0.5386760000000  0.4338140000000  0.5057610000000 1.0
C      1  0.4367330000000  0.5087860000000  0.4748690000000 1.0
C      1  0.4424820000000  0.5371130000000  0.4721540000000 1.0
C      1  0.4382010000000  0.5206490000000  0.5254310000000 1.0
C      1  0.4262430000000  0.4790630000000  0.5319120000000 1.0
C      1  0.4275740000000  0.4653300000000  0.4885870000000 1.0
C      1  0.4096640000000  0.5363710000000  0.5489500000000 1.0
C      1  0.4011750000000  0.4387760000000  0.5452280000000 1.0
C      1  0.3996010000000  0.4655310000000  0.4712710000000 1.0
C      1  0.4086860000000  0.5064310000000  0.4093600000000 1.0
C      1  0.4051740000000  0.5657780000000  0.4688920000000 1.0
C      1  0.5641270000000  0.4368510000000  0.5397200000000 1.0
C      1  0.5692180000000  0.4453510000000  0.4520950000000 1.0
C      1  0.5602620000000  0.5354020000000  0.4313810000000 1.0
C      1  0.5658020000000  0.5668250000000  0.5043950000000 1.0
C      1  0.5733630000000  0.5169060000000  0.5615460000000 1.0
C      1  0.4046130000000  0.5003390000000  0.5050450000000 1.0
C      1  0.5497880000000  0.4967270000000  0.4935770000000 1.0
C      1  0.6037920000000  0.5056390000000  0.5025570000000 1.0
C      1  0.4379980000000  0.4939720000000  0.5036970000000 1.0
C      1  0.6282430000000  0.5004200000000  0.4941020000000 1.0
C      1  0.3786560000000  0.5050410000000  0.5057600000000 1.0
C      1  0.5750750000000  0.5087070000000  0.5124290000000 1.0
C      1  0.4719530000000  0.4920510000000  0.5025160000000 1.0
C      1  0.5173920000000  0.4981120000000  0.5038220000000 1.0
C      1  0.6521570000000  0.4970420000000  0.4839310000000 1.0
C      1  0.3529140000000  0.5098700000000  0.5065190000000 1.0
END
