TITL C-3289329-2751-523 0.00149780054936533 125000 -882.27771976575 0 0 171 (C1) n - 1
REM
REM in /nfs/bkarasulu/CARBON/AIRSS/Generating-Clusters/AIREBO/with-SteepDescent/Higher-Symm/SD-CG/HFTN-CG
REM
REM
REM
REM
REM
REM ./C.cell (b20cbc046b6831c77cfcea5457e17084)
REM
REM compiler GCC version 9.2.1 20190827 (Red Hat 9.2.1-1)
REM options -cpp -mtune=generic -march=x86-64 -g -O0 -fpre-include=/usr/include/finclude/math-vector-fortran.h
REM seed 250774159 988983578 1515053591 -518107291 15855785 1838414805 -1479035668 752359904 -993687793 -423012424 1742626777 -1030731368 1947602477 -898046486 395285990 -643305833 -915063020 -492784219 -597520169 -151678323 -1853873785 -1680222437 1104086868 -231163443 1488666416 -68304202 -1642653362 182736051 -1057476068 -140768864 -1985496178 -1125313711 1959511743
REM
CELL 1.54180   50.00000   50.00000   50.00000   90.00000   90.00000   90.00000
LATT -1
SFAC C  
C      1  0.4071940000000  0.4411830000000  0.5331790000000 1.0
C      1  0.5794050000000  0.5632880000000  0.5221220000000 1.0
C      1  0.5788370000000  0.4383670000000  0.4753830000000 1.0
C      1  0.4107460000000  0.5671620000000  0.4626280000000 1.0
C      1  0.4337690000000  0.4208700000000  0.5341900000000 1.0
C      1  0.5595810000000  0.5882060000000  0.5247020000000 1.0
C      1  0.4398800000000  0.5759000000000  0.4723640000000 1.0
C      1  0.5550890000000  0.4223030000000  0.4794660000000 1.0
C      1  0.6014250000000  0.4828710000000  0.4886600000000 1.0
C      1  0.3840360000000  0.5254180000000  0.4815840000000 1.0
C      1  0.4013160000000  0.4770640000000  0.5091580000000 1.0
C      1  0.6151960000000  0.5317780000000  0.5122100000000 1.0
C      1  0.4686110000000  0.6129450000000  0.4879280000000 1.0
C      1  0.5158960000000  0.3970950000000  0.4853300000000 1.0
C      1  0.4694010000000  0.3912840000000  0.5185640000000 1.0
C      1  0.5218670000000  0.5976800000000  0.5131120000000 1.0
C      1  0.5457220000000  0.5622020000000  0.4592670000000 1.0
C      1  0.4439540000000  0.4252450000000  0.4574730000000 1.0
C      1  0.4558060000000  0.5648050000000  0.5425000000000 1.0
C      1  0.5441160000000  0.4298650000000  0.5423600000000 1.0
C      1  0.5705650000000  0.5455150000000  0.4537240000000 1.0
C      1  0.4405260000000  0.4555120000000  0.4566640000000 1.0
C      1  0.5625930000000  0.4555050000000  0.5390540000000 1.0
C      1  0.4318310000000  0.5437100000000  0.5433350000000 1.0
C      1  0.5161110000000  0.4959880000000  0.5814680000000 1.0
C      1  0.4699400000000  0.4975040000000  0.5841640000000 1.0
C      1  0.4740160000000  0.5087790000000  0.4122720000000 1.0
C      1  0.5334490000000  0.4930290000000  0.4120500000000 1.0
C      1  0.5099940000000  0.5269050000000  0.5889140000000 1.0
C      1  0.4912710000000  0.4759330000000  0.5932370000000 1.0
C      1  0.5209730000000  0.4663730000000  0.3968050000000 1.0
C      1  0.4922010000000  0.5347530000000  0.4135050000000 1.0
C      1  0.5497820000000  0.4739530000000  0.4484750000000 1.0
C      1  0.4531090000000  0.5256380000000  0.4433690000000 1.0
C      1  0.4569740000000  0.4790300000000  0.5514700000000 1.0
C      1  0.5464590000000  0.5280910000000  0.5578730000000 1.0
C      1  0.4725080000000  0.5515860000000  0.4436860000000 1.0
C      1  0.5308840000000  0.4499220000000  0.4443700000000 1.0
C      1  0.4799880000000  0.4591750000000  0.5589320000000 1.0
C      1  0.5222190000000  0.5501850000000  0.5543200000000 1.0
C      1  0.5510940000000  0.3807310000000  0.5138140000000 1.0
C      1  0.4309650000000  0.5831430000000  0.5282550000000 1.0
C      1  0.4251070000000  0.4155570000000  0.4774220000000 1.0
C      1  0.5560510000000  0.6055870000000  0.4753800000000 1.0
C      1  0.4075070000000  0.5576420000000  0.5269800000000 1.0
C      1  0.6085330000000  0.4455420000000  0.5166330000000 1.0
C      1  0.4001400000000  0.4342800000000  0.4829980000000 1.0
C      1  0.5982220000000  0.5570770000000  0.4680520000000 1.0
C      1  0.4678490000000  0.5583280000000  0.4106840000000 1.0
C      1  0.5339150000000  0.4401890000000  0.4138840000000 1.0
C      1  0.5343410000000  0.5461550000000  0.5918870000000 1.0
C      1  0.4720100000000  0.4480940000000  0.5898880000000 1.0
C      1  0.5551610000000  0.4669780000000  0.4095810000000 1.0
C      1  0.4475440000000  0.5300110000000  0.4101100000000 1.0
C      1  0.5608280000000  0.5313750000000  0.5866220000000 1.0
C      1  0.4478890000000  0.4723560000000  0.5888620000000 1.0
C      1  0.5039610000000  0.5719450000000  0.5262960000000 1.0
C      1  0.4883990000000  0.4258020000000  0.5318670000000 1.0
C      1  0.4953800000000  0.5749640000000  0.4670480000000 1.0
C      1  0.5011270000000  0.4268880000000  0.4782250000000 1.0
C      1  0.5735760000000  0.5100520000000  0.5330340000000 1.0
C      1  0.4269100000000  0.4970850000000  0.5191950000000 1.0
C      1  0.5709570000000  0.4947600000000  0.4787570000000 1.0
C      1  0.4296700000000  0.5048590000000  0.4681740000000 1.0
C      1  0.4898320000000  0.5345280000000  0.5255540000000 1.0
C      1  0.5087880000000  0.4572670000000  0.5186990000000 1.0
C      1  0.5079710000000  0.5327550000000  0.4794180000000 1.0
C      1  0.4865900000000  0.4649770000000  0.4782310000000 1.0
C      1  0.5421490000000  0.4887650000000  0.5204790000000 1.0
C      1  0.4654370000000  0.5112730000000  0.5210090000000 1.0
C      1  0.5357870000000  0.5134160000000  0.4764140000000 1.0
C      1  0.4646660000000  0.4871280000000  0.4753700000000 1.0
C      1  0.5240290000000  0.5752010000000  0.5772760000000 1.0
C      1  0.4855320000000  0.4224000000000  0.5733980000000 1.0
C      1  0.4771160000000  0.5835450000000  0.4329930000000 1.0
C      1  0.5129350000000  0.4177030000000  0.4285630000000 1.0
C      1  0.5809680000000  0.5115170000000  0.5878720000000 1.0
C      1  0.4236930000000  0.4825360000000  0.5730820000000 1.0
C      1  0.5771930000000  0.4814560000000  0.4298040000000 1.0
C      1  0.4232240000000  0.5158200000000  0.4304210000000 1.0
C      1  0.6008550000000  0.4817020000000  0.4546740000000 1.0
C      1  0.4018040000000  0.5212660000000  0.4577660000000 1.0
C      1  0.4090400000000  0.4798490000000  0.5424520000000 1.0
C      1  0.5966630000000  0.5291660000000  0.5326350000000 1.0
C      1  0.4737120000000  0.5991400000000  0.4637680000000 1.0
C      1  0.5200740000000  0.3975640000000  0.4515860000000 1.0
C      1  0.4676300000000  0.4059400000000  0.5492260000000 1.0
C      1  0.5259090000000  0.5890510000000  0.5458670000000 1.0
C      1  0.5804660000000  0.4920120000000  0.5691000000000 1.0
C      1  0.4265030000000  0.5111640000000  0.5651930000000 1.0
C      1  0.4275000000000  0.4851190000000  0.4335030000000 1.0
C      1  0.5751210000000  0.5125230000000  0.4339520000000 1.0
C      1  0.4923250000000  0.5830980000000  0.5752890000000 1.0
C      1  0.5114410000000  0.4259690000000  0.5642030000000 1.0
C      1  0.4867390000000  0.4264160000000  0.4331690000000 1.0
C      1  0.5089290000000  0.5859570000000  0.4313950000000 1.0
C      1  0.4225650000000  0.5256030000000  0.5011710000000 1.0
C      1  0.5627460000000  0.4646930000000  0.5081040000000 1.0
C      1  0.5624170000000  0.5245500000000  0.4927600000000 1.0
C      1  0.4416500000000  0.4654920000000  0.4879610000000 1.0
C      1  0.5345230000000  0.4365480000000  0.5105910000000 1.0
C      1  0.4769340000000  0.5690430000000  0.5090690000000 1.0
C      1  0.5307790000000  0.5564120000000  0.4882350000000 1.0
C      1  0.4724050000000  0.4310870000000  0.4959510000000 1.0
C      1  0.5764910000000  0.5513530000000  0.4927370000000 1.0
C      1  0.4245600000000  0.4449530000000  0.5041450000000 1.0
C      1  0.4126470000000  0.5571560000000  0.4936640000000 1.0
C      1  0.5805420000000  0.4356980000000  0.5071320000000 1.0
C      1  0.5560170000000  0.5784770000000  0.4939900000000 1.0
C      1  0.4430380000000  0.4173810000000  0.5038990000000 1.0
C      1  0.5579800000000  0.4119210000000  0.5096480000000 1.0
C      1  0.4441630000000  0.5642830000000  0.5042480000000 1.0
C      1  0.4972330000000  0.4734070000000  0.3816100000000 1.0
C      1  0.5138960000000  0.5339640000000  0.3920690000000 1.0
C      1  0.5137880000000  0.4755280000000  0.6156830000000 1.0
C      1  0.4893980000000  0.5302820000000  0.6114770000000 1.0
C      1  0.4793430000000  0.4889870000000  0.3894580000000 1.0
C      1  0.5325590000000  0.5173090000000  0.3933750000000 1.0
C      1  0.4676170000000  0.5182670000000  0.6067830000000 1.0
C      1  0.5374540000000  0.4856450000000  0.6063080000000 1.0
C      1  0.6108760000000  0.5326340000000  0.4846700000000 1.0
C      1  0.3968210000000  0.4651630000000  0.4840660000000 1.0
C      1  0.3909240000000  0.5302650000000  0.5127230000000 1.0
C      1  0.6049100000000  0.4733830000000  0.5147040000000 1.0
C      1  0.5278190000000  0.6059930000000  0.4877850000000 1.0
C      1  0.4753790000000  0.3986640000000  0.4902440000000 1.0
C      1  0.5238970000000  0.3912640000000  0.5112020000000 1.0
C      1  0.4607890000000  0.5977780000000  0.5174180000000 1.0
C      1  0.4136440000000  0.4757370000000  0.4615990000000 1.0
C      1  0.5890950000000  0.5188700000000  0.4630650000000 1.0
C      1  0.5848070000000  0.4811860000000  0.5370730000000 1.0
C      1  0.4104030000000  0.5196300000000  0.5385910000000 1.0
C      1  0.4752420000000  0.4147920000000  0.4597360000000 1.0
C      1  0.5232550000000  0.5868570000000  0.4622660000000 1.0
C      1  0.4800960000000  0.5884830000000  0.5440090000000 1.0
C      1  0.5175570000000  0.4099980000000  0.5347940000000 1.0
C      1  0.4773430000000  0.4533750000000  0.5152700000000 1.0
C      1  0.5206770000000  0.5443680000000  0.5153940000000 1.0
C      1  0.5181030000000  0.4552220000000  0.4864870000000 1.0
C      1  0.4775990000000  0.5388100000000  0.4935040000000 1.0
C      1  0.4557400000000  0.4797810000000  0.5133900000000 1.0
C      1  0.5453840000000  0.5212090000000  0.5187770000000 1.0
C      1  0.4531600000000  0.5153560000000  0.4904350000000 1.0
C      1  0.5402640000000  0.4815060000000  0.4873060000000 1.0
C      1  0.5747520000000  0.5457950000000  0.5509130000000 1.0
C      1  0.4341750000000  0.4598620000000  0.5420910000000 1.0
C      1  0.4292140000000  0.5389280000000  0.4622740000000 1.0
C      1  0.5753060000000  0.4639310000000  0.4650830000000 1.0
C      1  0.5495480000000  0.5663390000000  0.5478940000000 1.0
C      1  0.4559040000000  0.4374030000000  0.5515450000000 1.0
C      1  0.5315760000000  0.4261310000000  0.4627940000000 1.0
C      1  0.4664670000000  0.5608070000000  0.4715880000000 1.0
C      1  0.4572730000000  0.4699520000000  0.4347390000000 1.0
C      1  0.5461140000000  0.5305220000000  0.4350200000000 1.0
C      1  0.5535240000000  0.4772630000000  0.5614330000000 1.0
C      1  0.4554170000000  0.5289340000000  0.5628850000000 1.0
C      1  0.4830020000000  0.4542690000000  0.4324630000000 1.0
C      1  0.5256540000000  0.5576910000000  0.4351500000000 1.0
C      1  0.4741600000000  0.5571000000000  0.5677010000000 1.0
C      1  0.5303270000000  0.4537070000000  0.5623140000000 1.0
C      1  0.5310270000000  0.5016690000000  0.4448600000000 1.0
C      1  0.4732080000000  0.4982510000000  0.4448230000000 1.0
C      1  0.4779340000000  0.5057930000000  0.5521510000000 1.0
C      1  0.5299790000000  0.4992190000000  0.5504710000000 1.0
C      1  0.5021420000000  0.5384900000000  0.4461910000000 1.0
C      1  0.5050720000000  0.4658840000000  0.4498300000000 1.0
C      1  0.5056670000000  0.4677600000000  0.5473880000000 1.0
C      1  0.4953610000000  0.5342210000000  0.5591080000000 1.0
C      1  0.5022620000000  0.4973130000000  0.4625020000000 1.0
C      1  0.5026000000000  0.4971010000000  0.5303480000000 1.0
C      1  0.5026930000000  0.5037140000000  0.4963690000000 1.0
END
