TITL C-3289331-6719-524 0.00072333197433094 125000 -815.235296087031 0 0 149 (C1) n - 1
REM
REM in /nfs/bkarasulu/CARBON/AIRSS/Generating-Clusters/AIREBO/with-SteepDescent/Higher-Symm/SD-CG/HFTN-CG
REM
REM
REM
REM
REM
REM ./C.cell (b20cbc046b6831c77cfcea5457e17084)
REM
REM compiler GCC version 9.2.1 20190827 (Red Hat 9.2.1-1)
REM options -cpp -mtune=generic -march=x86-64 -g -O0 -fpre-include=/usr/include/finclude/math-vector-fortran.h
REM seed 557218922 -644847992 2071247420 895577609 -226994238 -961335820 -776019001 -892956331 184651250 -1521832435 -1528563101 -1702214940 1685977230 1835343046 1468620020 913031612 899924613 -666044649 443576940 573884597 227608406 156151335 -1209520012 -848273590 -153325 847409902 718714036 629105829 151490352 -484757500 2036654989 -1804965846 -591733333
REM
CELL 1.54180   50.00000   50.00000   50.00000   90.00000   90.00000   90.00000
LATT -1
SFAC C  
C      1  0.4558140000000  0.5349480000000  0.4725390000000 1.0
C      1  0.5500860000000  0.5225790000000  0.4702420000000 1.0
C      1  0.4905980000000  0.4452230000000  0.4703720000000 1.0
C      1  0.4801040000000  0.5148700000000  0.4781520000000 1.0
C      1  0.5196340000000  0.5120650000000  0.4745150000000 1.0
C      1  0.4938770000000  0.4772310000000  0.4718290000000 1.0
C      1  0.5185670000000  0.5499540000000  0.3949840000000 1.0
C      1  0.5382410000000  0.4582500000000  0.4010450000000 1.0
C      1  0.4413110000000  0.4967550000000  0.4055270000000 1.0
C      1  0.4395180000000  0.5883290000000  0.4833850000000 1.0
C      1  0.6042050000000  0.5129760000000  0.4839150000000 1.0
C      1  0.4536650000000  0.4083870000000  0.4803600000000 1.0
C      1  0.4734520000000  0.4888640000000  0.4963810000000 1.0
C      1  0.5025290000000  0.5291060000000  0.4975140000000 1.0
C      1  0.5145740000000  0.4877330000000  0.4944470000000 1.0
C      1  0.6064630000000  0.5298320000000  0.5130790000000 1.0
C      1  0.4653720000000  0.3935120000000  0.5082100000000 1.0
C      1  0.4228710000000  0.5823030000000  0.5110140000000 1.0
C      1  0.5411840000000  0.4029780000000  0.5275560000000 1.0
C      1  0.3974710000000  0.5123200000000  0.5275380000000 1.0
C      1  0.5573910000000  0.5889720000000  0.5286980000000 1.0
C      1  0.5334800000000  0.4711990000000  0.4564790000000 1.0
C      1  0.4541130000000  0.4799830000000  0.4491710000000 1.0
C      1  0.5066530000000  0.5449210000000  0.4514670000000 1.0
C      1  0.4750530000000  0.4364500000000  0.5443770000000 1.0
C      1  0.4561920000000  0.5496130000000  0.5317750000000 1.0
C      1  0.5641540000000  0.5098600000000  0.5345170000000 1.0
C      1  0.4853410000000  0.4935880000000  0.6182770000000 1.0
C      1  0.5044920000000  0.5189740000000  0.6137670000000 1.0
C      1  0.5170270000000  0.4897190000000  0.6168510000000 1.0
C      1  0.5090580000000  0.4084410000000  0.5710050000000 1.0
C      1  0.4219150000000  0.5394350000000  0.5720600000000 1.0
C      1  0.5778810000000  0.5481670000000  0.5614930000000 1.0
C      1  0.5193640000000  0.5827860000000  0.4534860000000 1.0
C      1  0.5646260000000  0.4461170000000  0.4565330000000 1.0
C      1  0.4152630000000  0.4723520000000  0.4546930000000 1.0
C      1  0.4635840000000  0.5113330000000  0.5777960000000 1.0
C      1  0.5387050000000  0.5285710000000  0.5792490000000 1.0
C      1  0.5113410000000  0.4564780000000  0.5808890000000 1.0
C      1  0.4779190000000  0.5638880000000  0.5537000000000 1.0
C      1  0.5625510000000  0.4834240000000  0.5544400000000 1.0
C      1  0.4471090000000  0.4477070000000  0.5531690000000 1.0
C      1  0.4346690000000  0.5369670000000  0.5086820000000 1.0
C      1  0.5667700000000  0.5344780000000  0.5136850000000 1.0
C      1  0.4871040000000  0.4264370000000  0.5142010000000 1.0
C      1  0.5360000000000  0.5489670000000  0.5151420000000 1.0
C      1  0.5167450000000  0.4431900000000  0.5152010000000 1.0
C      1  0.4345170000000  0.5051390000000  0.5144960000000 1.0
C      1  0.5039790000000  0.4681390000000  0.4406130000000 1.0
C      1  0.4725800000000  0.5069390000000  0.4458750000000 1.0
C      1  0.5231960000000  0.5192350000000  0.4409090000000 1.0
C      1  0.4830310000000  0.4161380000000  0.5686020000000 1.0
C      1  0.4385110000000  0.5599860000000  0.5585870000000 1.0
C      1  0.5790800000000  0.5195250000000  0.5616090000000 1.0
C      1  0.4476440000000  0.5277720000000  0.4067530000000 1.0
C      1  0.5445430000000  0.5408960000000  0.4149650000000 1.0
C      1  0.5144900000000  0.4386560000000  0.4151060000000 1.0
C      1  0.4578380000000  0.5665290000000  0.4385870000000 1.0
C      1  0.5780780000000  0.5039240000000  0.4393180000000 1.0
C      1  0.4709550000000  0.4263190000000  0.4373930000000 1.0
C      1  0.4711280000000  0.4885670000000  0.5457960000000 1.0
C      1  0.5012130000000  0.5240540000000  0.5311650000000 1.0
C      1  0.5221400000000  0.4813960000000  0.5406050000000 1.0
C      1  0.4882730000000  0.5943400000000  0.5111010000000 1.0
C      1  0.5918370000000  0.4641000000000  0.5117370000000 1.0
C      1  0.4191980000000  0.4431920000000  0.5123080000000 1.0
C      1  0.4109390000000  0.4517460000000  0.4815900000000 1.0
C      1  0.5007710000000  0.5953940000000  0.4794440000000 1.0
C      1  0.5805110000000  0.4436590000000  0.4864950000000 1.0
C      1  0.4958880000000  0.4597380000000  0.5335330000000 1.0
C      1  0.4613490000000  0.5159200000000  0.5280980000000 1.0
C      1  0.5339220000000  0.5180560000000  0.5275070000000 1.0
C      1  0.4716280000000  0.4347840000000  0.4899460000000 1.0
C      1  0.4536360000000  0.5589320000000  0.4916510000000 1.0
C      1  0.5710840000000  0.5157160000000  0.4901190000000 1.0
C      1  0.6065110000000  0.5032210000000  0.4551630000000 1.0
C      1  0.4478060000000  0.4173780000000  0.4523620000000 1.0
C      1  0.4452910000000  0.5926980000000  0.4536980000000 1.0
C      1  0.4727700000000  0.5062940000000  0.4123370000000 1.0
C      1  0.5188510000000  0.5192230000000  0.4098350000000 1.0
C      1  0.5081960000000  0.4717020000000  0.4101380000000 1.0
C      1  0.5406480000000  0.4485910000000  0.4338350000000 1.0
C      1  0.4298830000000  0.4851860000000  0.4280200000000 1.0
C      1  0.5200140000000  0.5615990000000  0.4268990000000 1.0
C      1  0.4018170000000  0.5022110000000  0.4525290000000 1.0
C      1  0.5514240000000  0.5861070000000  0.4538000000000 1.0
C      1  0.5499200000000  0.4155360000000  0.4543010000000 1.0
C      1  0.5471360000000  0.4610930000000  0.5339520000000 1.0
C      1  0.4430970000000  0.4746220000000  0.5386290000000 1.0
C      1  0.5050340000000  0.5568260000000  0.5389100000000 1.0
C      1  0.3954440000000  0.5303030000000  0.5052490000000 1.0
C      1  0.5764880000000  0.5803740000000  0.5084150000000 1.0
C      1  0.5243430000000  0.3948450000000  0.5057410000000 1.0
C      1  0.5510190000000  0.5542120000000  0.5660710000000 1.0
C      1  0.5252190000000  0.4304790000000  0.5673900000000 1.0
C      1  0.4321590000000  0.5144220000000  0.5690640000000 1.0
C      1  0.5370240000000  0.5676020000000  0.5429820000000 1.0
C      1  0.5369450000000  0.4320590000000  0.5396810000000 1.0
C      1  0.4221490000000  0.4988010000000  0.5455270000000 1.0
C      1  0.4325270000000  0.5158720000000  0.4737320000000 1.0
C      1  0.5492290000000  0.5529830000000  0.4755140000000 1.0
C      1  0.5179300000000  0.4321260000000  0.4712910000000 1.0
C      1  0.5334010000000  0.4974930000000  0.5664110000000 1.0
C      1  0.4843170000000  0.4743870000000  0.5694980000000 1.0
C      1  0.4929410000000  0.5220360000000  0.5643110000000 1.0
C      1  0.4961060000000  0.3963410000000  0.5107310000000 1.0
C      1  0.4096640000000  0.5571230000000  0.5087490000000 1.0
C      1  0.5891410000000  0.5554230000000  0.5154730000000 1.0
C      1  0.5718560000000  0.4854780000000  0.4845380000000 1.0
C      1  0.4448120000000  0.4488750000000  0.4825470000000 1.0
C      1  0.4827050000000  0.5653530000000  0.4846170000000 1.0
C      1  0.4676180000000  0.4860900000000  0.5957080000000 1.0
C      1  0.5101080000000  0.5338350000000  0.5883160000000 1.0
C      1  0.5295610000000  0.4768130000000  0.5931360000000 1.0
C      1  0.5195390000000  0.5517180000000  0.4786420000000 1.0
C      1  0.5299320000000  0.4587520000000  0.4879410000000 1.0
C      1  0.4454190000000  0.4891810000000  0.4777790000000 1.0
C      1  0.4855950000000  0.5787600000000  0.4539670000000 1.0
C      1  0.5772600000000  0.4762850000000  0.4591700000000 1.0
C      1  0.4269110000000  0.4404180000000  0.4538130000000 1.0
C      1  0.4002880000000  0.5192890000000  0.4795140000000 1.0
C      1  0.5658880000000  0.5803420000000  0.4822180000000 1.0
C      1  0.5328630000000  0.4048280000000  0.4810100000000 1.0
C      1  0.5586060000000  0.4622220000000  0.5047360000000 1.0
C      1  0.4355020000000  0.4722650000000  0.5055650000000 1.0
C      1  0.5084580000000  0.5673190000000  0.5067510000000 1.0
C      1  0.5938910000000  0.4791710000000  0.5419420000000 1.0
C      1  0.4273250000000  0.4269270000000  0.5401590000000 1.0
C      1  0.4733220000000  0.5953000000000  0.5418210000000 1.0
C      1  0.5692880000000  0.5574830000000  0.4497430000000 1.0
C      1  0.5186590000000  0.4126230000000  0.4450720000000 1.0
C      1  0.4207660000000  0.5283100000000  0.4450640000000 1.0
C      1  0.4556710000000  0.5923870000000  0.5130290000000 1.0
C      1  0.5975690000000  0.4967490000000  0.5130110000000 1.0
C      1  0.4418870000000  0.4182510000000  0.5106940000000 1.0
C      1  0.4799450000000  0.4436630000000  0.5833910000000 1.0
C      1  0.4614380000000  0.5438850000000  0.5758320000000 1.0
C      1  0.5662740000000  0.5092620000000  0.5856180000000 1.0
C      1  0.4731350000000  0.4570980000000  0.4444030000000 1.0
C      1  0.4771280000000  0.5403390000000  0.4477310000000 1.0
C      1  0.5458010000000  0.4979080000000  0.4481960000000 1.0
C      1  0.4381500000000  0.5424280000000  0.4284420000000 1.0
C      1  0.5682300000000  0.5354460000000  0.4311510000000 1.0
C      1  0.4955510000000  0.4174670000000  0.4269560000000 1.0
C      1  0.4506920000000  0.4589240000000  0.5840710000000 1.0
C      1  0.4958900000000  0.5627970000000  0.5825540000000 1.0
C      1  0.5615520000000  0.4797310000000  0.5882350000000 1.0
C      1  0.4995360000000  0.4988470000000  0.4022430000000 1.0
C      1  0.4954530000000  0.4918140000000  0.5222630000000 1.0
END
