TITL C-3289327-5623-339 -0.000731301366458328 125000 -652.338576753849 0 0 119 (C1) n - 1
REM
REM in /nfs/bkarasulu/CARBON/AIRSS/Generating-Clusters/AIREBO/with-SteepDescent/Higher-Symm/SD-CG/HFTN-CG
REM
REM
REM
REM
REM
REM ./C.cell (b20cbc046b6831c77cfcea5457e17084)
REM
REM compiler GCC version 9.2.1 20190827 (Red Hat 9.2.1-1)
REM options -cpp -mtune=generic -march=x86-64 -g -O0 -fpre-include=/usr/include/finclude/math-vector-fortran.h
REM seed -672188037 482693847 2097895744 -1973368378 -706272864 -830872919 -1294739820 -1498274118 -722807458 -445580318 -1149746523 -1014846222 996597269 1789392975 1899030910 -1414233156 -1676272735 -268666119 130341171 931455236 -1830307585 -925091611 984607947 275027820 -1285201417 1993933876 1319709523 2055504714 413243251 2144258803 -741710866 -1028738301 907204706
REM
CELL 1.54180   50.00000   50.00000   50.00000   90.00000   90.00000   90.00000
LATT -1
SFAC C  
C      1  0.4837300000000  0.5625570000000  0.5121670000000 1.0
C      1  0.5664370000000  0.5419160000000  0.5315310000000 1.0
C      1  0.5864760000000  0.4865970000000  0.4553070000000 1.0
C      1  0.5423300000000  0.4615610000000  0.4432860000000 1.0
C      1  0.4665650000000  0.5173760000000  0.4752050000000 1.0
C      1  0.5358660000000  0.5669520000000  0.5582490000000 1.0
C      1  0.4432580000000  0.4937640000000  0.5718520000000 1.0
C      1  0.4504400000000  0.4644310000000  0.4325340000000 1.0
C      1  0.5761010000000  0.5165360000000  0.5124760000000 1.0
C      1  0.4498460000000  0.4815880000000  0.5256600000000 1.0
C      1  0.4051820000000  0.5128830000000  0.5054720000000 1.0
C      1  0.4580250000000  0.4901600000000  0.4192210000000 1.0
C      1  0.4320600000000  0.5345070000000  0.5561370000000 1.0
C      1  0.4996420000000  0.5048800000000  0.5731400000000 1.0
C      1  0.4861580000000  0.4260600000000  0.5407350000000 1.0
C      1  0.5762630000000  0.5049150000000  0.5421410000000 1.0
C      1  0.4437230000000  0.4514860000000  0.5369960000000 1.0
C      1  0.5929490000000  0.4677920000000  0.4806780000000 1.0
C      1  0.5072810000000  0.5128840000000  0.4663900000000 1.0
C      1  0.5569310000000  0.4742230000000  0.5256350000000 1.0
C      1  0.5463730000000  0.4472880000000  0.5530670000000 1.0
C      1  0.4520200000000  0.5319810000000  0.5794350000000 1.0
C      1  0.4172960000000  0.5380650000000  0.5003450000000 1.0
C      1  0.5923140000000  0.4998300000000  0.4921170000000 1.0
C      1  0.4427770000000  0.4277070000000  0.4700210000000 1.0
C      1  0.4852150000000  0.5684710000000  0.5441210000000 1.0
C      1  0.5111950000000  0.4123410000000  0.4561230000000 1.0
C      1  0.5672620000000  0.4498540000000  0.4916540000000 1.0
C      1  0.5732080000000  0.5340770000000  0.4569480000000 1.0
C      1  0.4951790000000  0.5821380000000  0.4451270000000 1.0
C      1  0.5938190000000  0.5158780000000  0.4622800000000 1.0
C      1  0.4553360000000  0.4210050000000  0.4981970000000 1.0
C      1  0.5361240000000  0.5665770000000  0.4814040000000 1.0
C      1  0.5351090000000  0.5205410000000  0.4138330000000 1.0
C      1  0.4867460000000  0.5982490000000  0.4643820000000 1.0
C      1  0.4942220000000  0.4370070000000  0.4452970000000 1.0
C      1  0.4689940000000  0.5081830000000  0.5307530000000 1.0
C      1  0.4598710000000  0.6037770000000  0.4765950000000 1.0
C      1  0.4889460000000  0.4186400000000  0.4936280000000 1.0
C      1  0.4140000000000  0.4815760000000  0.4955520000000 1.0
C      1  0.4214000000000  0.4948730000000  0.5263830000000 1.0
C      1  0.4388890000000  0.5148150000000  0.4612900000000 1.0
C      1  0.5259640000000  0.5446370000000  0.4049310000000 1.0
C      1  0.4845320000000  0.4805240000000  0.5038650000000 1.0
C      1  0.5491830000000  0.5232600000000  0.4929440000000 1.0
C      1  0.4870110000000  0.5237400000000  0.4413290000000 1.0
C      1  0.4554350000000  0.5865750000000  0.4988510000000 1.0
C      1  0.5162160000000  0.4384150000000  0.5456660000000 1.0
C      1  0.5490430000000  0.4683450000000  0.5709430000000 1.0
C      1  0.4290990000000  0.4511850000000  0.4904970000000 1.0
C      1  0.5484120000000  0.5201340000000  0.4409950000000 1.0
C      1  0.4593600000000  0.5117690000000  0.4362990000000 1.0
C      1  0.5167740000000  0.5727740000000  0.5321460000000 1.0
C      1  0.4922280000000  0.5571570000000  0.5717150000000 1.0
C      1  0.5462310000000  0.4450540000000  0.4713460000000 1.0
C      1  0.4780590000000  0.4593910000000  0.5723090000000 1.0
C      1  0.4993620000000  0.5126820000000  0.5311010000000 1.0
C      1  0.5055460000000  0.5605690000000  0.4204980000000 1.0
C      1  0.5588080000000  0.5598550000000  0.5058240000000 1.0
C      1  0.4840650000000  0.5435450000000  0.4770700000000 1.0
C      1  0.4734350000000  0.5520300000000  0.4282230000000 1.0
C      1  0.4250010000000  0.5064360000000  0.5538470000000 1.0
C      1  0.4764680000000  0.4468880000000  0.4793970000000 1.0
C      1  0.5241720000000  0.4654410000000  0.4783280000000 1.0
C      1  0.4984790000000  0.4644120000000  0.4649920000000 1.0
C      1  0.5352220000000  0.6127400000000  0.5058190000000 1.0
C      1  0.5214770000000  0.4813650000000  0.5846500000000 1.0
C      1  0.5446000000000  0.4982560000000  0.5450440000000 1.0
C      1  0.5333950000000  0.4838020000000  0.5030370000000 1.0
C      1  0.5271820000000  0.5180130000000  0.5590590000000 1.0
C      1  0.5324920000000  0.5362930000000  0.4663370000000 1.0
C      1  0.4528040000000  0.5549580000000  0.5067710000000 1.0
C      1  0.4655360000000  0.4414520000000  0.4176220000000 1.0
C      1  0.5867890000000  0.4669550000000  0.5141050000000 1.0
C      1  0.4919110000000  0.5884150000000  0.4946530000000 1.0
C      1  0.4611980000000  0.4290580000000  0.4474410000000 1.0
C      1  0.5546390000000  0.4005270000000  0.4928580000000 1.0
C      1  0.4482610000000  0.5588930000000  0.4332390000000 1.0
C      1  0.4731140000000  0.4889370000000  0.5584900000000 1.0
C      1  0.5240200000000  0.4961500000000  0.4051560000000 1.0
C      1  0.5323560000000  0.4183630000000  0.4780140000000 1.0
C      1  0.5271520000000  0.4091940000000  0.5320100000000 1.0
C      1  0.5214910000000  0.5853570000000  0.5039280000000 1.0
C      1  0.4287270000000  0.5606930000000  0.4528450000000 1.0
C      1  0.5046080000000  0.5504160000000  0.4529420000000 1.0
C      1  0.4807010000000  0.5327960000000  0.5777810000000 1.0
C      1  0.5075560000000  0.4740340000000  0.4111210000000 1.0
C      1  0.4433750000000  0.5087960000000  0.5983230000000 1.0
C      1  0.4533270000000  0.4745940000000  0.4951430000000 1.0
C      1  0.5135780000000  0.5397050000000  0.5394040000000 1.0
C      1  0.5172900000000  0.5673690000000  0.5801280000000 1.0
C      1  0.5581500000000  0.4403420000000  0.5230340000000 1.0
C      1  0.5173870000000  0.4569240000000  0.4306790000000 1.0
C      1  0.5012260000000  0.3952080000000  0.5150310000000 1.0
C      1  0.4199310000000  0.4395590000000  0.5195890000000 1.0
C      1  0.4282340000000  0.4871070000000  0.4675080000000 1.0
C      1  0.5155140000000  0.4598760000000  0.5192970000000 1.0
C      1  0.5595520000000  0.4940660000000  0.4838760000000 1.0
C      1  0.4297070000000  0.5517340000000  0.5289650000000 1.0
C      1  0.5502230000000  0.5428060000000  0.5546480000000 1.0
C      1  0.5572540000000  0.4088600000000  0.5199270000000 1.0
C      1  0.5242530000000  0.4835300000000  0.6127390000000 1.0
C      1  0.5722930000000  0.4857270000000  0.5663670000000 1.0
C      1  0.5062200000000  0.4553160000000  0.5734490000000 1.0
C      1  0.5018250000000  0.5391300000000  0.5014480000000 1.0
C      1  0.4705440000000  0.4448230000000  0.5171030000000 1.0
C      1  0.4867830000000  0.4691230000000  0.5344760000000 1.0
C      1  0.4652680000000  0.4403420000000  0.5564500000000 1.0
C      1  0.5180140000000  0.4298970000000  0.5066340000000 1.0
C      1  0.4534120000000  0.4653110000000  0.4624330000000 1.0
C      1  0.5075540000000  0.5056430000000  0.4996170000000 1.0
C      1  0.4524020000000  0.5737430000000  0.5417760000000 1.0
C      1  0.4822600000000  0.4910750000000  0.4723790000000 1.0
C      1  0.5315160000000  0.5415090000000  0.5120710000000 1.0
C      1  0.4797200000000  0.4701970000000  0.4064460000000 1.0
C      1  0.4623200000000  0.5252520000000  0.5051130000000 1.0
C      1  0.5549720000000  0.4891150000000  0.4505910000000 1.0
C      1  0.4249170000000  0.5404170000000  0.4725670000000 1.0
C      1  0.5673090000000  0.5554750000000  0.4733870000000 1.0
END
