TITL C-3289326-3776-185 -0.000965373454510039 125000 -1020.64368494803 0 0 190 (C1) n - 1
REM
REM in /nfs/bkarasulu/CARBON/AIRSS/Generating-Clusters/AIREBO/with-SteepDescent/Higher-Symm/SD-CG/HFTN-CG
REM
REM
REM
REM
REM
REM ./C.cell (b20cbc046b6831c77cfcea5457e17084)
REM
REM compiler GCC version 9.2.1 20190827 (Red Hat 9.2.1-1)
REM options -cpp -mtune=generic -march=x86-64 -g -O0 -fpre-include=/usr/include/finclude/math-vector-fortran.h
REM seed -1402510276 1026133237 562467280 394548568 2078786330 1891327759 -1260024440 -2073749986 1979277920 -1712531399 -1986899845 -1856558420 -1751197800 -562135275 1465064405 -277708092 -1337797475 -480376237 -342582933 -1986717283 -1525033632 -981007239 -2068007468 -1497872112 -1474166302 143432040 972854429 -913761483 267566447 784927486 2035273552 1917635504 425357651
REM
CELL 1.54180   50.00000   50.00000   50.00000   90.00000   90.00000   90.00000
LATT -1
SFAC C  
C      1  0.4512950000000  0.4482730000000  0.5844660000000 1.0
C      1  0.4852480000000  0.5857110000000  0.5788060000000 1.0
C      1  0.5677690000000  0.4834330000000  0.5787010000000 1.0
C      1  0.4859740000000  0.4257470000000  0.4920690000000 1.0
C      1  0.4392520000000  0.5499460000000  0.4992430000000 1.0
C      1  0.5779640000000  0.5246860000000  0.4933540000000 1.0
C      1  0.4227400000000  0.5311920000000  0.4506220000000 1.0
C      1  0.5592560000000  0.5543200000000  0.4547350000000 1.0
C      1  0.5195290000000  0.4145510000000  0.4531620000000 1.0
C      1  0.4060500000000  0.5038530000000  0.4521590000000 1.0
C      1  0.5423930000000  0.5802100000000  0.4543860000000 1.0
C      1  0.5513050000000  0.4163260000000  0.4541710000000 1.0
C      1  0.4908810000000  0.6133100000000  0.5262370000000 1.0
C      1  0.6069220000000  0.4514480000000  0.5216300000000 1.0
C      1  0.4049440000000  0.4396850000000  0.5209950000000 1.0
C      1  0.5381490000000  0.5597320000000  0.4921640000000 1.0
C      1  0.5367640000000  0.4277410000000  0.4894060000000 1.0
C      1  0.4234760000000  0.5076490000000  0.4878030000000 1.0
C      1  0.5404740000000  0.5853140000000  0.5619840000000 1.0
C      1  0.5579670000000  0.4281320000000  0.5640600000000 1.0
C      1  0.4114830000000  0.4858010000000  0.5643400000000 1.0
C      1  0.5421900000000  0.5552880000000  0.5703360000000 1.0
C      1  0.5255030000000  0.4281460000000  0.5691660000000 1.0
C      1  0.4324870000000  0.5077860000000  0.5703200000000 1.0
C      1  0.5087480000000  0.5639280000000  0.5505210000000 1.0
C      1  0.5494270000000  0.4641140000000  0.5492050000000 1.0
C      1  0.4480820000000  0.4738810000000  0.5541490000000 1.0
C      1  0.5539800000000  0.5151680000000  0.4239900000000 1.0
C      1  0.4891440000000  0.4432370000000  0.4230210000000 1.0
C      1  0.4578280000000  0.5386430000000  0.4323470000000 1.0
C      1  0.4214350000000  0.5516310000000  0.4238350000000 1.0
C      1  0.5732750000000  0.5413960000000  0.4302130000000 1.0
C      1  0.5032100000000  0.4136880000000  0.4283940000000 1.0
C      1  0.4644960000000  0.4672850000000  0.6060370000000 1.0
C      1  0.4807620000000  0.5584280000000  0.5784550000000 1.0
C      1  0.5415610000000  0.4848420000000  0.5957270000000 1.0
C      1  0.4789330000000  0.4701100000000  0.4379670000000 1.0
C      1  0.4893440000000  0.5325820000000  0.4353670000000 1.0
C      1  0.5363200000000  0.4923990000000  0.4372810000000 1.0
C      1  0.5132620000000  0.4185760000000  0.5091910000000 1.0
C      1  0.4123820000000  0.5304030000000  0.5074090000000 1.0
C      1  0.5636960000000  0.5509520000000  0.5039260000000 1.0
C      1  0.4890430000000  0.5856860000000  0.4623120000000 1.0
C      1  0.5899250000000  0.4607090000000  0.4554110000000 1.0
C      1  0.4299630000000  0.4513610000000  0.4574230000000 1.0
C      1  0.5945610000000  0.4274190000000  0.5059810000000 1.0
C      1  0.3910920000000  0.4627080000000  0.5074010000000 1.0
C      1  0.5172000000000  0.6200510000000  0.5141680000000 1.0
C      1  0.4576830000000  0.4872270000000  0.4847860000000 1.0
C      1  0.5020640000000  0.5427690000000  0.4825950000000 1.0
C      1  0.5355160000000  0.4729850000000  0.4818490000000 1.0
C      1  0.5718970000000  0.4508810000000  0.5038620000000 1.0
C      1  0.4217960000000  0.4752230000000  0.5149400000000 1.0
C      1  0.5171600000000  0.5874660000000  0.5112640000000 1.0
C      1  0.4755120000000  0.5273470000000  0.4662520000000 1.0
C      1  0.5379240000000  0.5045870000000  0.4689830000000 1.0
C      1  0.4922730000000  0.4595650000000  0.4663220000000 1.0
C      1  0.4441730000000  0.4218900000000  0.5430170000000 1.0
C      1  0.4595950000000  0.5790740000000  0.5441230000000 1.0
C      1  0.5947140000000  0.4897410000000  0.5426140000000 1.0
C      1  0.4629780000000  0.5712010000000  0.5111930000000 1.0
C      1  0.5785560000000  0.4991480000000  0.5142140000000 1.0
C      1  0.4591160000000  0.4270820000000  0.5129090000000 1.0
C      1  0.4492940000000  0.5708410000000  0.4271910000000 1.0
C      1  0.5862250000000  0.5099600000000  0.4327860000000 1.0
C      1  0.4705240000000  0.4172020000000  0.4350790000000 1.0
C      1  0.5107480000000  0.5460510000000  0.5793890000000 1.0
C      1  0.5335920000000  0.4569190000000  0.5773500000000 1.0
C      1  0.4514710000000  0.4888720000000  0.5838820000000 1.0
C      1  0.4638940000000  0.5422120000000  0.5295530000000 1.0
C      1  0.5495310000000  0.5129800000000  0.5229810000000 1.0
C      1  0.4831660000000  0.4478300000000  0.5251380000000 1.0
C      1  0.4954250000000  0.4653630000000  0.4996290000000 1.0
C      1  0.4667270000000  0.5336450000000  0.4982760000000 1.0
C      1  0.5295400000000  0.5073650000000  0.5011980000000 1.0
C      1  0.5741060000000  0.5714530000000  0.5256190000000 1.0
C      1  0.5274340000000  0.3968140000000  0.5311520000000 1.0
C      1  0.4005800000000  0.5190250000000  0.5329990000000 1.0
C      1  0.4481850000000  0.4391440000000  0.4321610000000 1.0
C      1  0.4767900000000  0.5840280000000  0.4307800000000 1.0
C      1  0.5915990000000  0.4803270000000  0.4276680000000 1.0
C      1  0.4906360000000  0.4098640000000  0.6062300000000 1.0
C      1  0.4160990000000  0.5454480000000  0.6116780000000 1.0
C      1  0.5607710000000  0.5493800000000  0.5978010000000 1.0
C      1  0.5727960000000  0.4535240000000  0.5715410000000 1.0
C      1  0.4246770000000  0.4600050000000  0.5745590000000 1.0
C      1  0.5126010000000  0.5918680000000  0.5695620000000 1.0
C      1  0.5191880000000  0.4784850000000  0.5438010000000 1.0
C      1  0.4695830000000  0.4941150000000  0.5427740000000 1.0
C      1  0.5067100000000  0.5309470000000  0.5424340000000 1.0
C      1  0.5377740000000  0.5400690000000  0.4120890000000 1.0
C      1  0.5197070000000  0.4469450000000  0.4104110000000 1.0
C      1  0.4474950000000  0.5134830000000  0.4187570000000 1.0
C      1  0.5086390000000  0.3852370000000  0.5043280000000 1.0
C      1  0.4008730000000  0.5598520000000  0.5038360000000 1.0
C      1  0.5957520000000  0.5595550000000  0.5015510000000 1.0
C      1  0.5137200000000  0.4682640000000  0.5994010000000 1.0
C      1  0.4695570000000  0.5008110000000  0.6099740000000 1.0
C      1  0.5155850000000  0.5301080000000  0.6067500000000 1.0
C      1  0.5078370000000  0.4303040000000  0.5406450000000 1.0
C      1  0.4396490000000  0.5219800000000  0.5401620000000 1.0
C      1  0.5522790000000  0.5415080000000  0.5408260000000 1.0
C      1  0.5358690000000  0.4612810000000  0.4363580000000 1.0
C      1  0.4531170000000  0.4867280000000  0.4389740000000 1.0
C      1  0.5161420000000  0.5464610000000  0.4375670000000 1.0
C      1  0.4590830000000  0.5087580000000  0.3883340000000 1.0
C      1  0.5236400000000  0.5365240000000  0.3830580000000 1.0
C      1  0.5214540000000  0.4615570000000  0.3814330000000 1.0
C      1  0.6069630000000  0.4758130000000  0.4782060000000 1.0
C      1  0.4194870000000  0.4265090000000  0.4749140000000 1.0
C      1  0.4672560000000  0.6010740000000  0.4787990000000 1.0
C      1  0.5678510000000  0.4677480000000  0.4795710000000 1.0
C      1  0.4376510000000  0.4636050000000  0.4872640000000 1.0
C      1  0.4921100000000  0.5725580000000  0.4936690000000 1.0
C      1  0.5605790000000  0.4065410000000  0.4805550000000 1.0
C      1  0.3922000000000  0.4995520000000  0.4778890000000 1.0
C      1  0.5425920000000  0.5916190000000  0.4809470000000 1.0
C      1  0.4139040000000  0.5388960000000  0.5545700000000 1.0
C      1  0.5820120000000  0.5544030000000  0.5511250000000 1.0
C      1  0.5040280000000  0.3986530000000  0.5529810000000 1.0
C      1  0.5760120000000  0.5354280000000  0.5771650000000 1.0
C      1  0.4956520000000  0.4197080000000  0.5782620000000 1.0
C      1  0.4268980000000  0.5361850000000  0.5858710000000 1.0
C      1  0.5720660000000  0.4573350000000  0.4200770000000 1.0
C      1  0.4310250000000  0.4602840000000  0.4186670000000 1.0
C      1  0.5015450000000  0.5868130000000  0.4134020000000 1.0
C      1  0.4736910000000  0.4109030000000  0.5463550000000 1.0
C      1  0.4322520000000  0.5637660000000  0.5463070000000 1.0
C      1  0.5909590000000  0.5227610000000  0.5433260000000 1.0
C      1  0.4400430000000  0.5030930000000  0.5167730000000 1.0
C      1  0.5316470000000  0.5611380000000  0.5255330000000 1.0
C      1  0.5448640000000  0.4420040000000  0.5162260000000 1.0
C      1  0.4969860000000  0.5275320000000  0.5125300000000 1.0
C      1  0.5260490000000  0.4671160000000  0.5141200000000 1.0
C      1  0.4714220000000  0.4949370000000  0.5118130000000 1.0
C      1  0.5227880000000  0.5696890000000  0.4047330000000 1.0
C      1  0.5528040000000  0.4490140000000  0.4022980000000 1.0
C      1  0.4311310000000  0.4865610000000  0.4056620000000 1.0
C      1  0.4533230000000  0.5473300000000  0.5676040000000 1.0
C      1  0.5647570000000  0.5090280000000  0.5604440000000 1.0
C      1  0.4733020000000  0.4392980000000  0.5651350000000 1.0
C      1  0.5023960000000  0.4012030000000  0.4749540000000 1.0
C      1  0.4164990000000  0.5526370000000  0.4745130000000 1.0
C      1  0.5855040000000  0.5489720000000  0.4707770000000 1.0
C      1  0.5615430000000  0.4435770000000  0.4478480000000 1.0
C      1  0.4205140000000  0.4802210000000  0.4435530000000 1.0
C      1  0.5141270000000  0.5774070000000  0.4429480000000 1.0
C      1  0.6092550000000  0.5333470000000  0.5166560000000 1.0
C      1  0.4798030000000  0.3934580000000  0.5189920000000 1.0
C      1  0.4157410000000  0.5768530000000  0.5214620000000 1.0
C      1  0.5346950000000  0.6165850000000  0.4902510000000 1.0
C      1  0.5852000000000  0.4043830000000  0.4935180000000 1.0
C      1  0.3770050000000  0.4804920000000  0.4914350000000 1.0
C      1  0.6024840000000  0.4764280000000  0.5059880000000 1.0
C      1  0.4263480000000  0.4290750000000  0.5039740000000 1.0
C      1  0.4713230000000  0.6039390000000  0.5071010000000 1.0
C      1  0.4546130000000  0.5539150000000  0.4625670000000 1.0
C      1  0.5700900000000  0.4997570000000  0.4751980000000 1.0
C      1  0.4653460000000  0.4483290000000  0.4797000000000 1.0
C      1  0.4997980000000  0.5278100000000  0.3837910000000 1.0
C      1  0.5266060000000  0.4864130000000  0.3830920000000 1.0
C      1  0.4748460000000  0.4889960000000  0.3856320000000 1.0
C      1  0.4231270000000  0.5742800000000  0.4491370000000 1.0
C      1  0.6050600000000  0.5309600000000  0.4519060000000 1.0
C      1  0.4717550000000  0.3990960000000  0.4638980000000 1.0
C      1  0.5199380000000  0.4987290000000  0.4113270000000 1.0
C      1  0.4919990000000  0.4814110000000  0.4117280000000 1.0
C      1  0.4914460000000  0.5147800000000  0.4112540000000 1.0
C      1  0.4328850000000  0.4512180000000  0.5365680000000 1.0
C      1  0.4875160000000  0.5862600000000  0.5389200000000 1.0
C      1  0.5762090000000  0.4645010000000  0.5335650000000 1.0
C      1  0.5477370000000  0.4202120000000  0.5369460000000 1.0
C      1  0.4029210000000  0.4912890000000  0.5382180000000 1.0
C      1  0.5475250000000  0.5903160000000  0.5318730000000 1.0
C      1  0.4880260000000  0.4672920000000  0.5526200000000 1.0
C      1  0.4761740000000  0.5248760000000  0.5561160000000 1.0
C      1  0.5318390000000  0.5091570000000  0.5517790000000 1.0
C      1  0.4883730000000  0.5109470000000  0.5845640000000 1.0
C      1  0.5222600000000  0.5081270000000  0.5844030000000 1.0
C      1  0.4894800000000  0.4771180000000  0.5851670000000 1.0
C      1  0.5317330000000  0.5382340000000  0.4666040000000 1.0
C      1  0.5236120000000  0.4464510000000  0.4642360000000 1.0
C      1  0.4464280000000  0.5100390000000  0.4628120000000 1.0
C      1  0.6167660000000  0.5288810000000  0.4850370000000 1.0
C      1  0.4582210000000  0.3975780000000  0.4959550000000 1.0
C      1  0.4348830000000  0.5891890000000  0.5044980000000 1.0
C      1  0.4508350000000  0.4213010000000  0.4735280000000 1.0
C      1  0.4439900000000  0.5814790000000  0.4735770000000 1.0
C      1  0.6017910000000  0.5038560000000  0.4690170000000 1.0
C      1  0.5013680000000  0.4968710000000  0.5045760000000 1.0
END
