TITL C-3289323-3850-343 -0.00104529500999483 125000 -522.692288948056 0 0 94 (C1) n - 1
REM
REM in /nfs/bkarasulu/CARBON/AIRSS/Generating-Clusters/AIREBO/with-SteepDescent/Higher-Symm/SD-CG/HFTN-CG
REM
REM
REM
REM
REM
REM ./C.cell (b20cbc046b6831c77cfcea5457e17084)
REM
REM compiler GCC version 9.2.1 20190827 (Red Hat 9.2.1-1)
REM options -cpp -mtune=generic -march=x86-64 -g -O0 -fpre-include=/usr/include/finclude/math-vector-fortran.h
REM seed -315475602 -456401547 -968111649 1973767085 1518767577 -578235923 1161592941 -1441258332 -225495405 1428296287 1888522263 268070507 61837130 -346455710 -1558538133 -2067961328 -1697659406 -761416244 1697710096 1317188017 -834569343 147553701 -195697495 -1926434844 -1941867553 2113979744 538947235 -701062727 -1179901050 269547862 425943155 1340804573 -370100667
REM
CELL 1.54180   50.00000   50.00000   50.00000   90.00000   90.00000   90.00000
LATT -1
SFAC C  
C      1  0.4663680000000  0.4563330000000  0.5115800000000 1.0
C      1  0.4978100000000  0.4618150000000  0.5349960000000 1.0
C      1  0.5302310000000  0.4575650000000  0.5126200000000 1.0
C      1  0.5197530000000  0.4629460000000  0.4745440000000 1.0
C      1  0.4798600000000  0.4507290000000  0.4739410000000 1.0
C      1  0.4886540000000  0.5610220000000  0.4670040000000 1.0
C      1  0.4701930000000  0.5695480000000  0.5025110000000 1.0
C      1  0.4812370000000  0.5743630000000  0.5345350000000 1.0
C      1  0.5219080000000  0.5588670000000  0.5168410000000 1.0
C      1  0.5335250000000  0.5774930000000  0.4834990000000 1.0
C      1  0.4540430000000  0.4884090000000  0.5373860000000 1.0
C      1  0.5401480000000  0.4765030000000  0.5741570000000 1.0
C      1  0.5813190000000  0.4798570000000  0.5031890000000 1.0
C      1  0.5132320000000  0.4822890000000  0.4219580000000 1.0
C      1  0.4378220000000  0.4812800000000  0.4685860000000 1.0
C      1  0.4491830000000  0.4697110000000  0.5641050000000 1.0
C      1  0.5564130000000  0.4560760000000  0.5669430000000 1.0
C      1  0.5827900000000  0.4570710000000  0.4867110000000 1.0
C      1  0.4970820000000  0.4603630000000  0.4180030000000 1.0
C      1  0.4202670000000  0.4553280000000  0.4612830000000 1.0
C      1  0.5222970000000  0.5206700000000  0.5734160000000 1.0
C      1  0.5802050000000  0.5297940000000  0.5043250000000 1.0
C      1  0.5375160000000  0.5201630000000  0.4237670000000 1.0
C      1  0.4384220000000  0.5241460000000  0.4428610000000 1.0
C      1  0.4308010000000  0.5208560000000  0.5360730000000 1.0
C      1  0.4697880000000  0.4806830000000  0.4801570000000 1.0
C      1  0.4836650000000  0.4926690000000  0.5328560000000 1.0
C      1  0.5168820000000  0.4822130000000  0.5522210000000 1.0
C      1  0.5219320000000  0.4924570000000  0.4913090000000 1.0
C      1  0.5184410000000  0.4872190000000  0.4519430000000 1.0
C      1  0.5777200000000  0.5262140000000  0.5358580000000 1.0
C      1  0.5579920000000  0.5018390000000  0.4311940000000 1.0
C      1  0.4542740000000  0.5115990000000  0.4228240000000 1.0
C      1  0.4134510000000  0.5111090000000  0.5084510000000 1.0
C      1  0.4997310000000  0.5076720000000  0.5839390000000 1.0
C      1  0.5591530000000  0.5593550000000  0.4717810000000 1.0
C      1  0.5004000000000  0.5794220000000  0.4417540000000 1.0
C      1  0.4317870000000  0.5683490000000  0.4918350000000 1.0
C      1  0.4593780000000  0.5591570000000  0.5543540000000 1.0
C      1  0.5231690000000  0.5979380000000  0.5538140000000 1.0
C      1  0.5300910000000  0.4959090000000  0.5239290000000 1.0
C      1  0.5300330000000  0.5173450000000  0.4756010000000 1.0
C      1  0.4903910000000  0.5024530000000  0.4640940000000 1.0
C      1  0.4513330000000  0.5204380000000  0.5017880000000 1.0
C      1  0.4915120000000  0.5211950000000  0.5434760000000 1.0
C      1  0.5453170000000  0.5051460000000  0.5682490000000 1.0
C      1  0.5864200000000  0.5036740000000  0.4892330000000 1.0
C      1  0.5148260000000  0.5092950000000  0.4088590000000 1.0
C      1  0.4229080000000  0.5066760000000  0.4603330000000 1.0
C      1  0.4360730000000  0.5011040000000  0.5633120000000 1.0
C      1  0.5511600000000  0.4786200000000  0.4555910000000 1.0
C      1  0.4743350000000  0.4896340000000  0.4375610000000 1.0
C      1  0.4394730000000  0.4906420000000  0.5114500000000 1.0
C      1  0.4880820000000  0.4785950000000  0.5699380000000 1.0
C      1  0.5601360000000  0.4807940000000  0.5250530000000 1.0
C      1  0.4687330000000  0.5049640000000  0.5719590000000 1.0
C      1  0.5622560000000  0.5063530000000  0.5455800000000 1.0
C      1  0.5709240000000  0.5044490000000  0.4613810000000 1.0
C      1  0.4858400000000  0.5105470000000  0.4149870000000 1.0
C      1  0.4062280000000  0.5154030000000  0.4824100000000 1.0
C      1  0.4664350000000  0.5220550000000  0.4781850000000 1.0
C      1  0.4603440000000  0.5297720000000  0.5505900000000 1.0
C      1  0.5193140000000  0.5263060000000  0.5247050000000 1.0
C      1  0.5602060000000  0.5313380000000  0.4781140000000 1.0
C      1  0.5028280000000  0.5340970000000  0.4639630000000 1.0
C      1  0.4945250000000  0.4332220000000  0.4366820000000 1.0
C      1  0.4440230000000  0.4272890000000  0.4981620000000 1.0
C      1  0.4779480000000  0.4309900000000  0.5507720000000 1.0
C      1  0.5328440000000  0.4244220000000  0.5340810000000 1.0
C      1  0.5445270000000  0.4316440000000  0.4749120000000 1.0
C      1  0.5158750000000  0.5435320000000  0.5531810000000 1.0
C      1  0.5761430000000  0.5598980000000  0.5144360000000 1.0
C      1  0.5305940000000  0.5369660000000  0.4471260000000 1.0
C      1  0.4550630000000  0.5400550000000  0.4595380000000 1.0
C      1  0.4378720000000  0.5460120000000  0.5146190000000 1.0
C      1  0.5094150000000  0.5733920000000  0.5434110000000 1.0
C      1  0.5512870000000  0.5693830000000  0.5101200000000 1.0
C      1  0.5254200000000  0.5676810000000  0.4528660000000 1.0
C      1  0.4571170000000  0.5688540000000  0.4711150000000 1.0
C      1  0.4479350000000  0.5758640000000  0.5274250000000 1.0
C      1  0.5179920000000  0.4336560000000  0.4595550000000 1.0
C      1  0.4671220000000  0.4221070000000  0.4802260000000 1.0
C      1  0.4620810000000  0.4299620000000  0.5268690000000 1.0
C      1  0.5075320000000  0.4310570000000  0.5435280000000 1.0
C      1  0.5395880000000  0.4288100000000  0.5025590000000 1.0
C      1  0.4734700000000  0.4589660000000  0.4415470000000 1.0
C      1  0.4386750000000  0.4613640000000  0.4961310000000 1.0
C      1  0.4717180000000  0.4514720000000  0.5694280000000 1.0
C      1  0.5535780000000  0.4505470000000  0.5363730000000 1.0
C      1  0.5617370000000  0.4526580000000  0.4683410000000 1.0
C      1  0.4903840000000  0.4139210000000  0.4628980000000 1.0
C      1  0.5024460000000  0.5717280000000  0.4936110000000 1.0
C      1  0.4919520000000  0.4931240000000  0.5027420000000 1.0
C      1  0.4984100000000  0.4603920000000  0.5009440000000 1.0
END
