TITL C-3289332-8317-176 0.000682875639526464 125000 -671.878818171745 0 0 129 (C1) n - 1
REM
REM in /nfs/bkarasulu/CARBON/AIRSS/Generating-Clusters/AIREBO/with-SteepDescent/Higher-Symm/SD-CG/HFTN-CG
REM
REM
REM
REM
REM
REM ./C.cell (b20cbc046b6831c77cfcea5457e17084)
REM
REM compiler GCC version 9.2.1 20190827 (Red Hat 9.2.1-1)
REM options -cpp -mtune=generic -march=x86-64 -g -O0 -fpre-include=/usr/include/finclude/math-vector-fortran.h
REM seed -1419940775 1013259053 1486056533 852145436 -1608899905 -1064841575 -176783664 -328178747 160290365 1715393746 -953270814 -879856299 -1190321258 -618694817 -35244712 -68256043 482999716 -1024380565 -1017107338 804490250 862506555 89878354 468927676 -380753775 -11175196 -1115451473 1487495472 -568946806 -1972450268 1330539321 1168434023 2062630059 -1169674006
REM
CELL 1.54180   50.00000   50.00000   50.00000   90.00000   90.00000   90.00000
LATT -1
SFAC C  
C      1  0.4773450000000  0.4715050000000  0.5706910000000 1.0
C      1  0.4588160000000  0.4283000000000  0.4640340000000 1.0
C      1  0.4626540000000  0.5368410000000  0.4282140000000 1.0
C      1  0.5172840000000  0.4589520000000  0.5349680000000 1.0
C      1  0.5042770000000  0.5056370000000  0.4189790000000 1.0
C      1  0.5462030000000  0.5530650000000  0.4306850000000 1.0
C      1  0.4334060000000  0.5200530000000  0.5018610000000 1.0
C      1  0.5070470000000  0.5781910000000  0.4325630000000 1.0
C      1  0.5795840000000  0.5577090000000  0.5447480000000 1.0
C      1  0.5345400000000  0.4553840000000  0.4810870000000 1.0
C      1  0.4607460000000  0.4488410000000  0.4264750000000 1.0
C      1  0.4824910000000  0.4054010000000  0.4643490000000 1.0
C      1  0.5168410000000  0.4403160000000  0.4356130000000 1.0
C      1  0.4446280000000  0.5358070000000  0.5506000000000 1.0
C      1  0.5344780000000  0.4164110000000  0.5209270000000 1.0
C      1  0.5352350000000  0.5619890000000  0.5596990000000 1.0
C      1  0.4856650000000  0.4880180000000  0.4413680000000 1.0
C      1  0.4689740000000  0.5444160000000  0.5150150000000 1.0
C      1  0.5631980000000  0.5198430000000  0.5739320000000 1.0
C      1  0.5501690000000  0.5929400000000  0.4999050000000 1.0
C      1  0.5735950000000  0.5257740000000  0.4407770000000 1.0
C      1  0.4375660000000  0.4717000000000  0.5088870000000 1.0
C      1  0.4954400000000  0.5369110000000  0.5857550000000 1.0
C      1  0.4635990000000  0.4757880000000  0.4089590000000 1.0
C      1  0.4754380000000  0.4635700000000  0.5187550000000 1.0
C      1  0.5695200000000  0.5339030000000  0.4972420000000 1.0
C      1  0.4740900000000  0.5548520000000  0.4741660000000 1.0
C      1  0.5580460000000  0.5192660000000  0.5430150000000 1.0
C      1  0.4586150000000  0.4466850000000  0.4995290000000 1.0
C      1  0.5335810000000  0.5770380000000  0.4799080000000 1.0
C      1  0.5250150000000  0.5399020000000  0.5090620000000 1.0
C      1  0.4936350000000  0.4313730000000  0.4832570000000 1.0
C      1  0.5557160000000  0.4818190000000  0.5022590000000 1.0
C      1  0.4821410000000  0.5209750000000  0.4485200000000 1.0
C      1  0.4643480000000  0.4135140000000  0.5045150000000 1.0
C      1  0.5117370000000  0.4206260000000  0.4564450000000 1.0
C      1  0.5002540000000  0.5019690000000  0.5319860000000 1.0
C      1  0.4485240000000  0.5635410000000  0.5221010000000 1.0
C      1  0.4372390000000  0.4165190000000  0.4844970000000 1.0
C      1  0.4943960000000  0.4791860000000  0.4722310000000 1.0
C      1  0.5703030000000  0.4725720000000  0.4765160000000 1.0
C      1  0.5346150000000  0.5104100000000  0.4043490000000 1.0
C      1  0.5830840000000  0.5367650000000  0.4715220000000 1.0
C      1  0.5321660000000  0.4214540000000  0.4814130000000 1.0
C      1  0.4278630000000  0.5514750000000  0.5042860000000 1.0
C      1  0.4901110000000  0.4558910000000  0.4311560000000 1.0
C      1  0.4896910000000  0.4418220000000  0.5361550000000 1.0
C      1  0.4905540000000  0.3936730000000  0.4952330000000 1.0
C      1  0.4125370000000  0.4912850000000  0.4664140000000 1.0
C      1  0.5646860000000  0.4785400000000  0.4293760000000 1.0
C      1  0.4793170000000  0.5643500000000  0.5622180000000 1.0
C      1  0.5617470000000  0.5512480000000  0.5665250000000 1.0
C      1  0.4855180000000  0.4874780000000  0.3971900000000 1.0
C      1  0.4454400000000  0.4670630000000  0.5834370000000 1.0
C      1  0.4298410000000  0.5664780000000  0.4795740000000 1.0
C      1  0.5039060000000  0.4277480000000  0.5112710000000 1.0
C      1  0.5127280000000  0.5191740000000  0.5658090000000 1.0
C      1  0.4518120000000  0.4852910000000  0.4397530000000 1.0
C      1  0.5749380000000  0.5593700000000  0.4474640000000 1.0
C      1  0.5662010000000  0.4968310000000  0.4566680000000 1.0
C      1  0.5804160000000  0.5199100000000  0.5237180000000 1.0
C      1  0.5427040000000  0.5129660000000  0.4981390000000 1.0
C      1  0.5337040000000  0.4721710000000  0.4554050000000 1.0
C      1  0.5689170000000  0.4501830000000  0.5379760000000 1.0
C      1  0.5213550000000  0.3954340000000  0.4975830000000 1.0
C      1  0.4346990000000  0.4892470000000  0.5600140000000 1.0
C      1  0.5221330000000  0.4782390000000  0.4241680000000 1.0
C      1  0.5213790000000  0.5243330000000  0.4419170000000 1.0
C      1  0.4624230000000  0.4215140000000  0.5365890000000 1.0
C      1  0.5321960000000  0.5047640000000  0.5294400000000 1.0
C      1  0.5777090000000  0.4907990000000  0.5230470000000 1.0
C      1  0.5002550000000  0.5732500000000  0.4857760000000 1.0
C      1  0.4370770000000  0.5358860000000  0.4396550000000 1.0
C      1  0.4060900000000  0.4777180000000  0.5457020000000 1.0
C      1  0.4534670000000  0.4999070000000  0.5205170000000 1.0
C      1  0.4191230000000  0.5268810000000  0.5559670000000 1.0
C      1  0.5022160000000  0.4871350000000  0.5614220000000 1.0
C      1  0.4881760000000  0.5346450000000  0.4115400000000 1.0
C      1  0.4141670000000  0.4955040000000  0.5154050000000 1.0
C      1  0.5489980000000  0.4511860000000  0.4334420000000 1.0
C      1  0.4533340000000  0.5279130000000  0.4752800000000 1.0
C      1  0.4579340000000  0.4456150000000  0.5601670000000 1.0
C      1  0.4663280000000  0.5005430000000  0.4906530000000 1.0
C      1  0.5577520000000  0.5068140000000  0.4190310000000 1.0
C      1  0.4556440000000  0.5805720000000  0.4816490000000 1.0
C      1  0.4360210000000  0.5079510000000  0.4538250000000 1.0
C      1  0.4349900000000  0.4610950000000  0.5404160000000 1.0
C      1  0.5297450000000  0.4117740000000  0.5508040000000 1.0
C      1  0.5010400000000  0.4243700000000  0.5630390000000 1.0
C      1  0.4965140000000  0.6056570000000  0.4954210000000 1.0
C      1  0.5464690000000  0.5501020000000  0.4636480000000 1.0
C      1  0.4760240000000  0.4558070000000  0.4735820000000 1.0
C      1  0.4719130000000  0.5167120000000  0.5436680000000 1.0
C      1  0.5284680000000  0.4520490000000  0.4058910000000 1.0
C      1  0.5298380000000  0.4368730000000  0.5726610000000 1.0
C      1  0.4905280000000  0.5900290000000  0.5284250000000 1.0
C      1  0.4148460000000  0.4327810000000  0.4849830000000 1.0
C      1  0.5207910000000  0.5916900000000  0.5146960000000 1.0
C      1  0.4843510000000  0.5250780000000  0.5002720000000 1.0
C      1  0.5635300000000  0.4441460000000  0.4914170000000 1.0
C      1  0.4998750000000  0.5465480000000  0.4561010000000 1.0
C      1  0.5240750000000  0.4717930000000  0.5069320000000 1.0
C      1  0.5359030000000  0.5659610000000  0.5264970000000 1.0
C      1  0.4747560000000  0.4243610000000  0.5807010000000 1.0
C      1  0.4730820000000  0.5232330000000  0.5932380000000 1.0
C      1  0.5366460000000  0.5112970000000  0.5851140000000 1.0
C      1  0.4034450000000  0.5100750000000  0.5427220000000 1.0
C      1  0.5023030000000  0.5114700000000  0.4748020000000 1.0
C      1  0.4979020000000  0.5590000000000  0.5165940000000 1.0
C      1  0.5614770000000  0.4329890000000  0.5172050000000 1.0
C      1  0.5353810000000  0.4842000000000  0.5918290000000 1.0
C      1  0.5294400000000  0.4673880000000  0.5644840000000 1.0
C      1  0.4668750000000  0.5938690000000  0.5036460000000 1.0
C      1  0.4417830000000  0.4556860000000  0.4531290000000 1.0
C      1  0.5772300000000  0.4718160000000  0.5628780000000 1.0
C      1  0.5344600000000  0.5044160000000  0.4662280000000 1.0
C      1  0.5842240000000  0.4945320000000  0.5769330000000 1.0
C      1  0.4633740000000  0.5011140000000  0.5726510000000 1.0
C      1  0.4931420000000  0.4858400000000  0.5055520000000 1.0
C      1  0.5662020000000  0.5570280000000  0.5205710000000 1.0
C      1  0.5207580000000  0.5397850000000  0.4786110000000 1.0
C      1  0.4985010000000  0.5864470000000  0.4544780000000 1.0
C      1  0.5163890000000  0.5500740000000  0.4202550000000 1.0
C      1  0.4221050000000  0.4636990000000  0.4796780000000 1.0
C      1  0.5106720000000  0.5635660000000  0.5743150000000 1.0
C      1  0.4523540000000  0.5643100000000  0.5528720000000 1.0
C      1  0.4958970000000  0.5407850000000  0.5452590000000 1.0
C      1  0.4236930000000  0.5561840000000  0.4539150000000 1.0
C      1  0.5516570000000  0.4798380000000  0.5419550000000 1.0
END
