TITL C-3289332-8317-477 -0.00185959303860144 125000 -666.013018536167 0 0 125 (C1) n - 1
REM
REM in /nfs/bkarasulu/CARBON/AIRSS/Generating-Clusters/AIREBO/with-SteepDescent/Higher-Symm/SD-CG/HFTN-CG
REM
REM
REM
REM
REM
REM ./C.cell (b20cbc046b6831c77cfcea5457e17084)
REM
REM compiler GCC version 9.2.1 20190827 (Red Hat 9.2.1-1)
REM options -cpp -mtune=generic -march=x86-64 -g -O0 -fpre-include=/usr/include/finclude/math-vector-fortran.h
REM seed 169068546 -2003291540 -1270871892 -1196665608 1414143230 -1782072575 -838035445 1103465024 2131155039 -729088976 -179132467 -1456273314 -167076541 2041290302 -1447938478 -339998870 -570113960 1305815155 1835748786 -1381160879 -313615099 227296791 1756095269 1031748227 94121680 -454473472 1958934448 1353874156 -171641643 797666961 -484534162 1635857207 1714469469
REM
CELL 1.54180   50.00000   50.00000   50.00000   90.00000   90.00000   90.00000
LATT -1
SFAC C  
C      1  0.4611300000000  0.5792250000000  0.4822540000000 1.0
C      1  0.4601850000000  0.4235380000000  0.5151300000000 1.0
C      1  0.5464700000000  0.5721370000000  0.4829730000000 1.0
C      1  0.5411360000000  0.4209150000000  0.5186800000000 1.0
C      1  0.4586910000000  0.5731310000000  0.5142640000000 1.0
C      1  0.4502350000000  0.4264940000000  0.4840980000000 1.0
C      1  0.5457610000000  0.5683260000000  0.5141300000000 1.0
C      1  0.5459240000000  0.4246810000000  0.4881110000000 1.0
C      1  0.5187020000000  0.4799130000000  0.4471190000000 1.0
C      1  0.5112850000000  0.5172370000000  0.5510480000000 1.0
C      1  0.4873030000000  0.4798300000000  0.4488410000000 1.0
C      1  0.4797980000000  0.5187710000000  0.5539730000000 1.0
C      1  0.5168560000000  0.4860740000000  0.5505160000000 1.0
C      1  0.5116150000000  0.5109490000000  0.4539380000000 1.0
C      1  0.4847100000000  0.4875850000000  0.5491100000000 1.0
C      1  0.4796810000000  0.5108040000000  0.4498450000000 1.0
C      1  0.4498480000000  0.4748800000000  0.4709740000000 1.0
C      1  0.4486920000000  0.5250210000000  0.5300620000000 1.0
C      1  0.5519570000000  0.4771470000000  0.4686190000000 1.0
C      1  0.5510640000000  0.5255060000000  0.5297410000000 1.0
C      1  0.4496010000000  0.4732150000000  0.5294730000000 1.0
C      1  0.4498720000000  0.5277500000000  0.4702140000000 1.0
C      1  0.5496390000000  0.4731570000000  0.5311380000000 1.0
C      1  0.5515810000000  0.5292980000000  0.4737930000000 1.0
C      1  0.4106050000000  0.5237450000000  0.5487030000000 1.0
C      1  0.3992220000000  0.4704700000000  0.4509430000000 1.0
C      1  0.6012160000000  0.5291130000000  0.5546200000000 1.0
C      1  0.5882840000000  0.4815900000000  0.4506630000000 1.0
C      1  0.4124780000000  0.5278390000000  0.4562740000000 1.0
C      1  0.4094990000000  0.4673920000000  0.5450090000000 1.0
C      1  0.5952240000000  0.5309380000000  0.4593530000000 1.0
C      1  0.5873130000000  0.4726910000000  0.5442070000000 1.0
C      1  0.4823730000000  0.5584220000000  0.5502070000000 1.0
C      1  0.4875000000000  0.4400910000000  0.4532940000000 1.0
C      1  0.5105140000000  0.5570590000000  0.5483920000000 1.0
C      1  0.5147470000000  0.4404000000000  0.4508730000000 1.0
C      1  0.4827540000000  0.5586620000000  0.4492020000000 1.0
C      1  0.4830430000000  0.4424730000000  0.5489870000000 1.0
C      1  0.5114410000000  0.5568790000000  0.4500190000000 1.0
C      1  0.5113020000000  0.4468390000000  0.5454740000000 1.0
C      1  0.4208750000000  0.4688670000000  0.4310300000000 1.0
C      1  0.4330800000000  0.5228190000000  0.5716700000000 1.0
C      1  0.5652420000000  0.4767390000000  0.4310330000000 1.0
C      1  0.5775050000000  0.5310350000000  0.5719450000000 1.0
C      1  0.4288550000000  0.4704580000000  0.5727960000000 1.0
C      1  0.4337090000000  0.5211800000000  0.4326050000000 1.0
C      1  0.5650560000000  0.4785380000000  0.5676140000000 1.0
C      1  0.5745740000000  0.5260900000000  0.4390960000000 1.0
C      1  0.4807700000000  0.5202510000000  0.4808860000000 1.0
C      1  0.4801390000000  0.4802370000000  0.5193260000000 1.0
C      1  0.5201450000000  0.5206780000000  0.4817870000000 1.0
C      1  0.5194940000000  0.4796410000000  0.5195590000000 1.0
C      1  0.4805070000000  0.5200550000000  0.5200010000000 1.0
C      1  0.4810020000000  0.4806270000000  0.4803530000000 1.0
C      1  0.5199480000000  0.5193600000000  0.5206710000000 1.0
C      1  0.5205390000000  0.4809880000000  0.4810510000000 1.0
C      1  0.4513650000000  0.5100810000000  0.5884470000000 1.0
C      1  0.4452090000000  0.4782150000000  0.4122250000000 1.0
C      1  0.5534680000000  0.5202830000000  0.5900680000000 1.0
C      1  0.5461120000000  0.4904490000000  0.4152270000000 1.0
C      1  0.4501470000000  0.5071830000000  0.4149340000000 1.0
C      1  0.4462050000000  0.4815720000000  0.5922330000000 1.0
C      1  0.5528520000000  0.5190460000000  0.4138880000000 1.0
C      1  0.5472920000000  0.4919520000000  0.5842350000000 1.0
C      1  0.5219830000000  0.5323760000000  0.4346430000000 1.0
C      1  0.5267890000000  0.4618020000000  0.5684330000000 1.0
C      1  0.4710280000000  0.5354830000000  0.4330870000000 1.0
C      1  0.4709030000000  0.4652550000000  0.5657380000000 1.0
C      1  0.5268630000000  0.5407730000000  0.5685700000000 1.0
C      1  0.5266800000000  0.4569420000000  0.4245280000000 1.0
C      1  0.4704430000000  0.5423550000000  0.5753780000000 1.0
C      1  0.4723160000000  0.4568110000000  0.4319660000000 1.0
C      1  0.5192860000000  0.4459430000000  0.5148430000000 1.0
C      1  0.5194890000000  0.5548810000000  0.4796640000000 1.0
C      1  0.4852960000000  0.4468850000000  0.5150850000000 1.0
C      1  0.4843790000000  0.5540110000000  0.4828500000000 1.0
C      1  0.5264280000000  0.4477190000000  0.4755790000000 1.0
C      1  0.5203720000000  0.5533420000000  0.5194940000000 1.0
C      1  0.4773840000000  0.4468570000000  0.4820150000000 1.0
C      1  0.4862890000000  0.5534250000000  0.5167980000000 1.0
C      1  0.4802360000000  0.4827150000000  0.5912870000000 1.0
C      1  0.4836440000000  0.5140790000000  0.4098490000000 1.0
C      1  0.5145020000000  0.4847920000000  0.5903200000000 1.0
C      1  0.5175950000000  0.5173690000000  0.4080600000000 1.0
C      1  0.4792250000000  0.4804790000000  0.4097980000000 1.0
C      1  0.4843180000000  0.5170880000000  0.5935010000000 1.0
C      1  0.5134970000000  0.4835960000000  0.4079620000000 1.0
C      1  0.5182930000000  0.5185840000000  0.5902000000000 1.0
C      1  0.4480020000000  0.4218710000000  0.5426180000000 1.0
C      1  0.4482140000000  0.5791920000000  0.4546250000000 1.0
C      1  0.5536030000000  0.4214290000000  0.5458830000000 1.0
C      1  0.5501650000000  0.5745300000000  0.4526400000000 1.0
C      1  0.4401260000000  0.4264600000000  0.4556970000000 1.0
C      1  0.4474610000000  0.5765230000000  0.5424990000000 1.0
C      1  0.5544590000000  0.4239810000000  0.4569330000000 1.0
C      1  0.5567940000000  0.5725560000000  0.5421680000000 1.0
C      1  0.4131510000000  0.5335890000000  0.4864940000000 1.0
C      1  0.4072760000000  0.4652470000000  0.5133130000000 1.0
C      1  0.5987380000000  0.5325840000000  0.4915070000000 1.0
C      1  0.5877750000000  0.4687060000000  0.5126160000000 1.0
C      1  0.4090990000000  0.5313280000000  0.5202100000000 1.0
C      1  0.4018560000000  0.4645450000000  0.4796950000000 1.0
C      1  0.6013050000000  0.5339610000000  0.5254890000000 1.0
C      1  0.5903580000000  0.4731050000000  0.4789320000000 1.0
C      1  0.5699110000000  0.5499340000000  0.4881230000000 1.0
C      1  0.5623370000000  0.4473220000000  0.5163090000000 1.0
C      1  0.4392210000000  0.5546510000000  0.4847810000000 1.0
C      1  0.4365140000000  0.4479410000000  0.5145940000000 1.0
C      1  0.5730780000000  0.5445640000000  0.5191220000000 1.0
C      1  0.5669200000000  0.4510320000000  0.4835970000000 1.0
C      1  0.4346670000000  0.5498330000000  0.5158880000000 1.0
C      1  0.4309230000000  0.4538150000000  0.4833870000000 1.0
C      1  0.5543360000000  0.5438210000000  0.5562200000000 1.0
C      1  0.5527070000000  0.4518860000000  0.4458120000000 1.0
C      1  0.4441310000000  0.5481250000000  0.5546320000000 1.0
C      1  0.4449460000000  0.4555240000000  0.4451150000000 1.0
C      1  0.5488270000000  0.5439410000000  0.4445350000000 1.0
C      1  0.5550100000000  0.4500330000000  0.5555030000000 1.0
C      1  0.4438110000000  0.5502160000000  0.4453940000000 1.0
C      1  0.4441080000000  0.4499200000000  0.5536760000000 1.0
C      1  0.4458090000000  0.4996010000000  0.5131350000000 1.0
C      1  0.4464010000000  0.5009680000000  0.4869610000000 1.0
C      1  0.5537690000000  0.4992480000000  0.5139600000000 1.0
C      1  0.5543490000000  0.5011000000000  0.4879950000000 1.0
C      1  0.5002500000000  0.5002810000000  0.5004670000000 1.0
END
