TITL C-3289331-6719-186 -0.000865523406402584 125000 -450.451634832426 0 0 91 (C1) n - 1
REM
REM in /nfs/bkarasulu/CARBON/AIRSS/Generating-Clusters/AIREBO/with-SteepDescent/Higher-Symm/SD-CG/HFTN-CG
REM
REM
REM
REM
REM
REM ./C.cell (b20cbc046b6831c77cfcea5457e17084)
REM
REM compiler GCC version 9.2.1 20190827 (Red Hat 9.2.1-1)
REM options -cpp -mtune=generic -march=x86-64 -g -O0 -fpre-include=/usr/include/finclude/math-vector-fortran.h
REM seed 1121422577 -1829784109 -882539317 -1137906705 -1129661031 1673143120 20690857 956297527 1344882048 -1123735989 917483908 948672162 -898970651 -1383032931 -1977803002 77237352 1125530682 -1464467330 2142748737 -1119927915 43003436 -46097402 -533641992 -1446734606 2043003591 -783799962 -976909186 -2074169511 272661726 -1717915847 1177620032 926961660 -473029775
REM
CELL 1.54180   50.00000   50.00000   50.00000   90.00000   90.00000   90.00000
LATT -1
SFAC C  
C      1  0.5063560000000  0.4260070000000  0.5681230000000 1.0
C      1  0.5548380000000  0.4351510000000  0.5423800000000 1.0
C      1  0.5615550000000  0.4410020000000  0.4791770000000 1.0
C      1  0.5209260000000  0.4346980000000  0.4400630000000 1.0
C      1  0.4630860000000  0.4311190000000  0.4445660000000 1.0
C      1  0.4361970000000  0.4333450000000  0.4935040000000 1.0
C      1  0.4540010000000  0.4362300000000  0.5462090000000 1.0
C      1  0.5776010000000  0.5374530000000  0.5160140000000 1.0
C      1  0.5727640000000  0.5235430000000  0.4382640000000 1.0
C      1  0.4973540000000  0.5185790000000  0.4085560000000 1.0
C      1  0.4291970000000  0.5364900000000  0.4500280000000 1.0
C      1  0.4217260000000  0.5352960000000  0.5222000000000 1.0
C      1  0.4649890000000  0.5193970000000  0.5849590000000 1.0
C      1  0.5415860000000  0.5353590000000  0.5723550000000 1.0
C      1  0.4831840000000  0.4581390000000  0.4742010000000 1.0
C      1  0.4773760000000  0.4875870000000  0.4902850000000 1.0
C      1  0.4725930000000  0.4653840000000  0.5120390000000 1.0
C      1  0.4978580000000  0.4658570000000  0.5320200000000 1.0
C      1  0.5228510000000  0.4799620000000  0.5217280000000 1.0
C      1  0.5350400000000  0.4689140000000  0.4954030000000 1.0
C      1  0.5154160000000  0.4632380000000  0.4726820000000 1.0
C      1  0.5618920000000  0.5610040000000  0.4731260000000 1.0
C      1  0.5258180000000  0.5889620000000  0.4538920000000 1.0
C      1  0.4712840000000  0.5782110000000  0.4441780000000 1.0
C      1  0.4457440000000  0.5754460000000  0.4987730000000 1.0
C      1  0.4483420000000  0.5820470000000  0.5257540000000 1.0
C      1  0.5036640000000  0.5746590000000  0.5599370000000 1.0
C      1  0.5466280000000  0.5683610000000  0.5248260000000 1.0
C      1  0.5177000000000  0.4947950000000  0.4218630000000 1.0
C      1  0.4505560000000  0.4920090000000  0.4383080000000 1.0
C      1  0.4196380000000  0.4939040000000  0.4978350000000 1.0
C      1  0.4512630000000  0.4947880000000  0.5618320000000 1.0
C      1  0.5182800000000  0.4875970000000  0.5784380000000 1.0
C      1  0.5740280000000  0.4954090000000  0.5348000000000 1.0
C      1  0.5703700000000  0.5008750000000  0.4644450000000 1.0
C      1  0.5390150000000  0.4998530000000  0.5544080000000 1.0
C      1  0.5606500000000  0.5033910000000  0.5041720000000 1.0
C      1  0.5393500000000  0.5080180000000  0.4526490000000 1.0
C      1  0.4889430000000  0.5016150000000  0.4428490000000 1.0
C      1  0.4450660000000  0.5053070000000  0.4692370000000 1.0
C      1  0.4415070000000  0.5006200000000  0.5229980000000 1.0
C      1  0.4850430000000  0.4976120000000  0.5587160000000 1.0
C      1  0.4674040000000  0.5129160000000  0.4190900000000 1.0
C      1  0.4152550000000  0.5183850000000  0.4745950000000 1.0
C      1  0.4319650000000  0.5191300000000  0.5479700000000 1.0
C      1  0.4962560000000  0.5094170000000  0.5885650000000 1.0
C      1  0.5671390000000  0.5160200000000  0.5609830000000 1.0
C      1  0.5842560000000  0.5210880000000  0.4879980000000 1.0
C      1  0.5452310000000  0.5153990000000  0.4209290000000 1.0
C      1  0.4659620000000  0.5196080000000  0.4919370000000 1.0
C      1  0.4665650000000  0.5233840000000  0.5262600000000 1.0
C      1  0.4981040000000  0.5224460000000  0.5402810000000 1.0
C      1  0.5280230000000  0.5134290000000  0.5252340000000 1.0
C      1  0.5335710000000  0.5203290000000  0.4923010000000 1.0
C      1  0.5165570000000  0.5301910000000  0.4641590000000 1.0
C      1  0.4823300000000  0.5277050000000  0.4627330000000 1.0
C      1  0.4595630000000  0.4594300000000  0.4419940000000 1.0
C      1  0.4252500000000  0.4625800000000  0.4890690000000 1.0
C      1  0.4449200000000  0.4655020000000  0.5517390000000 1.0
C      1  0.5071320000000  0.4566310000000  0.5702290000000 1.0
C      1  0.5635490000000  0.4665190000000  0.5393770000000 1.0
C      1  0.5681740000000  0.4708930000000  0.4732260000000 1.0
C      1  0.5191780000000  0.4631210000000  0.4330340000000 1.0
C      1  0.5766330000000  0.5401180000000  0.4638470000000 1.0
C      1  0.5179060000000  0.5335540000000  0.4298610000000 1.0
C      1  0.4553000000000  0.5328560000000  0.4422280000000 1.0
C      1  0.4342500000000  0.5309030000000  0.4979310000000 1.0
C      1  0.4589990000000  0.5333000000000  0.5583120000000 1.0
C      1  0.5152020000000  0.5281650000000  0.5695070000000 1.0
C      1  0.5564440000000  0.5305680000000  0.5331280000000 1.0
C      1  0.4750880000000  0.4340390000000  0.5250770000000 1.0
C      1  0.5038260000000  0.4329580000000  0.5382040000000 1.0
C      1  0.5304000000000  0.4442110000000  0.5254430000000 1.0
C      1  0.5344410000000  0.4349270000000  0.4929800000000 1.0
C      1  0.5111200000000  0.4300550000000  0.4687230000000 1.0
C      1  0.4798750000000  0.4246310000000  0.4692360000000 1.0
C      1  0.4647700000000  0.4322530000000  0.4951180000000 1.0
C      1  0.4406270000000  0.4739240000000  0.4654960000000 1.0
C      1  0.4410500000000  0.4678960000000  0.5187050000000 1.0
C      1  0.4782050000000  0.4657600000000  0.5581120000000 1.0
C      1  0.5374800000000  0.4670290000000  0.5590630000000 1.0
C      1  0.5645230000000  0.4697010000000  0.5067440000000 1.0
C      1  0.5393460000000  0.4771880000000  0.4565170000000 1.0
C      1  0.4896710000000  0.4716610000000  0.4436740000000 1.0
C      1  0.4848820000000  0.5615120000000  0.4653360000000 1.0
C      1  0.4687930000000  0.5534480000000  0.4901290000000 1.0
C      1  0.4711110000000  0.5569370000000  0.5231220000000 1.0
C      1  0.4984280000000  0.5562570000000  0.5366810000000 1.0
C      1  0.5226620000000  0.5466130000000  0.5200430000000 1.0
C      1  0.5355990000000  0.5541670000000  0.4896540000000 1.0
C      1  0.5157090000000  0.5640090000000  0.4676340000000 1.0
END
