TITL C-3289334-2237-228 -0.000587729201674958 125000 -194.318672662725 0 0 41 (C1) n - 1
REM
REM in /nfs/bkarasulu/CARBON/AIRSS/Generating-Clusters/AIREBO/with-SteepDescent/Higher-Symm/SD-CG/HFTN-CG
REM
REM
REM
REM
REM
REM ./C.cell (b20cbc046b6831c77cfcea5457e17084)
REM
REM compiler GCC version 9.2.1 20190827 (Red Hat 9.2.1-1)
REM options -cpp -mtune=generic -march=x86-64 -g -O0 -fpre-include=/usr/include/finclude/math-vector-fortran.h
REM seed 1902365487 -1472969329 -1271063329 -50999452 -1788484373 -1401608239 162561150 669376543 -428900487 1539599568 -1727383912 -1761659112 698787510 575127766 1643421398 -1831966153 976492537 -392316494 1976100927 531951045 1799256451 -105178313 1195932011 1636246367 94018074 391685184 -146353166 -132501335 2009082658 -310129988 -1057267696 -1855190281 91869631
REM
CELL 1.54180   50.00000   50.00000   50.00000   90.00000   90.00000   90.00000
LATT -1
SFAC C  
C      1  0.4534620000000  0.5513650000000  0.4930830000000 1.0
C      1  0.4527200000000  0.4807290000000  0.5475760000000 1.0
C      1  0.4556150000000  0.4695080000000  0.4591390000000 1.0
C      1  0.5439900000000  0.5504960000000  0.4916230000000 1.0
C      1  0.5443310000000  0.4828620000000  0.5474810000000 1.0
C      1  0.5417220000000  0.4678590000000  0.4611550000000 1.0
C      1  0.4629300000000  0.5266220000000  0.5144010000000 1.0
C      1  0.4634530000000  0.4749880000000  0.5158290000000 1.0
C      1  0.4641920000000  0.5002870000000  0.4702320000000 1.0
C      1  0.5354100000000  0.5277060000000  0.5141010000000 1.0
C      1  0.5346120000000  0.4753480000000  0.5168050000000 1.0
C      1  0.5333310000000  0.4988200000000  0.4706710000000 1.0
C      1  0.5567680000000  0.5069200000000  0.5269200000000 1.0
C      1  0.5551360000000  0.4730820000000  0.4919590000000 1.0
C      1  0.5553920000000  0.5205300000000  0.4803060000000 1.0
C      1  0.4409970000000  0.5057380000000  0.5277460000000 1.0
C      1  0.4427660000000  0.4734180000000  0.4903840000000 1.0
C      1  0.4419270000000  0.5218040000000  0.4808680000000 1.0
C      1  0.4298220000000  0.4741740000000  0.5218290000000 1.0
C      1  0.4307990000000  0.4934900000000  0.4656840000000 1.0
C      1  0.4294860000000  0.5327300000000  0.5105670000000 1.0
C      1  0.5683480000000  0.4751560000000  0.5232220000000 1.0
C      1  0.5666400000000  0.4917920000000  0.4660010000000 1.0
C      1  0.5689290000000  0.5330520000000  0.5088800000000 1.0
C      1  0.5118350000000  0.5122600000000  0.5579440000000 1.0
C      1  0.5143240000000  0.4473700000000  0.4817910000000 1.0
C      1  0.5138120000000  0.5443030000000  0.4637080000000 1.0
C      1  0.4789830000000  0.5159770000000  0.5543480000000 1.0
C      1  0.4828180000000  0.4449300000000  0.4903120000000 1.0
C      1  0.4809890000000  0.5394940000000  0.4602180000000 1.0
C      1  0.5153260000000  0.4515050000000  0.4506740000000 1.0
C      1  0.5181960000000  0.5683600000000  0.4839250000000 1.0
C      1  0.5181980000000  0.4821480000000  0.5657430000000 1.0
C      1  0.4823930000000  0.4534910000000  0.4591200000000 1.0
C      1  0.4856950000000  0.5588690000000  0.4872040000000 1.0
C      1  0.4854600000000  0.4830560000000  0.5564650000000 1.0
C      1  0.4995060000000  0.5201760000000  0.4812130000000 1.0
C      1  0.5002340000000  0.4737040000000  0.4955120000000 1.0
C      1  0.4985830000000  0.5085950000000  0.5275320000000 1.0
C      1  0.4795650000000  0.5003960000000  0.5005600000000 1.0
C      1  0.5191990000000  0.5012850000000  0.5014990000000 1.0
END
