TITL C-3289320-4661-219 0.00316225856504617 125000 -350.495253559708 0 0 60 (C1) n - 1
REM
REM in /nfs/bkarasulu/CARBON/AIRSS/Generating-Clusters/AIREBO/with-SteepDescent/Higher-Symm/SD-CG/HFTN-CG
REM
REM
REM
REM
REM
REM ./C.cell (b20cbc046b6831c77cfcea5457e17084)
REM
REM compiler GCC version 9.2.1 20190827 (Red Hat 9.2.1-1)
REM options -cpp -mtune=generic -march=x86-64 -g -O0 -fpre-include=/usr/include/finclude/math-vector-fortran.h
REM seed -288703096 456260216 964865235 -569620606 439078275 -1530659624 61553666 -2134448048 -356973924 -403140201 -2144128574 -314972891 2118110013 1626077649 1017195382 -1245224821 74358029 1361539065 1996868404 627862679 -1434266633 261722059 -148536278 2126308712 -672791575 -1572534778 -1935340627 -2021577671 674828397 88923325 -1473971985 775162916 1184717926
REM
CELL 1.54180   50.00000   50.00000   50.00000   90.00000   90.00000   90.00000
LATT -1
SFAC C  
C      1  0.4608710000000  0.5557070000000  0.5444350000000 1.0
C      1  0.5522910000000  0.5532460000000  0.5168320000000 1.0
C      1  0.4849710000000  0.5553370000000  0.4473730000000 1.0
C      1  0.5391840000000  0.5507440000000  0.5468680000000 1.0
C      1  0.4515360000000  0.5568910000000  0.5124500000000 1.0
C      1  0.5101960000000  0.5487260000000  0.4339610000000 1.0
C      1  0.4893500000000  0.5697950000000  0.4728760000000 1.0
C      1  0.4876470000000  0.5669310000000  0.5253630000000 1.0
C      1  0.5324480000000  0.5698340000000  0.4996070000000 1.0
C      1  0.5150250000000  0.5598080000000  0.4808660000000 1.0
C      1  0.5186870000000  0.5710760000000  0.5288100000000 1.0
C      1  0.4726280000000  0.5741190000000  0.4957190000000 1.0
C      1  0.4270220000000  0.4861710000000  0.4920210000000 1.0
C      1  0.5490560000000  0.4879580000000  0.5596940000000 1.0
C      1  0.5248150000000  0.4894370000000  0.4346540000000 1.0
C      1  0.5751690000000  0.4842120000000  0.4958050000000 1.0
C      1  0.4437180000000  0.4899550000000  0.5589500000000 1.0
C      1  0.4609220000000  0.4847680000000  0.4404550000000 1.0
C      1  0.5639770000000  0.4664800000000  0.5175010000000 1.0
C      1  0.4812200000000  0.4650740000000  0.4446310000000 1.0
C      1  0.4326960000000  0.4737870000000  0.5392720000000 1.0
C      1  0.4386770000000  0.4702310000000  0.5119770000000 1.0
C      1  0.5092800000000  0.4668000000000  0.4401990000000 1.0
C      1  0.5515890000000  0.4651390000000  0.5424560000000 1.0
C      1  0.5250660000000  0.5014500000000  0.5541800000000 1.0
C      1  0.5406910000000  0.5037110000000  0.4611220000000 1.0
C      1  0.4357790000000  0.5094510000000  0.4787050000000 1.0
C      1  0.4689160000000  0.4993770000000  0.5548790000000 1.0
C      1  0.4521610000000  0.5078940000000  0.4549660000000 1.0
C      1  0.5641750000000  0.5065620000000  0.4820880000000 1.0
C      1  0.5232160000000  0.4505560000000  0.5409290000000 1.0
C      1  0.5264020000000  0.4522580000000  0.4640140000000 1.0
C      1  0.4678040000000  0.4598650000000  0.5044850000000 1.0
C      1  0.4888440000000  0.4505530000000  0.5285100000000 1.0
C      1  0.4760770000000  0.4515950000000  0.4738960000000 1.0
C      1  0.5438160000000  0.4595150000000  0.4939480000000 1.0
C      1  0.4850070000000  0.5159730000000  0.4762450000000 1.0
C      1  0.4847960000000  0.5336790000000  0.5227460000000 1.0
C      1  0.5310030000000  0.5178750000000  0.5011620000000 1.0
C      1  0.5141580000000  0.5285620000000  0.4776780000000 1.0
C      1  0.5151260000000  0.5388670000000  0.5181030000000 1.0
C      1  0.4685850000000  0.5222990000000  0.5020080000000 1.0
C      1  0.5140770000000  0.4811520000000  0.5331690000000 1.0
C      1  0.5191990000000  0.4836850000000  0.4748970000000 1.0
C      1  0.4711170000000  0.4927050000000  0.5055790000000 1.0
C      1  0.4825470000000  0.4832300000000  0.5333330000000 1.0
C      1  0.4885720000000  0.4827990000000  0.4793850000000 1.0
C      1  0.5279320000000  0.4869000000000  0.5064500000000 1.0
C      1  0.4394460000000  0.5340520000000  0.4962100000000 1.0
C      1  0.5130990000000  0.5292070000000  0.5506390000000 1.0
C      1  0.5257190000000  0.5309900000000  0.4478540000000 1.0
C      1  0.5612570000000  0.5300270000000  0.5004340000000 1.0
C      1  0.4790980000000  0.5287300000000  0.5544980000000 1.0
C      1  0.4694990000000  0.5319300000000  0.4513500000000 1.0
C      1  0.4910270000000  0.4183730000000  0.5239070000000 1.0
C      1  0.5307460000000  0.4309240000000  0.4973830000000 1.0
C      1  0.4875300000000  0.4235840000000  0.4768300000000 1.0
C      1  0.5199520000000  0.4264340000000  0.5227040000000 1.0
C      1  0.4794510000000  0.4089940000000  0.4997820000000 1.0
C      1  0.5151340000000  0.4240180000000  0.4731560000000 1.0
END
