TITL C-3289330-4660-413 1.52692069854189e-07 125000 -19.0187538188895 0 0 4 (D(inf)h) n - 1
REM
REM in /nfs/bkarasulu/CARBON/AIRSS/Generating-Clusters/AIREBO/with-SteepDescent/Higher-Symm/SD-CG/HFTN-CG
REM
REM
REM
REM
REM
REM ./C.cell (b20cbc046b6831c77cfcea5457e17084)
REM
REM compiler GCC version 9.2.1 20190827 (Red Hat 9.2.1-1)
REM options -cpp -mtune=generic -march=x86-64 -g -O0 -fpre-include=/usr/include/finclude/math-vector-fortran.h
REM seed 1041840149 1582759171 -1741289703 1114362802 2051492281 1348716837 -1349413780 -1261012707 1945917405 1541775295 2067307301 1454984340 1030762380 2002526873 1534430878 -1956987469 1237722965 1941390609 -1157808599 1921735549 -21555730 -78123250 1825365392 -1986422539 1093457745 -1795325702 -170405670 -1535370692 -905041643 922443440 383435625 2064480953 -1273982184
REM
CELL 1.54180   50.00000   50.00000   50.00000   90.00000   90.00000   90.00000
LATT -1
SFAC C  
C      1  0.5068730000000  0.5019970000000  0.4990350000000 1.0
C      1  0.4802420000000  0.5019970000000  0.4990350000000 1.0
C      1  0.4540350000000  0.5019970000000  0.4990350000000 1.0
C      1  0.5330800000000  0.5019970000000  0.4990350000000 1.0
END
