TITL C-3289323-3850-712 0.0011926982204865 125000 -705.396509030095 0 0 134 (C1) n - 1
REM
REM in /nfs/bkarasulu/CARBON/AIRSS/Generating-Clusters/AIREBO/with-SteepDescent/Higher-Symm/SD-CG/HFTN-CG
REM
REM
REM
REM
REM
REM ./C.cell (b20cbc046b6831c77cfcea5457e17084)
REM
REM compiler GCC version 9.2.1 20190827 (Red Hat 9.2.1-1)
REM options -cpp -mtune=generic -march=x86-64 -g -O0 -fpre-include=/usr/include/finclude/math-vector-fortran.h
REM seed -350288793 -764608281 -1809829911 972026876 1836306104 -1749367091 -1893194284 1015389699 -1281419362 -1989318074 -831822211 -408073667 837329157 426194519 -649523478 211106582 159041999 -212351608 -1219709859 2104699551 -312727178 535343324 -5792255 -389754233 -166408783 566070927 167807563 -2069644559 -1070149131 608906243 689218014 1769421712 -835929980
REM
CELL 1.54180   50.00000   50.00000   50.00000   90.00000   90.00000   90.00000
LATT -1
SFAC C  
C      1  0.5221770000000  0.5608090000000  0.4513480000000 1.0
C      1  0.5308890000000  0.5190210000000  0.5731510000000 1.0
C      1  0.5247930000000  0.4256890000000  0.4734520000000 1.0
C      1  0.4710290000000  0.4454580000000  0.4362450000000 1.0
C      1  0.4712460000000  0.4856950000000  0.5754110000000 1.0
C      1  0.4637880000000  0.5711030000000  0.4803320000000 1.0
C      1  0.4902690000000  0.4181860000000  0.4513320000000 1.0
C      1  0.4743500000000  0.5839280000000  0.4443240000000 1.0
C      1  0.4809990000000  0.5066920000000  0.5973380000000 1.0
C      1  0.5220140000000  0.5915400000000  0.4637130000000 1.0
C      1  0.5310380000000  0.4152680000000  0.4473470000000 1.0
C      1  0.5225140000000  0.4973640000000  0.5956280000000 1.0
C      1  0.5168920000000  0.4892560000000  0.4012970000000 1.0
C      1  0.5076190000000  0.5998970000000  0.5359830000000 1.0
C      1  0.5127250000000  0.4179110000000  0.5709840000000 1.0
C      1  0.4989340000000  0.5182620000000  0.4016860000000 1.0
C      1  0.5174220000000  0.3992230000000  0.5503470000000 1.0
C      1  0.4937450000000  0.5807870000000  0.5609410000000 1.0
C      1  0.5455100000000  0.5414280000000  0.5560000000000 1.0
C      1  0.5420730000000  0.4266660000000  0.5002500000000 1.0
C      1  0.5429420000000  0.5369410000000  0.4406190000000 1.0
C      1  0.4560410000000  0.4605940000000  0.5340040000000 1.0
C      1  0.4568730000000  0.5692470000000  0.5122670000000 1.0
C      1  0.4483730000000  0.4645950000000  0.4348100000000 1.0
C      1  0.5808600000000  0.4702530000000  0.5086840000000 1.0
C      1  0.5589020000000  0.5058820000000  0.4721510000000 1.0
C      1  0.5765410000000  0.5181290000000  0.5186580000000 1.0
C      1  0.4242440000000  0.5254050000000  0.5064950000000 1.0
C      1  0.4164970000000  0.4927430000000  0.4693280000000 1.0
C      1  0.4224500000000  0.4878120000000  0.5198740000000 1.0
C      1  0.4943600000000  0.4202990000000  0.4823880000000 1.0
C      1  0.4952720000000  0.5581460000000  0.4386940000000 1.0
C      1  0.5008110000000  0.5268670000000  0.5805730000000 1.0
C      1  0.4937890000000  0.5799750000000  0.4719770000000 1.0
C      1  0.5037240000000  0.4410480000000  0.4336020000000 1.0
C      1  0.5013120000000  0.4769160000000  0.5804570000000 1.0
C      1  0.5353690000000  0.5011610000000  0.5444920000000 1.0
C      1  0.5320070000000  0.4588250000000  0.4772360000000 1.0
C      1  0.5276250000000  0.5404160000000  0.4781320000000 1.0
C      1  0.4717400000000  0.4997980000000  0.5447030000000 1.0
C      1  0.4655990000000  0.5371590000000  0.4795310000000 1.0
C      1  0.4732530000000  0.4545000000000  0.4683560000000 1.0
C      1  0.5319010000000  0.4655760000000  0.5879900000000 1.0
C      1  0.5325810000000  0.4370630000000  0.4241560000000 1.0
C      1  0.5421890000000  0.5992530000000  0.4868550000000 1.0
C      1  0.4732340000000  0.5397340000000  0.5941720000000 1.0
C      1  0.4686470000000  0.5613610000000  0.4189770000000 1.0
C      1  0.4645790000000  0.4120030000000  0.4920240000000 1.0
C      1  0.5648610000000  0.4914040000000  0.5305970000000 1.0
C      1  0.5609660000000  0.4761230000000  0.4817310000000 1.0
C      1  0.5554600000000  0.5307160000000  0.4951340000000 1.0
C      1  0.4428870000000  0.5122730000000  0.5317150000000 1.0
C      1  0.4376760000000  0.5177270000000  0.4784760000000 1.0
C      1  0.4286700000000  0.4759150000000  0.4935230000000 1.0
C      1  0.5342130000000  0.5974900000000  0.5187210000000 1.0
C      1  0.5385350000000  0.4401630000000  0.5708570000000 1.0
C      1  0.5406740000000  0.4687240000000  0.4153900000000 1.0
C      1  0.4538030000000  0.4189540000000  0.5165490000000 1.0
C      1  0.4665590000000  0.5629410000000  0.5720780000000 1.0
C      1  0.4677950000000  0.5301480000000  0.4062530000000 1.0
C      1  0.4380840000000  0.5463160000000  0.5709170000000 1.0
C      1  0.4278120000000  0.4271860000000  0.5150330000000 1.0
C      1  0.4400660000000  0.5307740000000  0.4259400000000 1.0
C      1  0.5693590000000  0.4499590000000  0.5655540000000 1.0
C      1  0.5597500000000  0.5767540000000  0.5100470000000 1.0
C      1  0.5702440000000  0.4691590000000  0.4294140000000 1.0
C      1  0.5748320000000  0.4349530000000  0.4658370000000 1.0
C      1  0.5759490000000  0.5604910000000  0.4647540000000 1.0
C      1  0.5751100000000  0.5033460000000  0.5715370000000 1.0
C      1  0.4336610000000  0.5642860000000  0.4658360000000 1.0
C      1  0.4281310000000  0.4371680000000  0.4663040000000 1.0
C      1  0.4410180000000  0.4934360000000  0.5692040000000 1.0
C      1  0.5055150000000  0.5147780000000  0.4745850000000 1.0
C      1  0.5124940000000  0.5157160000000  0.5239210000000 1.0
C      1  0.5071070000000  0.4667760000000  0.4990410000000 1.0
C      1  0.4902560000000  0.4833060000000  0.4745570000000 1.0
C      1  0.4954180000000  0.4862960000000  0.5243530000000 1.0
C      1  0.4893670000000  0.5272960000000  0.5017810000000 1.0
C      1  0.3875930000000  0.4469970000000  0.4931490000000 1.0
C      1  0.3914740000000  0.5317810000000  0.4513590000000 1.0
C      1  0.3966610000000  0.5190060000000  0.5590960000000 1.0
C      1  0.6067650000000  0.5490210000000  0.5063100000000 1.0
C      1  0.6104930000000  0.4761460000000  0.4618160000000 1.0
C      1  0.6118710000000  0.4729020000000  0.5479850000000 1.0
C      1  0.4647870000000  0.4784240000000  0.5118710000000 1.0
C      1  0.4553430000000  0.4891780000000  0.4464900000000 1.0
C      1  0.4632220000000  0.5373630000000  0.5210810000000 1.0
C      1  0.5374110000000  0.5388270000000  0.5227870000000 1.0
C      1  0.5322650000000  0.5087190000000  0.4544630000000 1.0
C      1  0.5329460000000  0.4534220000000  0.5166640000000 1.0
C      1  0.5739590000000  0.5298140000000  0.5620490000000 1.0
C      1  0.5710580000000  0.4278940000000  0.4929810000000 1.0
C      1  0.5720130000000  0.5407420000000  0.4454240000000 1.0
C      1  0.4358500000000  0.4692170000000  0.5525220000000 1.0
C      1  0.4281070000000  0.5692140000000  0.4973330000000 1.0
C      1  0.4236690000000  0.4547060000000  0.4442540000000 1.0
C      1  0.5867170000000  0.4437360000000  0.5104420000000 1.0
C      1  0.5824310000000  0.5155200000000  0.4525770000000 1.0
C      1  0.5886860000000  0.5328620000000  0.5380650000000 1.0
C      1  0.4124420000000  0.5496050000000  0.5077750000000 1.0
C      1  0.4064470000000  0.4767730000000  0.4499730000000 1.0
C      1  0.4091560000000  0.4711640000000  0.5395990000000 1.0
C      1  0.5499140000000  0.4502490000000  0.4495980000000 1.0
C      1  0.5487530000000  0.5670660000000  0.4799700000000 1.0
C      1  0.5502670000000  0.4848700000000  0.5703800000000 1.0
C      1  0.4580380000000  0.5481580000000  0.4484600000000 1.0
C      1  0.4554210000000  0.4307470000000  0.4709600000000 1.0
C      1  0.4631920000000  0.5236060000000  0.5659720000000 1.0
C      1  0.5246040000000  0.4891280000000  0.4346160000000 1.0
C      1  0.5219190000000  0.5670150000000  0.5183700000000 1.0
C      1  0.5228280000000  0.4446330000000  0.5433330000000 1.0
C      1  0.4727880000000  0.5084150000000  0.4302290000000 1.0
C      1  0.4736670000000  0.4354360000000  0.5345780000000 1.0
C      1  0.4802710000000  0.5558470000000  0.5417760000000 1.0
C      1  0.4850610000000  0.5830770000000  0.5219790000000 1.0
C      1  0.4895660000000  0.4340970000000  0.5626800000000 1.0
C      1  0.4883780000000  0.4843430000000  0.4191560000000 1.0
C      1  0.5196930000000  0.4168400000000  0.5239780000000 1.0
C      1  0.5189760000000  0.5616640000000  0.5497040000000 1.0
C      1  0.5181060000000  0.5300040000000  0.4226290000000 1.0
C      1  0.4158100000000  0.4466830000000  0.4927330000000 1.0
C      1  0.4213250000000  0.5348540000000  0.4540680000000 1.0
C      1  0.4243940000000  0.5198270000000  0.5590870000000 1.0
C      1  0.5810090000000  0.5530530000000  0.4975430000000 1.0
C      1  0.5846940000000  0.4664230000000  0.4593670000000 1.0
C      1  0.5847850000000  0.4761520000000  0.5535610000000 1.0
C      1  0.4929800000000  0.5266750000000  0.4452970000000 1.0
C      1  0.5018510000000  0.5337160000000  0.5501870000000 1.0
C      1  0.4957680000000  0.4366930000000  0.5101550000000 1.0
C      1  0.5008370000000  0.4706840000000  0.4448030000000 1.0
C      1  0.4990420000000  0.4642950000000  0.5502490000000 1.0
C      1  0.4969710000000  0.5603870000000  0.4996310000000 1.0
C      1  0.5427440000000  0.4809380000000  0.5092920000000 1.0
C      1  0.4572130000000  0.4890080000000  0.4804530000000 1.0
END
