TITL C-3289324-3781-158 -0.000593424726340735 125000 -596.574624148827 0 0 105 (C1) n - 1
REM
REM in /nfs/bkarasulu/CARBON/AIRSS/Generating-Clusters/AIREBO/with-SteepDescent/Higher-Symm/SD-CG/HFTN-CG
REM
REM
REM
REM
REM
REM ./C.cell (b20cbc046b6831c77cfcea5457e17084)
REM
REM compiler GCC version 9.2.1 20190827 (Red Hat 9.2.1-1)
REM options -cpp -mtune=generic -march=x86-64 -g -O0 -fpre-include=/usr/include/finclude/math-vector-fortran.h
REM seed 1913141959 1688349287 1716941635 976083265 -114974172 1994867556 1543586246 1644197073 673298406 895103707 2134945298 701089997 700017933 -1615735101 -13888090 1195031484 495959339 -19223203 242712359 -42781332 -703091209 -401168748 2022571234 -1401227419 -970597532 -85322368 -295165919 1344432339 1098187554 -1897226263 1521079612 -529174378 713387678
REM
CELL 1.54180   50.00000   50.00000   50.00000   90.00000   90.00000   90.00000
LATT -1
SFAC C  
C      1  0.5358200000000  0.5029630000000  0.5526450000000 1.0
C      1  0.5406180000000  0.4975930000000  0.4456020000000 1.0
C      1  0.4587930000000  0.5058950000000  0.5522650000000 1.0
C      1  0.4639670000000  0.4915040000000  0.4501490000000 1.0
C      1  0.4848480000000  0.5271970000000  0.4280740000000 1.0
C      1  0.4821710000000  0.4670500000000  0.5891360000000 1.0
C      1  0.5161970000000  0.5296210000000  0.4201390000000 1.0
C      1  0.5104130000000  0.4662200000000  0.5764970000000 1.0
C      1  0.4796700000000  0.5466800000000  0.5574750000000 1.0
C      1  0.4983330000000  0.4428460000000  0.4428870000000 1.0
C      1  0.5044050000000  0.5534870000000  0.5662660000000 1.0
C      1  0.5230990000000  0.4526140000000  0.4486280000000 1.0
C      1  0.4877700000000  0.5665750000000  0.4220840000000 1.0
C      1  0.4785880000000  0.4296990000000  0.5593740000000 1.0
C      1  0.5100590000000  0.5669260000000  0.4380990000000 1.0
C      1  0.5087900000000  0.4252750000000  0.5680390000000 1.0
C      1  0.5798260000000  0.4874610000000  0.5096940000000 1.0
C      1  0.5699740000000  0.5266290000000  0.4763230000000 1.0
C      1  0.4198590000000  0.4826750000000  0.5114450000000 1.0
C      1  0.4205560000000  0.5118770000000  0.4833310000000 1.0
C      1  0.4321530000000  0.4682600000000  0.5747580000000 1.0
C      1  0.4360970000000  0.5266570000000  0.4237140000000 1.0
C      1  0.5619770000000  0.4616660000000  0.5730860000000 1.0
C      1  0.5651570000000  0.5376480000000  0.4262980000000 1.0
C      1  0.4826800000000  0.5142660000000  0.4586600000000 1.0
C      1  0.4822500000000  0.4906690000000  0.5374580000000 1.0
C      1  0.5157600000000  0.5178450000000  0.4516610000000 1.0
C      1  0.5114420000000  0.4833700000000  0.5484340000000 1.0
C      1  0.4885760000000  0.4793710000000  0.4122380000000 1.0
C      1  0.4854360000000  0.5157550000000  0.5902680000000 1.0
C      1  0.5167040000000  0.4802800000000  0.4094900000000 1.0
C      1  0.5129590000000  0.5166350000000  0.5824280000000 1.0
C      1  0.4599630000000  0.4503400000000  0.5750670000000 1.0
C      1  0.4598910000000  0.5472540000000  0.4245470000000 1.0
C      1  0.5344480000000  0.4446890000000  0.5710480000000 1.0
C      1  0.5372580000000  0.5514340000000  0.4334350000000 1.0
C      1  0.5265960000000  0.5332000000000  0.5559870000000 1.0
C      1  0.5313480000000  0.4729310000000  0.4325000000000 1.0
C      1  0.4683670000000  0.5259900000000  0.5709980000000 1.0
C      1  0.4771330000000  0.4660010000000  0.4378300000000 1.0
C      1  0.5623290000000  0.4963600000000  0.4666180000000 1.0
C      1  0.5605440000000  0.5002980000000  0.5302910000000 1.0
C      1  0.4394730000000  0.4918580000000  0.4705790000000 1.0
C      1  0.4367120000000  0.5055020000000  0.5281190000000 1.0
C      1  0.5281890000000  0.4738350000000  0.5012310000000 1.0
C      1  0.5288460000000  0.5257160000000  0.5003930000000 1.0
C      1  0.4814140000000  0.4867340000000  0.4910350000000 1.0
C      1  0.4803670000000  0.5133500000000  0.5121910000000 1.0
C      1  0.4485690000000  0.5575220000000  0.5192600000000 1.0
C      1  0.4472300000000  0.4453620000000  0.4828390000000 1.0
C      1  0.5628560000000  0.5574170000000  0.5225540000000 1.0
C      1  0.5629550000000  0.4444880000000  0.4823610000000 1.0
C      1  0.4413430000000  0.5290710000000  0.5040400000000 1.0
C      1  0.4499150000000  0.4746350000000  0.4977170000000 1.0
C      1  0.5622360000000  0.5262680000000  0.5094290000000 1.0
C      1  0.5587890000000  0.4757300000000  0.4887230000000 1.0
C      1  0.4541700000000  0.5736340000000  0.4422380000000 1.0
C      1  0.4446030000000  0.4450900000000  0.5451550000000 1.0
C      1  0.5546640000000  0.5502620000000  0.4626770000000 1.0
C      1  0.5484870000000  0.4422160000000  0.5409000000000 1.0
C      1  0.4392510000000  0.5813630000000  0.5123600000000 1.0
C      1  0.4328040000000  0.4272470000000  0.4965560000000 1.0
C      1  0.5687410000000  0.5765300000000  0.5041150000000 1.0
C      1  0.5692250000000  0.4250060000000  0.4999680000000 1.0
C      1  0.5243260000000  0.4927960000000  0.5895720000000 1.0
C      1  0.5247530000000  0.5065900000000  0.4002470000000 1.0
C      1  0.4775960000000  0.4908120000000  0.6022280000000 1.0
C      1  0.4775430000000  0.5037920000000  0.4068720000000 1.0
C      1  0.5954110000000  0.5264600000000  0.5168930000000 1.0
C      1  0.5984910000000  0.4730690000000  0.4848370000000 1.0
C      1  0.4106190000000  0.5342250000000  0.5176780000000 1.0
C      1  0.3927920000000  0.4693420000000  0.4957660000000 1.0
C      1  0.5509340000000  0.4213520000000  0.5212070000000 1.0
C      1  0.5520320000000  0.5753780000000  0.4814770000000 1.0
C      1  0.4431910000000  0.4234700000000  0.5248710000000 1.0
C      1  0.4427610000000  0.5920680000000  0.4872530000000 1.0
C      1  0.4644250000000  0.4663500000000  0.5273530000000 1.0
C      1  0.4693740000000  0.5289470000000  0.4840380000000 1.0
C      1  0.5248180000000  0.4625790000000  0.5296020000000 1.0
C      1  0.5254930000000  0.5388480000000  0.4722850000000 1.0
C      1  0.3930770000000  0.4996380000000  0.4873190000000 1.0
C      1  0.3981360000000  0.5099190000000  0.5163920000000 1.0
C      1  0.5949340000000  0.5040700000000  0.4713320000000 1.0
C      1  0.6086560000000  0.5038950000000  0.5022860000000 1.0
C      1  0.4313380000000  0.4896730000000  0.5579550000000 1.0
C      1  0.4351950000000  0.5042570000000  0.4394860000000 1.0
C      1  0.5638300000000  0.4845770000000  0.5585370000000 1.0
C      1  0.5655590000000  0.5125980000000  0.4302620000000 1.0
C      1  0.5252040000000  0.5784330000000  0.4880800000000 1.0
C      1  0.5229890000000  0.4171930000000  0.5125920000000 1.0
C      1  0.4574250000000  0.5773370000000  0.4685810000000 1.0
C      1  0.4710670000000  0.4210240000000  0.5055510000000 1.0
C      1  0.4782350000000  0.5597650000000  0.4809450000000 1.0
C      1  0.4800590000000  0.4383060000000  0.5289640000000 1.0
C      1  0.5058540000000  0.5642620000000  0.4682890000000 1.0
C      1  0.5098710000000  0.4339900000000  0.5351240000000 1.0
C      1  0.5152670000000  0.5690590000000  0.5130630000000 1.0
C      1  0.5138720000000  0.4268070000000  0.4875870000000 1.0
C      1  0.4879220000000  0.5639950000000  0.5104530000000 1.0
C      1  0.4861250000000  0.4301460000000  0.4837920000000 1.0
C      1  0.4758000000000  0.4596770000000  0.4712190000000 1.0
C      1  0.4756230000000  0.5429060000000  0.5284770000000 1.0
C      1  0.5309670000000  0.4497220000000  0.4771560000000 1.0
C      1  0.5325790000000  0.5461940000000  0.5272770000000 1.0
C      1  0.5113560000000  0.5000980000000  0.5000940000000 1.0
END
