TITL C-3289326-3776-61 -0.0025337096604351 125000 -944.131137178821 0 0 181 (C1) n - 1
REM
REM in /nfs/bkarasulu/CARBON/AIRSS/Generating-Clusters/AIREBO/with-SteepDescent/Higher-Symm/SD-CG/HFTN-CG
REM
REM
REM
REM
REM
REM ./C.cell (b20cbc046b6831c77cfcea5457e17084)
REM
REM compiler GCC version 9.2.1 20190827 (Red Hat 9.2.1-1)
REM options -cpp -mtune=generic -march=x86-64 -g -O0 -fpre-include=/usr/include/finclude/math-vector-fortran.h
REM seed -1728583582 -1216908519 2062372645 -1044010755 -1669890862 -413759316 474549367 -1475737185 463244085 -1870403170 1833607936 -1775020338 792644175 -1726976769 -1636049481 -880663305 -869243569 -1592173881 1861894335 -30687975 -503320120 -851072505 -1647441565 -1146217378 -998726743 275671593 -532944129 953910108 -288792873 1157957635 1126381378 1801798653 -396117266
REM
CELL 1.54180   50.00000   50.00000   50.00000   90.00000   90.00000   90.00000
LATT -1
SFAC C  
C      1  0.5247050000000  0.4157690000000  0.5681680000000 1.0
C      1  0.4245840000000  0.4521160000000  0.5676160000000 1.0
C      1  0.4326540000000  0.5557800000000  0.5674970000000 1.0
C      1  0.5250680000000  0.5788380000000  0.5704730000000 1.0
C      1  0.5852820000000  0.4963780000000  0.5663730000000 1.0
C      1  0.4781350000000  0.5300070000000  0.5655240000000 1.0
C      1  0.5176710000000  0.5245360000000  0.5670850000000 1.0
C      1  0.5253630000000  0.4914530000000  0.5688920000000 1.0
C      1  0.5023020000000  0.4669320000000  0.5640310000000 1.0
C      1  0.4613280000000  0.4905790000000  0.5593650000000 1.0
C      1  0.5818210000000  0.5877110000000  0.4803320000000 1.0
C      1  0.5898710000000  0.4666460000000  0.4869270000000 1.0
C      1  0.4874480000000  0.4023180000000  0.4837450000000 1.0
C      1  0.3835830000000  0.4791620000000  0.4813130000000 1.0
C      1  0.4501880000000  0.5988400000000  0.4766020000000 1.0
C      1  0.4920050000000  0.4157540000000  0.5626940000000 1.0
C      1  0.4087300000000  0.4821680000000  0.5648090000000 1.0
C      1  0.4574740000000  0.5778270000000  0.5642080000000 1.0
C      1  0.5564990000000  0.5671440000000  0.5648130000000 1.0
C      1  0.5854250000000  0.4652620000000  0.5620090000000 1.0
C      1  0.5599010000000  0.4817690000000  0.4924100000000 1.0
C      1  0.5008370000000  0.4326120000000  0.4915500000000 1.0
C      1  0.4440630000000  0.4832420000000  0.4951940000000 1.0
C      1  0.4673980000000  0.5435430000000  0.4941840000000 1.0
C      1  0.5369270000000  0.5507240000000  0.4931020000000 1.0
C      1  0.5145450000000  0.5534820000000  0.4553140000000 1.0
C      1  0.5553860000000  0.5183090000000  0.4526950000000 1.0
C      1  0.5246570000000  0.4440470000000  0.4532250000000 1.0
C      1  0.4577460000000  0.4654890000000  0.4554020000000 1.0
C      1  0.4416340000000  0.5180210000000  0.4556640000000 1.0
C      1  0.5261240000000  0.4919980000000  0.3913040000000 1.0
C      1  0.4998920000000  0.4705450000000  0.3880920000000 1.0
C      1  0.4734990000000  0.4902400000000  0.3974090000000 1.0
C      1  0.4834140000000  0.5219380000000  0.3997190000000 1.0
C      1  0.5159940000000  0.5203810000000  0.3984030000000 1.0
C      1  0.6055680000000  0.4849820000000  0.5186790000000 1.0
C      1  0.5198720000000  0.3894090000000  0.5194730000000 1.0
C      1  0.4008940000000  0.4506670000000  0.5192630000000 1.0
C      1  0.4237220000000  0.5787350000000  0.5165690000000 1.0
C      1  0.5496490000000  0.5979950000000  0.5188380000000 1.0
C      1  0.5239160000000  0.5995940000000  0.5014190000000 1.0
C      1  0.6009150000000  0.5097700000000  0.5001240000000 1.0
C      1  0.5414670000000  0.4019770000000  0.5008540000000 1.0
C      1  0.4172420000000  0.4364000000000  0.4984320000000 1.0
C      1  0.4124420000000  0.5544970000000  0.4991800000000 1.0
C      1  0.5308760000000  0.5559440000000  0.5244300000000 1.0
C      1  0.5624920000000  0.4896450000000  0.5243330000000 1.0
C      1  0.5203770000000  0.4304790000000  0.5191580000000 1.0
C      1  0.4379680000000  0.4654670000000  0.5204340000000 1.0
C      1  0.4546440000000  0.5465320000000  0.5224830000000 1.0
C      1  0.4580270000000  0.4794740000000  0.5913320000000 1.0
C      1  0.4645980000000  0.5113570000000  0.5980990000000 1.0
C      1  0.5097430000000  0.5445970000000  0.6079820000000 1.0
C      1  0.5635720000000  0.4862990000000  0.5982630000000 1.0
C      1  0.5144410000000  0.4607420000000  0.5951910000000 1.0
C      1  0.5685380000000  0.5163890000000  0.5884510000000 1.0
C      1  0.5376370000000  0.4399360000000  0.5885850000000 1.0
C      1  0.4521690000000  0.4475270000000  0.5877280000000 1.0
C      1  0.4371060000000  0.5296820000000  0.5892610000000 1.0
C      1  0.5029220000000  0.5678120000000  0.5937420000000 1.0
C      1  0.5492660000000  0.4705020000000  0.5782810000000 1.0
C      1  0.4831310000000  0.4418170000000  0.5766180000000 1.0
C      1  0.4332530000000  0.4978770000000  0.5778590000000 1.0
C      1  0.4772580000000  0.5601430000000  0.5815960000000 1.0
C      1  0.5462690000000  0.5394640000000  0.5781060000000 1.0
C      1  0.5883310000000  0.5554190000000  0.4718940000000 1.0
C      1  0.5760080000000  0.4328810000000  0.4708160000000 1.0
C      1  0.4552760000000  0.4107730000000  0.4806200000000 1.0
C      1  0.4009770000000  0.5082860000000  0.4782400000000 1.0
C      1  0.4839480000000  0.5953990000000  0.4744660000000 1.0
C      1  0.4927290000000  0.4344070000000  0.4524460000000 1.0
C      1  0.4349640000000  0.4867010000000  0.4488580000000 1.0
C      1  0.4821540000000  0.5549760000000  0.4451220000000 1.0
C      1  0.5468820000000  0.5484030000000  0.4544600000000 1.0
C      1  0.5506880000000  0.4659390000000  0.4517690000000 1.0
C      1  0.3926170000000  0.4791620000000  0.5135500000000 1.0
C      1  0.4489740000000  0.5931380000000  0.5091380000000 1.0
C      1  0.5745660000000  0.5832990000000  0.5134350000000 1.0
C      1  0.6021750000000  0.4539630000000  0.5154350000000 1.0
C      1  0.4923710000000  0.3924150000000  0.5147700000000 1.0
C      1  0.4672340000000  0.4120850000000  0.4506940000000 1.0
C      1  0.4013250000000  0.5062670000000  0.4441860000000 1.0
C      1  0.4783740000000  0.5938320000000  0.4409420000000 1.0
C      1  0.5820680000000  0.5560300000000  0.4383120000000 1.0
C      1  0.5787520000000  0.4404210000000  0.4412080000000 1.0
C      1  0.5392380000000  0.4544250000000  0.5173150000000 1.0
C      1  0.4666830000000  0.4489180000000  0.5280640000000 1.0
C      1  0.4414030000000  0.5155070000000  0.5267700000000 1.0
C      1  0.4984380000000  0.5534880000000  0.5175070000000 1.0
C      1  0.5527860000000  0.5196550000000  0.5125290000000 1.0
C      1  0.5871880000000  0.5067170000000  0.5370690000000 1.0
C      1  0.5368750000000  0.4095710000000  0.5395530000000 1.0
C      1  0.4268840000000  0.4387490000000  0.5376670000000 1.0
C      1  0.4239940000000  0.5511480000000  0.5364650000000 1.0
C      1  0.5256140000000  0.5854690000000  0.5384100000000 1.0
C      1  0.5530240000000  0.5357000000000  0.5407270000000 1.0
C      1  0.5557040000000  0.4639140000000  0.5455220000000 1.0
C      1  0.4923380000000  0.4285830000000  0.5317850000000 1.0
C      1  0.4278340000000  0.4884630000000  0.5376920000000 1.0
C      1  0.4773490000000  0.5618320000000  0.5417030000000 1.0
C      1  0.4458910000000  0.4557980000000  0.4259940000000 1.0
C      1  0.4426700000000  0.5347310000000  0.4259710000000 1.0
C      1  0.5177050000000  0.5704040000000  0.4259800000000 1.0
C      1  0.5691750000000  0.5070960000000  0.4237050000000 1.0
C      1  0.5257760000000  0.4308280000000  0.4219160000000 1.0
C      1  0.4857330000000  0.4767750000000  0.4561130000000 1.0
C      1  0.4679160000000  0.5028320000000  0.4654550000000 1.0
C      1  0.5101010000000  0.5225470000000  0.4655060000000 1.0
C      1  0.5311440000000  0.5002590000000  0.4571430000000 1.0
C      1  0.5128530000000  0.4730020000000  0.4642130000000 1.0
C      1  0.4365020000000  0.4547210000000  0.4796660000000 1.0
C      1  0.4364440000000  0.5402050000000  0.4803320000000 1.0
C      1  0.5196490000000  0.5767230000000  0.4796050000000 1.0
C      1  0.5759080000000  0.5079420000000  0.4777440000000 1.0
C      1  0.5311620000000  0.4255020000000  0.4809760000000 1.0
C      1  0.4693640000000  0.5935560000000  0.5355550000000 1.0
C      1  0.5768250000000  0.5598880000000  0.5385200000000 1.0
C      1  0.5802980000000  0.4419620000000  0.5371350000000 1.0
C      1  0.4717450000000  0.4034920000000  0.5378140000000 1.0
C      1  0.3966410000000  0.5015210000000  0.5391610000000 1.0
C      1  0.4922320000000  0.5210320000000  0.4912730000000 1.0
C      1  0.5203510000000  0.5231540000000  0.5041110000000 1.0
C      1  0.5258880000000  0.4819120000000  0.4919950000000 1.0
C      1  0.4973000000000  0.4653660000000  0.5000980000000 1.0
C      1  0.4759860000000  0.4916240000000  0.4965280000000 1.0
C      1  0.5327420000000  0.5885450000000  0.4501740000000 1.0
C      1  0.5892640000000  0.4981430000000  0.4474250000000 1.0
C      1  0.5189780000000  0.4025690000000  0.4295250000000 1.0
C      1  0.4222210000000  0.4490080000000  0.4487100000000 1.0
C      1  0.4324140000000  0.5557100000000  0.4503290000000 1.0
C      1  0.4891570000000  0.5667850000000  0.4897400000000 1.0
C      1  0.5661490000000  0.5388170000000  0.4880680000000 1.0
C      1  0.5528660000000  0.4488090000000  0.4879110000000 1.0
C      1  0.4616860000000  0.4390750000000  0.4960150000000 1.0
C      1  0.4293490000000  0.5104540000000  0.4951880000000 1.0
C      1  0.5042910000000  0.4762720000000  0.4207460000000 1.0
C      1  0.4809450000000  0.4947820000000  0.4288920000000 1.0
C      1  0.4783580000000  0.5240680000000  0.4417620000000 1.0
C      1  0.5100050000000  0.5219040000000  0.4314830000000 1.0
C      1  0.5306630000000  0.4826080000000  0.4299200000000 1.0
C      1  0.4042330000000  0.5286600000000  0.5201010000000 1.0
C      1  0.4999880000000  0.6034810000000  0.5248170000000 1.0
C      1  0.5896610000000  0.5343410000000  0.5200150000000 1.0
C      1  0.5610830000000  0.4210860000000  0.5191280000000 1.0
C      1  0.4424320000000  0.4110220000000  0.5311540000000 1.0
C      1  0.4994670000000  0.4012840000000  0.4516330000000 1.0
C      1  0.4042050000000  0.4748080000000  0.4571370000000 1.0
C      1  0.4564360000000  0.5730090000000  0.4565960000000 1.0
C      1  0.5622400000000  0.5787740000000  0.4539980000000 1.0
C      1  0.5814130000000  0.4701330000000  0.4575370000000 1.0
C      1  0.4486260000000  0.5282000000000  0.5574810000000 1.0
C      1  0.5072960000000  0.5551200000000  0.5564000000000 1.0
C      1  0.5538780000000  0.5072440000000  0.5591670000000 1.0
C      1  0.5279340000000  0.4465960000000  0.5547820000000 1.0
C      1  0.4546900000000  0.4604080000000  0.5564040000000 1.0
C      1  0.5525980000000  0.4503330000000  0.4216210000000 1.0
C      1  0.4705580000000  0.4363930000000  0.4267450000000 1.0
C      1  0.4266190000000  0.5050860000000  0.4214920000000 1.0
C      1  0.4858290000000  0.5720140000000  0.4159520000000 1.0
C      1  0.5641940000000  0.5387690000000  0.4196680000000 1.0
C      1  0.3550650000000  0.4712890000000  0.4759660000000 1.0
C      1  0.4337020000000  0.6217060000000  0.4662540000000 1.0
C      1  0.6000580000000  0.6112750000000  0.4751350000000 1.0
C      1  0.6227460000000  0.4626040000000  0.4828710000000 1.0
C      1  0.4830910000000  0.3690600000000  0.4781670000000 1.0
C      1  0.5853830000000  0.4291600000000  0.4999310000000 1.0
C      1  0.4325680000000  0.4127020000000  0.5030440000000 1.0
C      1  0.3807160000000  0.5099790000000  0.5054920000000 1.0
C      1  0.4768630000000  0.6120840000000  0.5024170000000 1.0
C      1  0.5960960000000  0.5599690000000  0.5038860000000 1.0
C      1  0.5210020000000  0.5124540000000  0.5354650000000 1.0
C      1  0.5225500000000  0.4828930000000  0.5253040000000 1.0
C      1  0.4905680000000  0.4727050000000  0.5326140000000 1.0
C      1  0.4720690000000  0.5010880000000  0.5296820000000 1.0
C      1  0.4918510000000  0.5252540000000  0.5352980000000 1.0
C      1  0.4446540000000  0.4808950000000  0.4082910000000 1.0
C      1  0.4684620000000  0.5437140000000  0.4086090000000 1.0
C      1  0.5330670000000  0.5426610000000  0.4174130000000 1.0
C      1  0.5542180000000  0.4816100000000  0.4073660000000 1.0
C      1  0.4987570000000  0.4458310000000  0.4118690000000 1.0
C      1  0.4955690000000  0.5200790000000  0.5925480000000 1.0
END
