TITL C-3289324-3781-92 0.00433905772869673 125000 -423.111211653994 0 0 77 (C1) n - 1
REM
REM in /nfs/bkarasulu/CARBON/AIRSS/Generating-Clusters/AIREBO/with-SteepDescent/Higher-Symm/SD-CG/HFTN-CG
REM
REM
REM
REM
REM
REM ./C.cell (b20cbc046b6831c77cfcea5457e17084)
REM
REM compiler GCC version 9.2.1 20190827 (Red Hat 9.2.1-1)
REM options -cpp -mtune=generic -march=x86-64 -g -O0 -fpre-include=/usr/include/finclude/math-vector-fortran.h
REM seed -1158440986 -1492207314 -1336810547 878069681 913190395 664762871 924197824 -625733056 242659281 -1537570427 -605917304 -62035135 504729962 -1436971462 -365579706 -180096228 -385749428 -1293005999 -1750697163 -558558282 -143693142 -623658181 884478596 1429254470 -1804474354 -779757345 255893759 311097356 -1968172968 -2108049062 -854674911 -1630217384 1783760476
REM
CELL 1.54180   50.00000   50.00000   50.00000   90.00000   90.00000   90.00000
LATT -1
SFAC C  
C      1  0.4838790000000  0.4466370000000  0.4511630000000 1.0
C      1  0.4982930000000  0.4780360000000  0.4240490000000 1.0
C      1  0.4552340000000  0.5401580000000  0.5432280000000 1.0
C      1  0.4474860000000  0.5728750000000  0.5010720000000 1.0
C      1  0.5536380000000  0.5342510000000  0.5643390000000 1.0
C      1  0.5144570000000  0.5512520000000  0.5200800000000 1.0
C      1  0.5146680000000  0.5352270000000  0.4133040000000 1.0
C      1  0.5186640000000  0.5042310000000  0.4271960000000 1.0
C      1  0.5281680000000  0.4528000000000  0.4760630000000 1.0
C      1  0.4872300000000  0.4220590000000  0.4902410000000 1.0
C      1  0.5331600000000  0.5267980000000  0.5204560000000 1.0
C      1  0.4815780000000  0.4946630000000  0.5281520000000 1.0
C      1  0.4706690000000  0.5102680000000  0.4347730000000 1.0
C      1  0.4459220000000  0.5325620000000  0.4709060000000 1.0
C      1  0.4392290000000  0.4674430000000  0.5229530000000 1.0
C      1  0.4479500000000  0.4473480000000  0.4756200000000 1.0
C      1  0.5912920000000  0.4842490000000  0.5053000000000 1.0
C      1  0.4226090000000  0.5178880000000  0.4545110000000 1.0
C      1  0.4934880000000  0.5008800000000  0.4782760000000 1.0
C      1  0.5435730000000  0.5593590000000  0.4608140000000 1.0
C      1  0.5087480000000  0.4618830000000  0.5788110000000 1.0
C      1  0.4883530000000  0.5458400000000  0.5016930000000 1.0
C      1  0.5543900000000  0.5665630000000  0.4981240000000 1.0
C      1  0.4406210000000  0.5150110000000  0.4984040000000 1.0
C      1  0.4223780000000  0.4644510000000  0.4724710000000 1.0
C      1  0.5733230000000  0.5216950000000  0.4812370000000 1.0
C      1  0.5460200000000  0.4729590000000  0.5429730000000 1.0
C      1  0.4915860000000  0.4891190000000  0.5738910000000 1.0
C      1  0.5596730000000  0.4775680000000  0.4421110000000 1.0
C      1  0.4093960000000  0.5257280000000  0.5065910000000 1.0
C      1  0.4675450000000  0.5055270000000  0.5866140000000 1.0
C      1  0.4740860000000  0.4826570000000  0.4374950000000 1.0
C      1  0.4841710000000  0.5242570000000  0.5556150000000 1.0
C      1  0.4970470000000  0.5420120000000  0.4731060000000 1.0
C      1  0.4598360000000  0.5019160000000  0.5533060000000 1.0
C      1  0.5425360000000  0.4852030000000  0.5111620000000 1.0
C      1  0.4342780000000  0.4886260000000  0.5415990000000 1.0
C      1  0.5466410000000  0.5376910000000  0.4920460000000 1.0
C      1  0.4765510000000  0.4438670000000  0.5409590000000 1.0
C      1  0.5008120000000  0.4342300000000  0.4680290000000 1.0
C      1  0.5545300000000  0.4876030000000  0.5644840000000 1.0
C      1  0.4740710000000  0.5233410000000  0.4616220000000 1.0
C      1  0.5678410000000  0.4692680000000  0.5029390000000 1.0
C      1  0.4591070000000  0.5348040000000  0.5760310000000 1.0
C      1  0.5595310000000  0.5339940000000  0.5369250000000 1.0
C      1  0.5396370000000  0.5109110000000  0.5710680000000 1.0
C      1  0.4220720000000  0.4921430000000  0.4625390000000 1.0
C      1  0.4603230000000  0.4323250000000  0.4963600000000 1.0
C      1  0.4740970000000  0.4834160000000  0.4969300000000 1.0
C      1  0.4956900000000  0.5717840000000  0.5308680000000 1.0
C      1  0.5439930000000  0.4586880000000  0.4471140000000 1.0
C      1  0.4330110000000  0.5209330000000  0.5310160000000 1.0
C      1  0.5153680000000  0.4984040000000  0.5268090000000 1.0
C      1  0.5226520000000  0.4509050000000  0.5528190000000 1.0
C      1  0.5062040000000  0.4170670000000  0.5132590000000 1.0
C      1  0.4814540000000  0.4690290000000  0.5505120000000 1.0
C      1  0.5638260000000  0.5076660000000  0.4524460000000 1.0
C      1  0.4709830000000  0.5218500000000  0.5114460000000 1.0
C      1  0.4408570000000  0.4811160000000  0.4956640000000 1.0
C      1  0.5893540000000  0.5122180000000  0.5033730000000 1.0
C      1  0.5319990000000  0.5036390000000  0.4544460000000 1.0
C      1  0.5238570000000  0.4859550000000  0.4823580000000 1.0
C      1  0.5241310000000  0.5268250000000  0.4734590000000 1.0
C      1  0.5640070000000  0.5414680000000  0.4559600000000 1.0
C      1  0.5162920000000  0.5605620000000  0.4537480000000 1.0
C      1  0.5155510000000  0.4456580000000  0.5055700000000 1.0
C      1  0.4672500000000  0.4711260000000  0.4658800000000 1.0
C      1  0.5118450000000  0.4646000000000  0.5253340000000 1.0
C      1  0.5121110000000  0.5090520000000  0.5589430000000 1.0
C      1  0.5007490000000  0.4290760000000  0.5397820000000 1.0
C      1  0.4422200000000  0.5621750000000  0.4789680000000 1.0
C      1  0.4658460000000  0.5602160000000  0.5228370000000 1.0
C      1  0.5119750000000  0.5599480000000  0.4260310000000 1.0
C      1  0.5847390000000  0.5280710000000  0.5261220000000 1.0
C      1  0.4895660000000  0.5177150000000  0.4158960000000 1.0
C      1  0.5591820000000  0.4474110000000  0.4889160000000 1.0
C      1  0.4549050000000  0.4432460000000  0.5227910000000 1.0
END
