TITL C-3289327-5623-449 -0.000975821481688382 125000 -247.009223546197 0 0 41 (C1) n - 1
REM
REM in /nfs/bkarasulu/CARBON/AIRSS/Generating-Clusters/AIREBO/with-SteepDescent/Higher-Symm/SD-CG/HFTN-CG
REM
REM
REM
REM
REM
REM ./C.cell (b20cbc046b6831c77cfcea5457e17084)
REM
REM compiler GCC version 9.2.1 20190827 (Red Hat 9.2.1-1)
REM options -cpp -mtune=generic -march=x86-64 -g -O0 -fpre-include=/usr/include/finclude/math-vector-fortran.h
REM seed 1211840763 -873815774 -1027158822 -585374420 1458494428 1242012500 994423799 -105518563 727713896 1330227569 354297904 -18895723 -466932550 1948511589 1615175166 553586705 -417090923 -2066536127 925842747 1000453068 2055550033 -1119098015 -105312683 736051596 192798460 -766571298 -1301649415 -118195494 322178891 -504249312 1216856164 -2074842047 -185429826
REM
CELL 1.54180   50.00000   50.00000   50.00000   90.00000   90.00000   90.00000
LATT -1
SFAC C  
C      1  0.4824360000000  0.5262520000000  0.4652560000000 1.0
C      1  0.4641670000000  0.5270580000000  0.4890540000000 1.0
C      1  0.4716910000000  0.5234490000000  0.5173640000000 1.0
C      1  0.4922080000000  0.5305370000000  0.5368470000000 1.0
C      1  0.5191260000000  0.5378480000000  0.5290920000000 1.0
C      1  0.5308140000000  0.5367640000000  0.4834970000000 1.0
C      1  0.5116270000000  0.5287780000000  0.4632530000000 1.0
C      1  0.5119610000000  0.4432580000000  0.5372570000000 1.0
C      1  0.5311070000000  0.4425420000000  0.5121650000000 1.0
C      1  0.5304860000000  0.4356510000000  0.4814350000000 1.0
C      1  0.5075630000000  0.4329680000000  0.4593730000000 1.0
C      1  0.4747980000000  0.4435120000000  0.4584360000000 1.0
C      1  0.4715910000000  0.4449410000000  0.5102390000000 1.0
C      1  0.4832230000000  0.4456040000000  0.5358010000000 1.0
C      1  0.5366650000000  0.5155200000000  0.5353780000000 1.0
C      1  0.5492630000000  0.5144970000000  0.4878160000000 1.0
C      1  0.5220600000000  0.5032350000000  0.4508510000000 1.0
C      1  0.4749440000000  0.5020830000000  0.4489270000000 1.0
C      1  0.4430340000000  0.5058380000000  0.4838900000000 1.0
C      1  0.4558090000000  0.5011800000000  0.5291080000000 1.0
C      1  0.4945010000000  0.5061400000000  0.5549470000000 1.0
C      1  0.4530210000000  0.4622300000000  0.4694320000000 1.0
C      1  0.4498370000000  0.4605970000000  0.4987370000000 1.0
C      1  0.4706220000000  0.4622140000000  0.5551140000000 1.0
C      1  0.5283110000000  0.4692680000000  0.5414090000000 1.0
C      1  0.5496630000000  0.4713300000000  0.5153700000000 1.0
C      1  0.5390880000000  0.4684480000000  0.4831800000000 1.0
C      1  0.4984620000000  0.4597700000000  0.4402230000000 1.0
C      1  0.5216180000000  0.4953180000000  0.5507770000000 1.0
C      1  0.5513260000000  0.5036150000000  0.5141010000000 1.0
C      1  0.5438070000000  0.4939770000000  0.4679370000000 1.0
C      1  0.4992660000000  0.4876690000000  0.4412830000000 1.0
C      1  0.4517400000000  0.4894410000000  0.4608230000000 1.0
C      1  0.4417590000000  0.4876100000000  0.5078520000000 1.0
C      1  0.4703810000000  0.4902510000000  0.5514610000000 1.0
C      1  0.4982470000000  0.4890120000000  0.5002850000000 1.0
C      1  0.5234100000000  0.5807540000000  0.5048520000000 1.0
C      1  0.5239930000000  0.6069510000000  0.5043780000000 1.0
C      1  0.4915160000000  0.4430170000000  0.4876140000000 1.0
C      1  0.5254320000000  0.5532950000000  0.5060240000000 1.0
C      1  0.5088260000000  0.4677480000000  0.4905840000000 1.0
END
