TITL C-3289326-3776-360 -0.00277518638723941 125000 -873.538964687007 0 0 162 (C1) n - 1
REM
REM in /nfs/bkarasulu/CARBON/AIRSS/Generating-Clusters/AIREBO/with-SteepDescent/Higher-Symm/SD-CG/HFTN-CG
REM
REM
REM
REM
REM
REM ./C.cell (b20cbc046b6831c77cfcea5457e17084)
REM
REM compiler GCC version 9.2.1 20190827 (Red Hat 9.2.1-1)
REM options -cpp -mtune=generic -march=x86-64 -g -O0 -fpre-include=/usr/include/finclude/math-vector-fortran.h
REM seed 1622111734 960885437 470473004 -977756698 282639422 1713548947 234787479 1987342092 289056012 845230838 1913177220 -771513207 1187922151 -231634010 1533021549 2103144278 1129717198 794548563 -42985780 606136409 -1865938495 -1830134975 -1863536275 605726884 293014113 -461790770 -371076072 240554167 -1084380921 1466047350 855719813 -573267016 241196755
REM
CELL 1.54180   50.00000   50.00000   50.00000   90.00000   90.00000   90.00000
LATT -1
SFAC C  
C      1  0.4353150000000  0.5378770000000  0.5927860000000 1.0
C      1  0.4325670000000  0.5327270000000  0.4221820000000 1.0
C      1  0.5047880000000  0.4374560000000  0.5156170000000 1.0
C      1  0.4996220000000  0.4481480000000  0.4864920000000 1.0
C      1  0.4338150000000  0.4816870000000  0.4226710000000 1.0
C      1  0.4317720000000  0.4751360000000  0.5788100000000 1.0
C      1  0.5219020000000  0.4992140000000  0.4761010000000 1.0
C      1  0.5174980000000  0.4978310000000  0.5193230000000 1.0
C      1  0.5011670000000  0.6048400000000  0.4694960000000 1.0
C      1  0.4996530000000  0.6160550000000  0.5141000000000 1.0
C      1  0.4320680000000  0.5146930000000  0.5729280000000 1.0
C      1  0.4413290000000  0.5198510000000  0.4524430000000 1.0
C      1  0.4663940000000  0.4471560000000  0.4197810000000 1.0
C      1  0.4578750000000  0.4371470000000  0.5830990000000 1.0
C      1  0.5081800000000  0.5355030000000  0.5449580000000 1.0
C      1  0.5065050000000  0.5380440000000  0.4347280000000 1.0
C      1  0.5907480000000  0.5005700000000  0.5609660000000 1.0
C      1  0.5905590000000  0.5064250000000  0.4396320000000 1.0
C      1  0.5412470000000  0.4618000000000  0.5271380000000 1.0
C      1  0.5231140000000  0.4415030000000  0.4704100000000 1.0
C      1  0.4901600000000  0.5349140000000  0.5974070000000 1.0
C      1  0.5021640000000  0.5449930000000  0.3917380000000 1.0
C      1  0.4819500000000  0.4131730000000  0.5127060000000 1.0
C      1  0.4783550000000  0.4037530000000  0.4805730000000 1.0
C      1  0.4020740000000  0.5284870000000  0.4786790000000 1.0
C      1  0.4074600000000  0.5217590000000  0.5295570000000 1.0
C      1  0.4939130000000  0.5850960000000  0.4356310000000 1.0
C      1  0.4882460000000  0.5826840000000  0.5600390000000 1.0
C      1  0.5209920000000  0.4119690000000  0.5279750000000 1.0
C      1  0.5264080000000  0.4078070000000  0.4671630000000 1.0
C      1  0.5466740000000  0.4256950000000  0.4865000000000 1.0
C      1  0.5443750000000  0.4297650000000  0.5161680000000 1.0
C      1  0.5788090000000  0.5259530000000  0.5760520000000 1.0
C      1  0.5785690000000  0.5318960000000  0.4265760000000 1.0
C      1  0.5728180000000  0.4316120000000  0.4711770000000 1.0
C      1  0.5697740000000  0.4293670000000  0.5372720000000 1.0
C      1  0.5075310000000  0.3916010000000  0.4839930000000 1.0
C      1  0.5156070000000  0.3868410000000  0.5103410000000 1.0
C      1  0.5542420000000  0.5159750000000  0.5571560000000 1.0
C      1  0.5534820000000  0.5191260000000  0.4450680000000 1.0
C      1  0.5662860000000  0.5560810000000  0.4145440000000 1.0
C      1  0.5629170000000  0.5521500000000  0.5714680000000 1.0
C      1  0.5071730000000  0.4632940000000  0.4002210000000 1.0
C      1  0.5051960000000  0.4573420000000  0.5973040000000 1.0
C      1  0.4795920000000  0.4663950000000  0.4039580000000 1.0
C      1  0.4771860000000  0.4583910000000  0.5935030000000 1.0
C      1  0.4918580000000  0.5079990000000  0.4628200000000 1.0
C      1  0.4865030000000  0.4909760000000  0.5406740000000 1.0
C      1  0.5482160000000  0.5852040000000  0.5244200000000 1.0
C      1  0.5502870000000  0.5700760000000  0.4636740000000 1.0
C      1  0.5352930000000  0.4811910000000  0.4071710000000 1.0
C      1  0.5312580000000  0.4791950000000  0.5976470000000 1.0
C      1  0.5657540000000  0.5210450000000  0.4735350000000 1.0
C      1  0.5642770000000  0.5121850000000  0.5289910000000 1.0
C      1  0.4606990000000  0.4946220000000  0.5188300000000 1.0
C      1  0.4692510000000  0.4869170000000  0.4892880000000 1.0
C      1  0.4688050000000  0.4422950000000  0.4833560000000 1.0
C      1  0.4526370000000  0.4396370000000  0.5075320000000 1.0
C      1  0.5598000000000  0.5627060000000  0.5464460000000 1.0
C      1  0.5487860000000  0.5685390000000  0.4358900000000 1.0
C      1  0.5576200000000  0.4574550000000  0.4150700000000 1.0
C      1  0.5537540000000  0.4540680000000  0.5903260000000 1.0
C      1  0.4848740000000  0.5322350000000  0.5201250000000 1.0
C      1  0.4777740000000  0.5279490000000  0.4862390000000 1.0
C      1  0.5154230000000  0.4202360000000  0.4375540000000 1.0
C      1  0.5139210000000  0.4181350000000  0.5591340000000 1.0
C      1  0.4761910000000  0.5979370000000  0.5115850000000 1.0
C      1  0.4732430000000  0.5905760000000  0.4801680000000 1.0
C      1  0.5026480000000  0.4693650000000  0.5199640000000 1.0
C      1  0.4980200000000  0.4794980000000  0.4901400000000 1.0
C      1  0.5062600000000  0.4995870000000  0.6064310000000 1.0
C      1  0.5112720000000  0.5027940000000  0.3977280000000 1.0
C      1  0.4299980000000  0.4627150000000  0.4809750000000 1.0
C      1  0.4319150000000  0.4635430000000  0.5149340000000 1.0
C      1  0.4634510000000  0.4928580000000  0.4099870000000 1.0
C      1  0.4621940000000  0.4858370000000  0.5896310000000 1.0
C      1  0.5439840000000  0.5105640000000  0.6011470000000 1.0
C      1  0.5488610000000  0.5093570000000  0.4127780000000 1.0
C      1  0.5190910000000  0.5732910000000  0.5122740000000 1.0
C      1  0.5187500000000  0.5574150000000  0.4843120000000 1.0
C      1  0.5099430000000  0.5847860000000  0.4139810000000 1.0
C      1  0.5102590000000  0.5769690000000  0.5767920000000 1.0
C      1  0.4796190000000  0.5251200000000  0.5602170000000 1.0
C      1  0.4729530000000  0.5342150000000  0.4328720000000 1.0
C      1  0.4860740000000  0.4196370000000  0.5458480000000 1.0
C      1  0.4913110000000  0.4227220000000  0.4551510000000 1.0
C      1  0.4514250000000  0.4177270000000  0.5270600000000 1.0
C      1  0.4527420000000  0.4191520000000  0.4643200000000 1.0
C      1  0.5490290000000  0.5344580000000  0.3991890000000 1.0
C      1  0.5425600000000  0.5366560000000  0.5890610000000 1.0
C      1  0.5263130000000  0.5554730000000  0.4132730000000 1.0
C      1  0.5144200000000  0.5455160000000  0.5768870000000 1.0
C      1  0.4677520000000  0.5847130000000  0.4495850000000 1.0
C      1  0.4650990000000  0.5850720000000  0.5385460000000 1.0
C      1  0.3997730000000  0.4419220000000  0.5241600000000 1.0
C      1  0.4020560000000  0.4479760000000  0.4934760000000 1.0
C      1  0.4355090000000  0.4427020000000  0.4561290000000 1.0
C      1  0.4276810000000  0.4391000000000  0.5387140000000 1.0
C      1  0.5950450000000  0.5073060000000  0.5279170000000 1.0
C      1  0.5969490000000  0.5135040000000  0.4712960000000 1.0
C      1  0.5253990000000  0.4426310000000  0.5754330000000 1.0
C      1  0.5264940000000  0.4447540000000  0.4202450000000 1.0
C      1  0.5241790000000  0.4601760000000  0.4474870000000 1.0
C      1  0.5260260000000  0.4653590000000  0.5524060000000 1.0
C      1  0.5875620000000  0.4719750000000  0.5444230000000 1.0
C      1  0.5873880000000  0.4657580000000  0.4582840000000 1.0
C      1  0.4663780000000  0.5021120000000  0.4423960000000 1.0
C      1  0.4584550000000  0.4985590000000  0.5585100000000 1.0
C      1  0.4971970000000  0.4767370000000  0.4504530000000 1.0
C      1  0.4942810000000  0.4650130000000  0.5579570000000 1.0
C      1  0.3957990000000  0.4798470000000  0.4921390000000 1.0
C      1  0.3922830000000  0.4716500000000  0.5235960000000 1.0
C      1  0.4185560000000  0.5000730000000  0.4379790000000 1.0
C      1  0.4078620000000  0.4925140000000  0.5766040000000 1.0
C      1  0.4029690000000  0.5284340000000  0.4484070000000 1.0
C      1  0.4037550000000  0.5181880000000  0.5572340000000 1.0
C      1  0.4336050000000  0.4485630000000  0.5685990000000 1.0
C      1  0.4396520000000  0.4547000000000  0.4310750000000 1.0
C      1  0.5339820000000  0.5271410000000  0.5243640000000 1.0
C      1  0.5243650000000  0.5289580000000  0.4917970000000 1.0
C      1  0.5260760000000  0.6046890000000  0.5072400000000 1.0
C      1  0.5283320000000  0.5892470000000  0.4770330000000 1.0
C      1  0.5350900000000  0.4914250000000  0.4457360000000 1.0
C      1  0.5353960000000  0.4916730000000  0.5669860000000 1.0
C      1  0.5988340000000  0.4790660000000  0.5117400000000 1.0
C      1  0.6000350000000  0.4846620000000  0.4811410000000 1.0
C      1  0.4528380000000  0.5595850000000  0.4434270000000 1.0
C      1  0.4612090000000  0.5536060000000  0.5572830000000 1.0
C      1  0.5533920000000  0.5531730000000  0.5142520000000 1.0
C      1  0.5587400000000  0.5497980000000  0.4834610000000 1.0
C      1  0.4259180000000  0.5446340000000  0.5172440000000 1.0
C      1  0.4154740000000  0.5531370000000  0.4896190000000 1.0
C      1  0.5676160000000  0.4619760000000  0.4856650000000 1.0
C      1  0.5739250000000  0.4565940000000  0.5173350000000 1.0
C      1  0.4782140000000  0.5085830000000  0.6025930000000 1.0
C      1  0.4832260000000  0.5198220000000  0.4038270000000 1.0
C      1  0.4183180000000  0.4934740000000  0.5219080000000 1.0
C      1  0.4156620000000  0.5045220000000  0.4907390000000 1.0
C      1  0.5657890000000  0.4439120000000  0.4437100000000 1.0
C      1  0.5627150000000  0.4400700000000  0.5617280000000 1.0
C      1  0.4805000000000  0.5639080000000  0.5085570000000 1.0
C      1  0.4794760000000  0.5575100000000  0.4771290000000 1.0
C      1  0.4517200000000  0.5255920000000  0.5163840000000 1.0
C      1  0.4474140000000  0.5126490000000  0.4851410000000 1.0
C      1  0.4741150000000  0.4517780000000  0.4511340000000 1.0
C      1  0.4708360000000  0.4446030000000  0.5547390000000 1.0
C      1  0.6142580000000  0.5311930000000  0.4895230000000 1.0
C      1  0.6129330000000  0.5285030000000  0.5146380000000 1.0
C      1  0.4228680000000  0.5545860000000  0.4573740000000 1.0
C      1  0.4411140000000  0.5647070000000  0.5341970000000 1.0
C      1  0.5124300000000  0.5083090000000  0.4285170000000 1.0
C      1  0.5052800000000  0.5069230000000  0.5732280000000 1.0
C      1  0.5017470000000  0.5612420000000  0.4559200000000 1.0
C      1  0.4999930000000  0.5660380000000  0.5350260000000 1.0
C      1  0.4545510000000  0.4772260000000  0.4623540000000 1.0
C      1  0.4528850000000  0.4699850000000  0.5409270000000 1.0
C      1  0.4439230000000  0.5549000000000  0.4111080000000 1.0
C      1  0.4488130000000  0.5576650000000  0.5843580000000 1.0
C      1  0.5537390000000  0.4912860000000  0.4847660000000 1.0
C      1  0.5480200000000  0.4910880000000  0.5143220000000 1.0
C      1  0.5665450000000  0.4824030000000  0.4364060000000 1.0
C      1  0.5666060000000  0.4786010000000  0.5705180000000 1.0
END
