TITL C-3289321-8710-164 -0.00143248575726465 125000 -750.833583454095 0 0 142 (C1) n - 1
REM
REM in /nfs/bkarasulu/CARBON/AIRSS/Generating-Clusters/AIREBO/with-SteepDescent/Higher-Symm/SD-CG/HFTN-CG
REM
REM
REM
REM
REM
REM ./C.cell (b20cbc046b6831c77cfcea5457e17084)
REM
REM compiler GCC version 9.2.1 20190827 (Red Hat 9.2.1-1)
REM options -cpp -mtune=generic -march=x86-64 -g -O0 -fpre-include=/usr/include/finclude/math-vector-fortran.h
REM seed -898184787 1515925395 -987275791 -1398889552 114828283 -1191621365 288524401 1408163777 1748039522 1962785416 1934425590 601912729 1582040081 -505231125 1271023369 -1761498578 -1363111185 -880988614 2041424517 1333988448 -359111410 1655812188 1903271949 -1808162845 384748887 -1125760287 794169547 -1766359036 -1963359965 -1415987069 1360707056 -1142715314 -1563976170
REM
CELL 1.54180   50.00000   50.00000   50.00000   90.00000   90.00000   90.00000
LATT -1
SFAC C  
C      1  0.4698390000000  0.5645170000000  0.4425390000000 1.0
C      1  0.4623540000000  0.5833270000000  0.5509930000000 1.0
C      1  0.4561560000000  0.4725480000000  0.5938850000000 1.0
C      1  0.4579790000000  0.4023220000000  0.5060770000000 1.0
C      1  0.4588870000000  0.4564470000000  0.4206870000000 1.0
C      1  0.5422160000000  0.5694740000000  0.4437900000000 1.0
C      1  0.5368500000000  0.5729150000000  0.5473240000000 1.0
C      1  0.5286610000000  0.4737870000000  0.5831770000000 1.0
C      1  0.5374310000000  0.4130880000000  0.5024790000000 1.0
C      1  0.5414640000000  0.4609000000000  0.4143760000000 1.0
C      1  0.5547200000000  0.4847550000000  0.5086580000000 1.0
C      1  0.5554820000000  0.4920420000000  0.4807530000000 1.0
C      1  0.5665190000000  0.5282600000000  0.4926540000000 1.0
C      1  0.5533710000000  0.5232940000000  0.5185930000000 1.0
C      1  0.5688710000000  0.4992570000000  0.5316180000000 1.0
C      1  0.4420520000000  0.4798650000000  0.4945600000000 1.0
C      1  0.4226640000000  0.5018990000000  0.4773810000000 1.0
C      1  0.4327680000000  0.5286930000000  0.4886250000000 1.0
C      1  0.4415530000000  0.5247270000000  0.5190770000000 1.0
C      1  0.4357570000000  0.4924240000000  0.5255270000000 1.0
C      1  0.5472950000000  0.4163860000000  0.5426730000000 1.0
C      1  0.5462690000000  0.4308920000000  0.4401470000000 1.0
C      1  0.5431060000000  0.5320760000000  0.4148280000000 1.0
C      1  0.5464000000000  0.5955180000000  0.5094190000000 1.0
C      1  0.5395450000000  0.5397260000000  0.5893970000000 1.0
C      1  0.4633810000000  0.4184990000000  0.5411600000000 1.0
C      1  0.4734650000000  0.4285970000000  0.4076210000000 1.0
C      1  0.4588170000000  0.5363480000000  0.4153890000000 1.0
C      1  0.4571440000000  0.5986790000000  0.5107780000000 1.0
C      1  0.4527250000000  0.5148550000000  0.5994550000000 1.0
C      1  0.4853420000000  0.5903810000000  0.4846540000000 1.0
C      1  0.4814290000000  0.5393540000000  0.5724670000000 1.0
C      1  0.4843430000000  0.4497520000000  0.5546700000000 1.0
C      1  0.4790220000000  0.4195250000000  0.4539110000000 1.0
C      1  0.4863340000000  0.5126520000000  0.4319040000000 1.0
C      1  0.5152620000000  0.5764310000000  0.4931630000000 1.0
C      1  0.5107820000000  0.5229200000000  0.5674820000000 1.0
C      1  0.5129290000000  0.4353890000000  0.5490850000000 1.0
C      1  0.5154030000000  0.4405660000000  0.4636270000000 1.0
C      1  0.5191630000000  0.5045670000000  0.4311490000000 1.0
C      1  0.5573440000000  0.5327270000000  0.5669550000000 1.0
C      1  0.5437750000000  0.4496840000000  0.5485900000000 1.0
C      1  0.5483240000000  0.4387180000000  0.4719350000000 1.0
C      1  0.5470250000000  0.5018800000000  0.4143110000000 1.0
C      1  0.5486920000000  0.5705970000000  0.4868130000000 1.0
C      1  0.4585720000000  0.5315810000000  0.5557920000000 1.0
C      1  0.4556580000000  0.4516220000000  0.5415010000000 1.0
C      1  0.4564610000000  0.4350620000000  0.4713510000000 1.0
C      1  0.4527040000000  0.5095250000000  0.4353680000000 1.0
C      1  0.4575400000000  0.5731380000000  0.4879570000000 1.0
C      1  0.5136090000000  0.5568560000000  0.4414530000000 1.0
C      1  0.5148200000000  0.5788220000000  0.5270880000000 1.0
C      1  0.5096800000000  0.4942970000000  0.5858120000000 1.0
C      1  0.5103960000000  0.4275350000000  0.5172600000000 1.0
C      1  0.5150720000000  0.4601220000000  0.4358080000000 1.0
C      1  0.4897580000000  0.5457800000000  0.4388050000000 1.0
C      1  0.4911070000000  0.5807620000000  0.5384340000000 1.0
C      1  0.4853290000000  0.4841810000000  0.5899660000000 1.0
C      1  0.4783070000000  0.4298790000000  0.5059060000000 1.0
C      1  0.4846460000000  0.4496050000000  0.4397630000000 1.0
C      1  0.5800270000000  0.5130110000000  0.4429460000000 1.0
C      1  0.5852440000000  0.5625730000000  0.5002710000000 1.0
C      1  0.5995680000000  0.5329980000000  0.5430050000000 1.0
C      1  0.5829760000000  0.4552760000000  0.5307560000000 1.0
C      1  0.5841080000000  0.4558110000000  0.4674280000000 1.0
C      1  0.4159990000000  0.5248660000000  0.4348390000000 1.0
C      1  0.4208970000000  0.5647580000000  0.5010660000000 1.0
C      1  0.4206590000000  0.5208980000000  0.5621970000000 1.0
C      1  0.4170500000000  0.4432930000000  0.5380530000000 1.0
C      1  0.4195450000000  0.4479300000000  0.4647940000000 1.0
C      1  0.4045050000000  0.5081270000000  0.4579860000000 1.0
C      1  0.4065220000000  0.5393930000000  0.5074510000000 1.0
C      1  0.4108480000000  0.5226660000000  0.5333050000000 1.0
C      1  0.4145520000000  0.4678100000000  0.5207670000000 1.0
C      1  0.4136300000000  0.4608420000000  0.4915950000000 1.0
C      1  0.5845770000000  0.5026970000000  0.4681900000000 1.0
C      1  0.5953660000000  0.5322190000000  0.4975140000000 1.0
C      1  0.6032270000000  0.5158690000000  0.5199040000000 1.0
C      1  0.5940580000000  0.4834420000000  0.5151240000000 1.0
C      1  0.5930180000000  0.4783710000000  0.4823020000000 1.0
C      1  0.5728110000000  0.5594690000000  0.4687120000000 1.0
C      1  0.5746010000000  0.5474510000000  0.5483730000000 1.0
C      1  0.5717170000000  0.4616820000000  0.5590860000000 1.0
C      1  0.5754840000000  0.4331730000000  0.4860020000000 1.0
C      1  0.5688040000000  0.4914260000000  0.4277830000000 1.0
C      1  0.4318920000000  0.5665970000000  0.4691720000000 1.0
C      1  0.4350940000000  0.5491890000000  0.5500250000000 1.0
C      1  0.4318690000000  0.4676600000000  0.5565840000000 1.0
C      1  0.4316910000000  0.4254950000000  0.4872940000000 1.0
C      1  0.4272720000000  0.4932460000000  0.4293050000000 1.0
C      1  0.5380560000000  0.5490830000000  0.5109050000000 1.0
C      1  0.5488730000000  0.5062850000000  0.5544950000000 1.0
C      1  0.5392890000000  0.4601930000000  0.5178040000000 1.0
C      1  0.5404890000000  0.4712980000000  0.4668550000000 1.0
C      1  0.5471300000000  0.5228870000000  0.4691400000000 1.0
C      1  0.4619750000000  0.5477660000000  0.5081290000000 1.0
C      1  0.4588620000000  0.5025520000000  0.5474180000000 1.0
C      1  0.4639560000000  0.4586700000000  0.5096720000000 1.0
C      1  0.4559860000000  0.4654630000000  0.4673300000000 1.0
C      1  0.4533270000000  0.5244190000000  0.4653010000000 1.0
C      1  0.5151510000000  0.5558560000000  0.5597010000000 1.0
C      1  0.5149330000000  0.4489700000000  0.5803480000000 1.0
C      1  0.5096340000000  0.4176930000000  0.4847240000000 1.0
C      1  0.5144410000000  0.4797660000000  0.4083760000000 1.0
C      1  0.5156960000000  0.5834830000000  0.4598960000000 1.0
C      1  0.4866060000000  0.5699650000000  0.5691930000000 1.0
C      1  0.4816930000000  0.4518540000000  0.5860270000000 1.0
C      1  0.4806350000000  0.4054970000000  0.4823220000000 1.0
C      1  0.4833440000000  0.4799860000000  0.4221240000000 1.0
C      1  0.4825130000000  0.5878960000000  0.4523940000000 1.0
C      1  0.4756230000000  0.5315080000000  0.6021040000000 1.0
C      1  0.4853330000000  0.4067440000000  0.5529660000000 1.0
C      1  0.4906550000000  0.4135300000000  0.4241320000000 1.0
C      1  0.4895270000000  0.5295410000000  0.4024740000000 1.0
C      1  0.4845990000000  0.6175090000000  0.5038670000000 1.0
C      1  0.5095320000000  0.5329300000000  0.6000080000000 1.0
C      1  0.5182790000000  0.4023750000000  0.5537580000000 1.0
C      1  0.5169460000000  0.4202810000000  0.4362270000000 1.0
C      1  0.5177330000000  0.5357370000000  0.3970730000000 1.0
C      1  0.5163610000000  0.6093680000000  0.5015480000000 1.0
C      1  0.4410990000000  0.5468500000000  0.4428660000000 1.0
C      1  0.4439470000000  0.5709080000000  0.5253490000000 1.0
C      1  0.4398500000000  0.4953990000000  0.5746910000000 1.0
C      1  0.4364490000000  0.4236920000000  0.5209520000000 1.0
C      1  0.4355220000000  0.4654490000000  0.4404140000000 1.0
C      1  0.5597590000000  0.5403440000000  0.4437830000000 1.0
C      1  0.5615380000000  0.5680940000000  0.5244490000000 1.0
C      1  0.5525900000000  0.4812490000000  0.5713160000000 1.0
C      1  0.5606320000000  0.4337650000000  0.5162820000000 1.0
C      1  0.5615330000000  0.4612450000000  0.4418310000000 1.0
C      1  0.4852080000000  0.5126400000000  0.4663240000000 1.0
C      1  0.4832020000000  0.5315100000000  0.4948940000000 1.0
C      1  0.4851520000000  0.4979960000000  0.5344280000000 1.0
C      1  0.4893060000000  0.4673630000000  0.5274550000000 1.0
C      1  0.4811870000000  0.4818760000000  0.4796790000000 1.0
C      1  0.5187280000000  0.5084820000000  0.4623330000000 1.0
C      1  0.5106410000000  0.5431240000000  0.4982830000000 1.0
C      1  0.5181190000000  0.5040750000000  0.5401160000000 1.0
C      1  0.5149940000000  0.4833570000000  0.5124010000000 1.0
C      1  0.5105490000000  0.4692790000000  0.4817480000000 1.0
C      1  0.5178630000000  0.5118060000000  0.4939610000000 1.0
C      1  0.4805610000000  0.5020010000000  0.5044440000000 1.0
END
