TITL C-3289329-2751-11 -0.00274171190030705 125000 -1070.47033375551 0 0 198 (C1) n - 1
REM
REM in /nfs/bkarasulu/CARBON/AIRSS/Generating-Clusters/AIREBO/with-SteepDescent/Higher-Symm/SD-CG/HFTN-CG
REM
REM
REM
REM
REM
REM ./C.cell (b20cbc046b6831c77cfcea5457e17084)
REM
REM compiler GCC version 9.2.1 20190827 (Red Hat 9.2.1-1)
REM options -cpp -mtune=generic -march=x86-64 -g -O0 -fpre-include=/usr/include/finclude/math-vector-fortran.h
REM seed 593335835 477614074 -572221287 -266390725 941528652 1507026404 1374263514 -309420521 168848951 267588632 -796649984 1485556713 -1070149483 1746970608 434274615 1172649436 388680408 1155904922 -1385911652 496101131 1863348002 930672961 982629534 -1944029998 -354318429 -1147107062 -113940777 986136910 1170065416 982772452 -1005455435 -1782794119 718437313
REM
CELL 1.54180   50.00000   50.00000   50.00000   90.00000   90.00000   90.00000
LATT -1
SFAC C  
C      1  0.4571570000000  0.5480360000000  0.5139140000000 1.0
C      1  0.4987480000000  0.5708030000000  0.5268130000000 1.0
C      1  0.4869280000000  0.5573160000000  0.5039930000000 1.0
C      1  0.5469430000000  0.5754400000000  0.5062200000000 1.0
C      1  0.5242830000000  0.5572560000000  0.4678840000000 1.0
C      1  0.4938460000000  0.5650590000000  0.4751420000000 1.0
C      1  0.5073150000000  0.5330130000000  0.4946320000000 1.0
C      1  0.5030640000000  0.3916390000000  0.5367210000000 1.0
C      1  0.5339280000000  0.3884170000000  0.5228390000000 1.0
C      1  0.5395640000000  0.3885690000000  0.4906000000000 1.0
C      1  0.5154480000000  0.3916880000000  0.4686510000000 1.0
C      1  0.4815300000000  0.3911920000000  0.4661440000000 1.0
C      1  0.4631870000000  0.3891800000000  0.4889900000000 1.0
C      1  0.4747860000000  0.3939590000000  0.5188350000000 1.0
C      1  0.4914450000000  0.4857220000000  0.5655240000000 1.0
C      1  0.5444980000000  0.4845390000000  0.5453060000000 1.0
C      1  0.5732410000000  0.4826680000000  0.4875290000000 1.0
C      1  0.5327310000000  0.4804750000000  0.4530770000000 1.0
C      1  0.4824620000000  0.4909100000000  0.4304710000000 1.0
C      1  0.4392770000000  0.4800650000000  0.4716080000000 1.0
C      1  0.4364800000000  0.4976340000000  0.5302080000000 1.0
C      1  0.4814840000000  0.4580940000000  0.4288720000000 1.0
C      1  0.4325230000000  0.4505790000000  0.4602550000000 1.0
C      1  0.4254110000000  0.4464430000000  0.5340820000000 1.0
C      1  0.4889140000000  0.4553350000000  0.5744150000000 1.0
C      1  0.5433980000000  0.4515280000000  0.5534350000000 1.0
C      1  0.5669810000000  0.4536850000000  0.5010340000000 1.0
C      1  0.5410040000000  0.4491360000000  0.4480470000000 1.0
C      1  0.5408030000000  0.4437310000000  0.4085370000000 1.0
C      1  0.4470470000000  0.4522850000000  0.3973870000000 1.0
C      1  0.3966190000000  0.4465290000000  0.4772640000000 1.0
C      1  0.4254180000000  0.4452190000000  0.5671000000000 1.0
C      1  0.5062110000000  0.4594310000000  0.6106610000000 1.0
C      1  0.5830990000000  0.4473680000000  0.5514130000000 1.0
C      1  0.6073080000000  0.4485830000000  0.4629360000000 1.0
C      1  0.5524200000000  0.6019970000000  0.4672870000000 1.0
C      1  0.5079360000000  0.6001380000000  0.4407130000000 1.0
C      1  0.4421820000000  0.5886800000000  0.4497310000000 1.0
C      1  0.4170610000000  0.6063780000000  0.5447270000000 1.0
C      1  0.4899010000000  0.5965270000000  0.5746190000000 1.0
C      1  0.5354780000000  0.5919520000000  0.5584270000000 1.0
C      1  0.5701060000000  0.5943090000000  0.5196110000000 1.0
C      1  0.4586070000000  0.5756920000000  0.4262710000000 1.0
C      1  0.4290430000000  0.5733320000000  0.4694300000000 1.0
C      1  0.4324960000000  0.5847610000000  0.5528250000000 1.0
C      1  0.5154550000000  0.5833100000000  0.5782760000000 1.0
C      1  0.5634840000000  0.5856850000000  0.5497160000000 1.0
C      1  0.5739630000000  0.5965190000000  0.4858990000000 1.0
C      1  0.5357180000000  0.5989630000000  0.4392730000000 1.0
C      1  0.5596360000000  0.5364450000000  0.5922240000000 1.0
C      1  0.5962680000000  0.5380000000000  0.5097040000000 1.0
C      1  0.5775310000000  0.5351610000000  0.4281410000000 1.0
C      1  0.4952870000000  0.5333970000000  0.3968240000000 1.0
C      1  0.4064860000000  0.5292820000000  0.4354150000000 1.0
C      1  0.3950680000000  0.5303750000000  0.5284280000000 1.0
C      1  0.4303390000000  0.5160600000000  0.5989400000000 1.0
C      1  0.4036650000000  0.5590840000000  0.4710200000000 1.0
C      1  0.4182960000000  0.5611100000000  0.5598660000000 1.0
C      1  0.5138250000000  0.5604400000000  0.5958320000000 1.0
C      1  0.5788290000000  0.5617470000000  0.5591550000000 1.0
C      1  0.5961550000000  0.5813940000000  0.4768470000000 1.0
C      1  0.5460690000000  0.5823310000000  0.4187870000000 1.0
C      1  0.4571980000000  0.5571980000000  0.4066790000000 1.0
C      1  0.4957470000000  0.5034520000000  0.4659990000000 1.0
C      1  0.4705820000000  0.5195880000000  0.4740880000000 1.0
C      1  0.4698950000000  0.5114730000000  0.5046810000000 1.0
C      1  0.4784270000000  0.5276310000000  0.5308990000000 1.0
C      1  0.5079690000000  0.5319150000000  0.5263940000000 1.0
C      1  0.5261810000000  0.5071270000000  0.5276750000000 1.0
C      1  0.5241010000000  0.5136420000000  0.4787050000000 1.0
C      1  0.5193080000000  0.4955500000000  0.5653130000000 1.0
C      1  0.5660890000000  0.4891410000000  0.5194290000000 1.0
C      1  0.5624280000000  0.4898560000000  0.4559710000000 1.0
C      1  0.5162940000000  0.4943050000000  0.4305740000000 1.0
C      1  0.4545440000000  0.4939560000000  0.4469050000000 1.0
C      1  0.4249610000000  0.4844270000000  0.5021460000000 1.0
C      1  0.4695570000000  0.5018480000000  0.5803890000000 1.0
C      1  0.4774510000000  0.4565520000000  0.6041760000000 1.0
C      1  0.5654440000000  0.4576810000000  0.5785820000000 1.0
C      1  0.6123600000000  0.4328290000000  0.4863180000000 1.0
C      1  0.5672910000000  0.4549060000000  0.4268990000000 1.0
C      1  0.4715410000000  0.4382760000000  0.3906460000000 1.0
C      1  0.4039300000000  0.4556710000000  0.4475840000000 1.0
C      1  0.3990940000000  0.4581290000000  0.5489430000000 1.0
C      1  0.5450690000000  0.5455150000000  0.4908520000000 1.0
C      1  0.5225730000000  0.5335900000000  0.4440680000000 1.0
C      1  0.4771310000000  0.5476670000000  0.4580410000000 1.0
C      1  0.4474610000000  0.5555280000000  0.4836060000000 1.0
C      1  0.4638110000000  0.5619770000000  0.5442030000000 1.0
C      1  0.5180540000000  0.5593730000000  0.5435960000000 1.0
C      1  0.5545130000000  0.5530570000000  0.5285580000000 1.0
C      1  0.5297780000000  0.4271550000000  0.4871080000000 1.0
C      1  0.5054530000000  0.4227590000000  0.4698200000000 1.0
C      1  0.4777520000000  0.4343350000000  0.4739960000000 1.0
C      1  0.4672210000000  0.4384270000000  0.4978530000000 1.0
C      1  0.4799760000000  0.4260550000000  0.5216650000000 1.0
C      1  0.5081770000000  0.4310270000000  0.5323270000000 1.0
C      1  0.5305150000000  0.4190870000000  0.5160530000000 1.0
C      1  0.5508080000000  0.4175500000000  0.4401100000000 1.0
C      1  0.4862820000000  0.4264450000000  0.4174090000000 1.0
C      1  0.4355190000000  0.4167440000000  0.4586190000000 1.0
C      1  0.4309050000000  0.4187240000000  0.5206500000000 1.0
C      1  0.4755600000000  0.4051850000000  0.5744880000000 1.0
C      1  0.5521140000000  0.4196010000000  0.5612520000000 1.0
C      1  0.5859330000000  0.4260810000000  0.5015990000000 1.0
C      1  0.5382270000000  0.4734740000000  0.4044960000000 1.0
C      1  0.4437090000000  0.4801700000000  0.3995210000000 1.0
C      1  0.3904370000000  0.4752670000000  0.4843310000000 1.0
C      1  0.4231100000000  0.4758670000000  0.5766650000000 1.0
C      1  0.5125780000000  0.4869980000000  0.6124990000000 1.0
C      1  0.5902510000000  0.4778490000000  0.5534180000000 1.0
C      1  0.6122920000000  0.4765520000000  0.4618440000000 1.0
C      1  0.4904120000000  0.5996300000000  0.5339320000000 1.0
C      1  0.5224330000000  0.6094130000000  0.5398540000000 1.0
C      1  0.5233830000000  0.5980730000000  0.5080210000000 1.0
C      1  0.5246140000000  0.5901560000000  0.4765890000000 1.0
C      1  0.4922160000000  0.5959260000000  0.4691640000000 1.0
C      1  0.4736960000000  0.6004890000000  0.4428900000000 1.0
C      1  0.4949350000000  0.6462080000000  0.5046200000000 1.0
C      1  0.5482820000000  0.5244450000000  0.5147960000000 1.0
C      1  0.5498290000000  0.5270640000000  0.4634520000000 1.0
C      1  0.4899580000000  0.5229090000000  0.4392670000000 1.0
C      1  0.4421730000000  0.5297880000000  0.4641940000000 1.0
C      1  0.4345980000000  0.5280370000000  0.5193350000000 1.0
C      1  0.4738850000000  0.5375410000000  0.5632590000000 1.0
C      1  0.5375550000000  0.5359490000000  0.5525580000000 1.0
C      1  0.5003310000000  0.4058140000000  0.5623660000000 1.0
C      1  0.5594500000000  0.4035970000000  0.5388340000000 1.0
C      1  0.5643080000000  0.4051380000000  0.4856130000000 1.0
C      1  0.5271270000000  0.3998240000000  0.4391420000000 1.0
C      1  0.4738790000000  0.4064100000000  0.4419210000000 1.0
C      1  0.4378100000000  0.4029830000000  0.4847600000000 1.0
C      1  0.4493660000000  0.4047940000000  0.5360780000000 1.0
C      1  0.4050060000000  0.4819620000000  0.4330890000000 1.0
C      1  0.3888940000000  0.4831230000000  0.5362450000000 1.0
C      1  0.4627280000000  0.4825370000000  0.6070810000000 1.0
C      1  0.5590380000000  0.4832780000000  0.5938640000000 1.0
C      1  0.6175620000000  0.4896910000000  0.5135510000000 1.0
C      1  0.5852870000000  0.4811810000000  0.4217620000000 1.0
C      1  0.4928040000000  0.4836820000000  0.3817300000000 1.0
C      1  0.5190530000000  0.5152240000000  0.4038800000000 1.0
C      1  0.4388150000000  0.5193000000000  0.4320200000000 1.0
C      1  0.4088630000000  0.5145400000000  0.5016770000000 1.0
C      1  0.4467540000000  0.5248940000000  0.5729850000000 1.0
C      1  0.5300270000000  0.5230280000000  0.5822270000000 1.0
C      1  0.5788260000000  0.5192490000000  0.5288330000000 1.0
C      1  0.5817040000000  0.5178660000000  0.4559630000000 1.0
C      1  0.4380300000000  0.4365250000000  0.4196370000000 1.0
C      1  0.4189150000000  0.4304240000000  0.4919080000000 1.0
C      1  0.4497060000000  0.4232950000000  0.5638180000000 1.0
C      1  0.5218430000000  0.4386790000000  0.5978270000000 1.0
C      1  0.5792720000000  0.4259410000000  0.5326490000000 1.0
C      1  0.5830080000000  0.4400140000000  0.4513810000000 1.0
C      1  0.5170930000000  0.4271410000000  0.4215230000000 1.0
C      1  0.4978330000000  0.5329740000000  0.5868430000000 1.0
C      1  0.5694500000000  0.5289350000000  0.5600560000000 1.0
C      1  0.6010400000000  0.5256860000000  0.4802140000000 1.0
C      1  0.5458040000000  0.5255580000000  0.4205610000000 1.0
C      1  0.4667840000000  0.5265400000000  0.4140580000000 1.0
C      1  0.4088630000000  0.5254150000000  0.4694380000000 1.0
C      1  0.4214840000000  0.5284670000000  0.5507060000000 1.0
C      1  0.4691820000000  0.4820420000000  0.4876680000000 1.0
C      1  0.4596280000000  0.4769900000000  0.5199100000000 1.0
C      1  0.4804660000000  0.4698470000000  0.5385170000000 1.0
C      1  0.5078640000000  0.4821570000000  0.5294440000000 1.0
C      1  0.5214060000000  0.4654990000000  0.5084210000000 1.0
C      1  0.5222420000000  0.4800150000000  0.4835180000000 1.0
C      1  0.4945840000000  0.4712210000000  0.4674920000000 1.0
C      1  0.5587740000000  0.4366990000000  0.4742380000000 1.0
C      1  0.5071050000000  0.4463580000000  0.4478950000000 1.0
C      1  0.4601250000000  0.4373110000000  0.4454800000000 1.0
C      1  0.4402560000000  0.4538620000000  0.5042200000000 1.0
C      1  0.4737540000000  0.4394550000000  0.5504950000000 1.0
C      1  0.5150440000000  0.4363940000000  0.5645890000000 1.0
C      1  0.5430710000000  0.4483490000000  0.5196130000000 1.0
C      1  0.6038760000000  0.4935820000000  0.4862290000000 1.0
C      1  0.5553960000000  0.4928080000000  0.4227940000000 1.0
C      1  0.4696990000000  0.4958370000000  0.3997220000000 1.0
C      1  0.4083410000000  0.4918760000000  0.4638590000000 1.0
C      1  0.4148310000000  0.4946070000000  0.5533260000000 1.0
C      1  0.4885810000000  0.5072650000000  0.6075050000000 1.0
C      1  0.5681590000000  0.4956040000000  0.5666850000000 1.0
C      1  0.6053130000000  0.5661000000000  0.5661810000000 1.0
C      1  0.6078710000000  0.5571080000000  0.4766750000000 1.0
C      1  0.5441410000000  0.5572650000000  0.4083850000000 1.0
C      1  0.4474360000000  0.5615080000000  0.3814130000000 1.0
C      1  0.3787810000000  0.5693300000000  0.4754850000000 1.0
C      1  0.3969400000000  0.5647600000000  0.5773710000000 1.0
C      1  0.5262510000000  0.5603770000000  0.6203710000000 1.0
C      1  0.3861720000000  0.4903480000000  0.5091990000000 1.0
C      1  0.4332400000000  0.4883110000000  0.5997830000000 1.0
C      1  0.5361880000000  0.4964490000000  0.6025190000000 1.0
C      1  0.6023000000000  0.4954520000000  0.5350920000000 1.0
C      1  0.6005540000000  0.4932830000000  0.4419310000000 1.0
C      1  0.5182150000000  0.4872590000000  0.3913000000000 1.0
C      1  0.4252180000000  0.4922480000000  0.4165360000000 1.0
C      1  0.4990870000000  0.6217350000000  0.5108620000000 1.0
C      1  0.4649150000000  0.5916450000000  0.5538070000000 1.0
END
