TITL C-3289335-9438-557 -0.000784394430630269 125000 -802.167589176297 0 0 150 (C1) n - 1
REM
REM in /nfs/bkarasulu/CARBON/AIRSS/Generating-Clusters/AIREBO/with-SteepDescent/Higher-Symm/SD-CG/HFTN-CG
REM
REM
REM
REM
REM
REM ./C.cell (b20cbc046b6831c77cfcea5457e17084)
REM
REM compiler GCC version 9.2.1 20190827 (Red Hat 9.2.1-1)
REM options -cpp -mtune=generic -march=x86-64 -g -O0 -fpre-include=/usr/include/finclude/math-vector-fortran.h
REM seed 1473737592 282851687 2046588312 1033863975 1750746664 -356791489 -582544991 250386425 -1018877822 1538427740 -1289627160 1636603330 -1966781851 570626285 1263423181 1993458018 1046091890 -767624808 -496182301 1529501409 990180832 1207271834 -932929529 -125659694 2041917757 691653901 -592709066 38061919 -1344259123 -221065438 1436642877 1233936567 1059286225
REM
CELL 1.54180   50.00000   50.00000   50.00000   90.00000   90.00000   90.00000
LATT -1
SFAC C  
C      1  0.5588250000000  0.5231490000000  0.5762080000000 1.0
C      1  0.5511650000000  0.4900740000000  0.4191440000000 1.0
C      1  0.4419860000000  0.5116860000000  0.5788170000000 1.0
C      1  0.4418450000000  0.4861320000000  0.4253970000000 1.0
C      1  0.5593560000000  0.5219720000000  0.4195550000000 1.0
C      1  0.5494430000000  0.4905790000000  0.5760880000000 1.0
C      1  0.4341400000000  0.5181810000000  0.4180820000000 1.0
C      1  0.4289280000000  0.4826600000000  0.5796120000000 1.0
C      1  0.4735080000000  0.4834030000000  0.4192810000000 1.0
C      1  0.4748100000000  0.5182140000000  0.5849280000000 1.0
C      1  0.5236970000000  0.4866580000000  0.4030530000000 1.0
C      1  0.5061130000000  0.5182860000000  0.5990580000000 1.0
C      1  0.4861630000000  0.4861720000000  0.5856260000000 1.0
C      1  0.4833850000000  0.5127380000000  0.4193620000000 1.0
C      1  0.5195110000000  0.4878080000000  0.5921210000000 1.0
C      1  0.5101740000000  0.5133920000000  0.4022450000000 1.0
C      1  0.5539470000000  0.4859920000000  0.5181940000000 1.0
C      1  0.5605890000000  0.5182640000000  0.4782690000000 1.0
C      1  0.4493240000000  0.4860000000000  0.5159520000000 1.0
C      1  0.4481970000000  0.5137080000000  0.4871820000000 1.0
C      1  0.5619120000000  0.4849250000000  0.4851560000000 1.0
C      1  0.5577490000000  0.5164470000000  0.5104620000000 1.0
C      1  0.4440410000000  0.4811210000000  0.4831810000000 1.0
C      1  0.4516650000000  0.5171510000000  0.5191360000000 1.0
C      1  0.5400560000000  0.4262860000000  0.4832680000000 1.0
C      1  0.5472260000000  0.5661160000000  0.5167230000000 1.0
C      1  0.4663810000000  0.4176650000000  0.4830740000000 1.0
C      1  0.4577890000000  0.5682520000000  0.5138840000000 1.0
C      1  0.5311320000000  0.4224160000000  0.5219000000000 1.0
C      1  0.5414430000000  0.5774250000000  0.4789040000000 1.0
C      1  0.4695150000000  0.4190520000000  0.5227420000000 1.0
C      1  0.4724510000000  0.5733020000000  0.4774670000000 1.0
C      1  0.4254520000000  0.4636680000000  0.5137390000000 1.0
C      1  0.4266860000000  0.5365040000000  0.4824470000000 1.0
C      1  0.5707090000000  0.4573870000000  0.5168930000000 1.0
C      1  0.5768990000000  0.5433630000000  0.4705120000000 1.0
C      1  0.4229240000000  0.4557720000000  0.4806160000000 1.0
C      1  0.4327830000000  0.5452160000000  0.5147580000000 1.0
C      1  0.5625910000000  0.4511190000000  0.4840090000000 1.0
C      1  0.5698750000000  0.5474840000000  0.5036780000000 1.0
C      1  0.5877370000000  0.4778640000000  0.5380500000000 1.0
C      1  0.5988240000000  0.5369770000000  0.4479280000000 1.0
C      1  0.4019030000000  0.4678630000000  0.5359390000000 1.0
C      1  0.4060040000000  0.5279240000000  0.4587520000000 1.0
C      1  0.5828660000000  0.4822270000000  0.4585160000000 1.0
C      1  0.5861790000000  0.5359870000000  0.5305400000000 1.0
C      1  0.4024510000000  0.4642510000000  0.4572120000000 1.0
C      1  0.4112520000000  0.5290350000000  0.5355290000000 1.0
C      1  0.5192600000000  0.5468850000000  0.5151650000000 1.0
C      1  0.5194360000000  0.4523060000000  0.4821860000000 1.0
C      1  0.4860570000000  0.5543420000000  0.5127420000000 1.0
C      1  0.4865440000000  0.4447210000000  0.4788630000000 1.0
C      1  0.5278460000000  0.5515380000000  0.4841720000000 1.0
C      1  0.5161370000000  0.4474750000000  0.5129630000000 1.0
C      1  0.4953730000000  0.5497350000000  0.4822160000000 1.0
C      1  0.4840200000000  0.4442230000000  0.5148570000000 1.0
C      1  0.4870200000000  0.5222500000000  0.5539410000000 1.0
C      1  0.4880140000000  0.4809950000000  0.4487980000000 1.0
C      1  0.5159630000000  0.5200000000000  0.5497560000000 1.0
C      1  0.5149040000000  0.4799480000000  0.4537680000000 1.0
C      1  0.4879900000000  0.5247660000000  0.4478500000000 1.0
C      1  0.4831130000000  0.4731550000000  0.5575610000000 1.0
C      1  0.5171890000000  0.5229820000000  0.4522800000000 1.0
C      1  0.5105070000000  0.4697220000000  0.5454380000000 1.0
C      1  0.4335100000000  0.5818020000000  0.5307020000000 1.0
C      1  0.4395140000000  0.4198800000000  0.4748500000000 1.0
C      1  0.5600550000000  0.5752480000000  0.5453300000000 1.0
C      1  0.5625050000000  0.4172430000000  0.4628300000000 1.0
C      1  0.4462920000000  0.5810960000000  0.4622310000000 1.0
C      1  0.4434460000000  0.4222350000000  0.5332960000000 1.0
C      1  0.5622340000000  0.5788600000000  0.4598980000000 1.0
C      1  0.5562740000000  0.4247200000000  0.5345700000000 1.0
C      1  0.4732970000000  0.4751370000000  0.4753190000000 1.0
C      1  0.4794270000000  0.5259030000000  0.5248480000000 1.0
C      1  0.5282190000000  0.4837290000000  0.4807520000000 1.0
C      1  0.5254800000000  0.5139420000000  0.5208760000000 1.0
C      1  0.4753160000000  0.4718940000000  0.5265580000000 1.0
C      1  0.4757570000000  0.5231670000000  0.4776220000000 1.0
C      1  0.5231800000000  0.4799570000000  0.5203900000000 1.0
C      1  0.5266930000000  0.5177040000000  0.4809160000000 1.0
C      1  0.5822490000000  0.5229560000000  0.5535070000000 1.0
C      1  0.5809060000000  0.4919260000000  0.4334030000000 1.0
C      1  0.4169130000000  0.5120030000000  0.5557220000000 1.0
C      1  0.4110550000000  0.4819360000000  0.4394540000000 1.0
C      1  0.5902980000000  0.5199730000000  0.4286050000000 1.0
C      1  0.5783520000000  0.4937730000000  0.5581600000000 1.0
C      1  0.4128170000000  0.5109810000000  0.4371730000000 1.0
C      1  0.4066300000000  0.4836160000000  0.5586670000000 1.0
C      1  0.5147010000000  0.4537990000000  0.4051490000000 1.0
C      1  0.5197080000000  0.5437910000000  0.6016360000000 1.0
C      1  0.4813770000000  0.4517120000000  0.4133350000000 1.0
C      1  0.4704040000000  0.5506310000000  0.5954950000000 1.0
C      1  0.5109090000000  0.4553100000000  0.5867330000000 1.0
C      1  0.5160260000000  0.5468950000000  0.4029220000000 1.0
C      1  0.4771620000000  0.4541180000000  0.5926260000000 1.0
C      1  0.4825420000000  0.5460850000000  0.4127480000000 1.0
C      1  0.5457370000000  0.4413930000000  0.4161250000000 1.0
C      1  0.5498950000000  0.5475990000000  0.5980290000000 1.0
C      1  0.4502110000000  0.4377190000000  0.4206670000000 1.0
C      1  0.4441840000000  0.5426240000000  0.5768300000000 1.0
C      1  0.5452240000000  0.4578430000000  0.5792030000000 1.0
C      1  0.5494260000000  0.5525510000000  0.4096760000000 1.0
C      1  0.4470020000000  0.4601050000000  0.5757580000000 1.0
C      1  0.4508500000000  0.5412290000000  0.4254970000000 1.0
C      1  0.5257110000000  0.5913100000000  0.5577300000000 1.0
C      1  0.5237430000000  0.4119160000000  0.4476640000000 1.0
C      1  0.4785030000000  0.5965610000000  0.5548130000000 1.0
C      1  0.4742170000000  0.4102510000000  0.4447230000000 1.0
C      1  0.5278750000000  0.5922880000000  0.4444750000000 1.0
C      1  0.5249060000000  0.3997270000000  0.5601700000000 1.0
C      1  0.4814320000000  0.6016290000000  0.4495080000000 1.0
C      1  0.4805660000000  0.3984680000000  0.5637010000000 1.0
C      1  0.5355520000000  0.4670310000000  0.4360050000000 1.0
C      1  0.5319520000000  0.5379850000000  0.5642120000000 1.0
C      1  0.4533840000000  0.4603160000000  0.4442890000000 1.0
C      1  0.4701170000000  0.5492760000000  0.5558930000000 1.0
C      1  0.5289220000000  0.4481600000000  0.5523020000000 1.0
C      1  0.5342370000000  0.5400610000000  0.4374200000000 1.0
C      1  0.4678380000000  0.4450670000000  0.5551520000000 1.0
C      1  0.4711210000000  0.5521590000000  0.4505260000000 1.0
C      1  0.4856320000000  0.5712470000000  0.5737140000000 1.0
C      1  0.4811790000000  0.4407440000000  0.4455240000000 1.0
C      1  0.5164230000000  0.5659170000000  0.5758270000000 1.0
C      1  0.5135410000000  0.4411030000000  0.4366770000000 1.0
C      1  0.4865380000000  0.5741300000000  0.4315880000000 1.0
C      1  0.4851650000000  0.4263010000000  0.5745370000000 1.0
C      1  0.5182150000000  0.5688100000000  0.4288500000000 1.0
C      1  0.5175670000000  0.4257840000000  0.5712080000000 1.0
C      1  0.5576720000000  0.4455140000000  0.4502870000000 1.0
C      1  0.5553600000000  0.5618090000000  0.5680120000000 1.0
C      1  0.4325900000000  0.4385740000000  0.4528770000000 1.0
C      1  0.4392520000000  0.5551720000000  0.5467930000000 1.0
C      1  0.5609530000000  0.4508980000000  0.5488810000000 1.0
C      1  0.5641660000000  0.5556880000000  0.4414500000000 1.0
C      1  0.4368630000000  0.4498960000000  0.5426820000000 1.0
C      1  0.4375020000000  0.5521810000000  0.4556590000000 1.0
C      1  0.4904690000000  0.6002510000000  0.5302400000000 1.0
C      1  0.4860770000000  0.3934430000000  0.4712200000000 1.0
C      1  0.5180290000000  0.5987540000000  0.5323210000000 1.0
C      1  0.5155620000000  0.3976240000000  0.4701610000000 1.0
C      1  0.4919180000000  0.6077030000000  0.4755360000000 1.0
C      1  0.4866190000000  0.3946050000000  0.5348670000000 1.0
C      1  0.5211610000000  0.6029530000000  0.4760740000000 1.0
C      1  0.5165940000000  0.3947430000000  0.5308250000000 1.0
C      1  0.5285560000000  0.3986950000000  0.4989500000000 1.0
C      1  0.4747150000000  0.3916990000000  0.5032290000000 1.0
C      1  0.4770080000000  0.5942210000000  0.5029640000000 1.0
C      1  0.5355000000000  0.5962240000000  0.5063250000000 1.0
C      1  0.4987590000000  0.5133550000000  0.4998470000000 1.0
C      1  0.4888600000000  0.4837580000000  0.5004330000000 1.0
END
