TITL C-3289332-8317-202 -0.0480851862470332 125000 -290.708587437613 0 0 52 (C1) n - 1
REM
REM in /nfs/bkarasulu/CARBON/AIRSS/Generating-Clusters/AIREBO/with-SteepDescent/Higher-Symm/SD-CG/HFTN-CG
REM
REM
REM
REM
REM
REM ./C.cell (b20cbc046b6831c77cfcea5457e17084)
REM
REM compiler GCC version 9.2.1 20190827 (Red Hat 9.2.1-1)
REM options -cpp -mtune=generic -march=x86-64 -g -O0 -fpre-include=/usr/include/finclude/math-vector-fortran.h
REM seed 188011214 466089551 -169019938 1176106859 1253100308 647627171 -1365170308 1716068952 -960096339 1533137171 1606017974 -1410509892 -2080943781 1029330074 1591917787 1769763136 51136159 -1997638438 -1509724764 548649097 -397852375 1493370029 -1057547304 -1325346760 1113610421 811532875 63755504 -165726894 1272764368 470372853 290610760 -1371472445 -2032381371
REM
CELL 1.54180   50.00000   50.00000   50.00000   90.00000   90.00000   90.00000
LATT -1
SFAC C  
C      1  0.4650510000000  0.4434730000000  0.4653460000000 1.0
C      1  0.4307860000000  0.5009820000000  0.4868180000000 1.0
C      1  0.4663020000000  0.4689410000000  0.4957200000000 1.0
C      1  0.4703820000000  0.4360410000000  0.4935880000000 1.0
C      1  0.5395910000000  0.4810790000000  0.5495570000000 1.0
C      1  0.5249880000000  0.4554920000000  0.4581740000000 1.0
C      1  0.4854740000000  0.5125970000000  0.5624200000000 1.0
C      1  0.5549290000000  0.4475740000000  0.5214150000000 1.0
C      1  0.5177760000000  0.5344310000000  0.5492080000000 1.0
C      1  0.5374270000000  0.4270740000000  0.5197140000000 1.0
C      1  0.5306900000000  0.5198970000000  0.4210950000000 1.0
C      1  0.5002490000000  0.5623500000000  0.4694530000000 1.0
C      1  0.4995270000000  0.5359450000000  0.5728870000000 1.0
C      1  0.5239720000000  0.5128380000000  0.4661350000000 1.0
C      1  0.5440050000000  0.5371840000000  0.4668620000000 1.0
C      1  0.4763000000000  0.4936100000000  0.5124850000000 1.0
C      1  0.4881560000000  0.4196600000000  0.5061550000000 1.0
C      1  0.4760600000000  0.5414480000000  0.4712990000000 1.0
C      1  0.5149060000000  0.5090770000000  0.5357550000000 1.0
C      1  0.4742860000000  0.5500510000000  0.5301720000000 1.0
C      1  0.5593760000000  0.5138760000000  0.4842500000000 1.0
C      1  0.4597660000000  0.5192680000000  0.5073800000000 1.0
C      1  0.5278170000000  0.5598930000000  0.5067540000000 1.0
C      1  0.5512180000000  0.4636840000000  0.4640660000000 1.0
C      1  0.4537120000000  0.5212400000000  0.4739630000000 1.0
C      1  0.5048090000000  0.4785310000000  0.4594360000000 1.0
C      1  0.5179340000000  0.4310690000000  0.4481150000000 1.0
C      1  0.4184550000000  0.4589050000000  0.5416420000000 1.0
C      1  0.5282330000000  0.5597810000000  0.5376970000000 1.0
C      1  0.4304750000000  0.4799990000000  0.5300360000000 1.0
C      1  0.5146780000000  0.4164740000000  0.5100910000000 1.0
C      1  0.5037890000000  0.4985500000000  0.5119100000000 1.0
C      1  0.4745100000000  0.4750240000000  0.4631500000000 1.0
C      1  0.4340770000000  0.5414560000000  0.5053170000000 1.0
C      1  0.5646240000000  0.4829850000000  0.4780450000000 1.0
C      1  0.4455330000000  0.4979300000000  0.4297430000000 1.0
C      1  0.5305670000000  0.4727900000000  0.5788400000000 1.0
C      1  0.4382080000000  0.4803120000000  0.5029290000000 1.0
C      1  0.4994760000000  0.5547180000000  0.5200000000000 1.0
C      1  0.5956050000000  0.5006840000000  0.5192450000000 1.0
C      1  0.4376400000000  0.5033160000000  0.5441440000000 1.0
C      1  0.5548170000000  0.4747560000000  0.5280830000000 1.0
C      1  0.5191100000000  0.5021990000000  0.4395230000000 1.0
C      1  0.4643490000000  0.5199920000000  0.5410820000000 1.0
C      1  0.4565010000000  0.5606290000000  0.5105800000000 1.0
C      1  0.4714310000000  0.5685120000000  0.4866920000000 1.0
C      1  0.4564930000000  0.4972410000000  0.4534360000000 1.0
C      1  0.5705130000000  0.4934350000000  0.5092870000000 1.0
C      1  0.5076220000000  0.4885170000000  0.5598200000000 1.0
C      1  0.5475050000000  0.5383440000000  0.4343710000000 1.0
C      1  0.5133020000000  0.4968940000000  0.4867760000000 1.0
C      1  0.5269980000000  0.5592480000000  0.4793390000000 1.0
END
