TITL C-3289323-3850-433 -0.000177936906341684 125000 -886.104813061837 0 0 160 (C1) n - 1
REM
REM in /nfs/bkarasulu/CARBON/AIRSS/Generating-Clusters/AIREBO/with-SteepDescent/Higher-Symm/SD-CG/HFTN-CG
REM
REM
REM
REM
REM
REM ./C.cell (b20cbc046b6831c77cfcea5457e17084)
REM
REM compiler GCC version 9.2.1 20190827 (Red Hat 9.2.1-1)
REM options -cpp -mtune=generic -march=x86-64 -g -O0 -fpre-include=/usr/include/finclude/math-vector-fortran.h
REM seed 258541075 1614637206 -1524752663 1339442252 2141393308 -55089118 111886663 -1895274171 -2034049135 -1796297867 -1893742148 1587958108 1956816125 688904063 -643903283 961484048 -1904851231 -463245963 1808404532 1795017726 2135129667 68764668 -806360601 -817061380 -130594769 -134120683 -278132550 1482827132 -1265766320 1404505355 1923316484 -2014947282 664152206
REM
CELL 1.54180   50.00000   50.00000   50.00000   90.00000   90.00000   90.00000
LATT -1
SFAC C  
C      1  0.5437600000000  0.5187650000000  0.4693500000000 1.0
C      1  0.4548400000000  0.4736130000000  0.4718420000000 1.0
C      1  0.5388400000000  0.4742460000000  0.4790950000000 1.0
C      1  0.4568340000000  0.5206160000000  0.4733090000000 1.0
C      1  0.4366550000000  0.5445530000000  0.4489270000000 1.0
C      1  0.5558740000000  0.4683330000000  0.4412480000000 1.0
C      1  0.4452840000000  0.4630230000000  0.4349470000000 1.0
C      1  0.5586300000000  0.5337600000000  0.4355900000000 1.0
C      1  0.4730470000000  0.5915570000000  0.5524820000000 1.0
C      1  0.5250180000000  0.4140320000000  0.5587310000000 1.0
C      1  0.4773490000000  0.4060210000000  0.5585050000000 1.0
C      1  0.5237090000000  0.5868610000000  0.5519340000000 1.0
C      1  0.4158180000000  0.4870730000000  0.5374110000000 1.0
C      1  0.5896180000000  0.5201960000000  0.5426840000000 1.0
C      1  0.4183410000000  0.5167630000000  0.5455610000000 1.0
C      1  0.5879920000000  0.4891260000000  0.5413160000000 1.0
C      1  0.4449970000000  0.5845080000000  0.4907270000000 1.0
C      1  0.5644840000000  0.4178690000000  0.4711900000000 1.0
C      1  0.4412670000000  0.4126790000000  0.4826270000000 1.0
C      1  0.5568340000000  0.5802930000000  0.4704480000000 1.0
C      1  0.4577380000000  0.4420790000000  0.4842340000000 1.0
C      1  0.5509420000000  0.5504650000000  0.4801240000000 1.0
C      1  0.4505530000000  0.5511770000000  0.4868430000000 1.0
C      1  0.5476210000000  0.4432420000000  0.4817520000000 1.0
C      1  0.5143170000000  0.4810960000000  0.4593260000000 1.0
C      1  0.4797900000000  0.5167850000000  0.4485040000000 1.0
C      1  0.5135740000000  0.5146060000000  0.4538050000000 1.0
C      1  0.4821110000000  0.4846520000000  0.4547900000000 1.0
C      1  0.4233000000000  0.5850890000000  0.4688500000000 1.0
C      1  0.5819820000000  0.4260570000000  0.4513560000000 1.0
C      1  0.4289080000000  0.4191300000000  0.4545400000000 1.0
C      1  0.5758720000000  0.5785220000000  0.4511200000000 1.0
C      1  0.4842920000000  0.3953800000000  0.4716210000000 1.0
C      1  0.5210220000000  0.6005930000000  0.4688050000000 1.0
C      1  0.4876610000000  0.6009800000000  0.4671750000000 1.0
C      1  0.5173370000000  0.4000420000000  0.4695270000000 1.0
C      1  0.4786660000000  0.4808330000000  0.5577910000000 1.0
C      1  0.5161520000000  0.5189020000000  0.5515830000000 1.0
C      1  0.4843740000000  0.5198960000000  0.5541180000000 1.0
C      1  0.5076740000000  0.4877880000000  0.5587330000000 1.0
C      1  0.4892470000000  0.4631480000000  0.4095420000000 1.0
C      1  0.5184000000000  0.5297310000000  0.4065270000000 1.0
C      1  0.4887290000000  0.5297410000000  0.4073800000000 1.0
C      1  0.5199450000000  0.4682670000000  0.4061190000000 1.0
C      1  0.5265030000000  0.4139660000000  0.4983630000000 1.0
C      1  0.4763410000000  0.5813990000000  0.4907250000000 1.0
C      1  0.5236090000000  0.5769190000000  0.4921410000000 1.0
C      1  0.4689970000000  0.4045900000000  0.4932920000000 1.0
C      1  0.5580300000000  0.4088610000000  0.4991500000000 1.0
C      1  0.4340390000000  0.5962630000000  0.5173550000000 1.0
C      1  0.5521830000000  0.5938120000000  0.4995310000000 1.0
C      1  0.4192230000000  0.4068280000000  0.5030300000000 1.0
C      1  0.4729910000000  0.5569050000000  0.5335660000000 1.0
C      1  0.5288500000000  0.4465780000000  0.5370570000000 1.0
C      1  0.4693640000000  0.4371100000000  0.5350780000000 1.0
C      1  0.5325380000000  0.5482630000000  0.5462950000000 1.0
C      1  0.4881540000000  0.4528490000000  0.4776380000000 1.0
C      1  0.5173410000000  0.5479000000000  0.4755470000000 1.0
C      1  0.4839090000000  0.5489270000000  0.4806370000000 1.0
C      1  0.5154730000000  0.4390460000000  0.4775840000000 1.0
C      1  0.5111700000000  0.4603670000000  0.5874090000000 1.0
C      1  0.4814080000000  0.5450610000000  0.5848090000000 1.0
C      1  0.5097300000000  0.5442620000000  0.5875750000000 1.0
C      1  0.4829600000000  0.4548900000000  0.5873290000000 1.0
C      1  0.5148290000000  0.5916110000000  0.5216860000000 1.0
C      1  0.4825160000000  0.4076080000000  0.5244350000000 1.0
C      1  0.5149370000000  0.4176930000000  0.5263040000000 1.0
C      1  0.4844500000000  0.5862940000000  0.5208400000000 1.0
C      1  0.4357920000000  0.5479770000000  0.5128090000000 1.0
C      1  0.5585550000000  0.4525970000000  0.5072670000000 1.0
C      1  0.4432960000000  0.4519170000000  0.5088160000000 1.0
C      1  0.5663100000000  0.5481610000000  0.5045370000000 1.0
C      1  0.4866210000000  0.4130530000000  0.4479560000000 1.0
C      1  0.5168290000000  0.5895890000000  0.4381600000000 1.0
C      1  0.4847070000000  0.5797350000000  0.4432740000000 1.0
C      1  0.5179430000000  0.4204300000000  0.4423010000000 1.0
C      1  0.4645170000000  0.4834780000000  0.5875030000000 1.0
C      1  0.5277660000000  0.5210500000000  0.5918920000000 1.0
C      1  0.4651950000000  0.5163810000000  0.5788750000000 1.0
C      1  0.5196410000000  0.4929750000000  0.5892380000000 1.0
C      1  0.4704420000000  0.5494800000000  0.4493880000000 1.0
C      1  0.5276440000000  0.4516190000000  0.4484210000000 1.0
C      1  0.4758200000000  0.4525220000000  0.4458640000000 1.0
C      1  0.5268160000000  0.5431230000000  0.4432260000000 1.0
C      1  0.4030350000000  0.5560520000000  0.5170610000000 1.0
C      1  0.5921610000000  0.4474330000000  0.5069390000000 1.0
C      1  0.3997040000000  0.4497520000000  0.5034550000000 1.0
C      1  0.5962830000000  0.5619360000000  0.5066660000000 1.0
C      1  0.5219700000000  0.5187580000000  0.4924630000000 1.0
C      1  0.4874220000000  0.4826460000000  0.4941130000000 1.0
C      1  0.5192420000000  0.4894200000000  0.4981050000000 1.0
C      1  0.4820730000000  0.5164410000000  0.4916900000000 1.0
C      1  0.4214300000000  0.4454870000000  0.4517960000000 1.0
C      1  0.5836010000000  0.5517640000000  0.4500760000000 1.0
C      1  0.4162280000000  0.5596130000000  0.4630920000000 1.0
C      1  0.5840110000000  0.4534530000000  0.4518330000000 1.0
C      1  0.6143700000000  0.5120260000000  0.4796980000000 1.0
C      1  0.3813360000000  0.4993350000000  0.4791550000000 1.0
C      1  0.6210780000000  0.4867230000000  0.4749380000000 1.0
C      1  0.3788690000000  0.5245540000000  0.4796140000000 1.0
C      1  0.4330040000000  0.4657290000000  0.5539480000000 1.0
C      1  0.5675120000000  0.5345120000000  0.5618370000000 1.0
C      1  0.4365570000000  0.5297930000000  0.5691650000000 1.0
C      1  0.5776250000000  0.4614490000000  0.5567840000000 1.0
C      1  0.5612200000000  0.4800340000000  0.5242580000000 1.0
C      1  0.4375290000000  0.5174260000000  0.5202710000000 1.0
C      1  0.5677580000000  0.5209940000000  0.5190640000000 1.0
C      1  0.4305040000000  0.4797970000000  0.5087100000000 1.0
C      1  0.4217100000000  0.5171660000000  0.4919180000000 1.0
C      1  0.5801100000000  0.4840310000000  0.4968990000000 1.0
C      1  0.4114270000000  0.4862600000000  0.4821670000000 1.0
C      1  0.5818960000000  0.5149840000000  0.4887310000000 1.0
C      1  0.5119880000000  0.5601000000000  0.4218740000000 1.0
C      1  0.4863300000000  0.4324820000000  0.4214290000000 1.0
C      1  0.5191540000000  0.4373130000000  0.4127750000000 1.0
C      1  0.4783480000000  0.5579720000000  0.4174180000000 1.0
C      1  0.5727760000000  0.5137380000000  0.4559120000000 1.0
C      1  0.4296350000000  0.4845300000000  0.4534930000000 1.0
C      1  0.5658240000000  0.4854800000000  0.4671150000000 1.0
C      1  0.4292390000000  0.5141680000000  0.4597380000000 1.0
C      1  0.4414730000000  0.5534960000000  0.5458790000000 1.0
C      1  0.5623140000000  0.4428950000000  0.5389960000000 1.0
C      1  0.4362740000000  0.4383620000000  0.5371840000000 1.0
C      1  0.5619170000000  0.5567910000000  0.5371320000000 1.0
C      1  0.4035230000000  0.5436140000000  0.4864900000000 1.0
C      1  0.5980340000000  0.4635550000000  0.4773840000000 1.0
C      1  0.4058210000000  0.4546750000000  0.4739060000000 1.0
C      1  0.5957970000000  0.5438430000000  0.4778570000000 1.0
C      1  0.5343920000000  0.4860590000000  0.5384050000000 1.0
C      1  0.4668770000000  0.5115030000000  0.5283390000000 1.0
C      1  0.5407030000000  0.5145090000000  0.5272780000000 1.0
C      1  0.4551470000000  0.4811370000000  0.5332390000000 1.0
C      1  0.4983710000000  0.3789730000000  0.5152170000000 1.0
C      1  0.5260260000000  0.6155300000000  0.5002580000000 1.0
C      1  0.4948440000000  0.6173020000000  0.4936310000000 1.0
C      1  0.5118840000000  0.3770440000000  0.4939690000000 1.0
C      1  0.5107270000000  0.4692670000000  0.5234900000000 1.0
C      1  0.4879320000000  0.5349270000000  0.5177480000000 1.0
C      1  0.5183140000000  0.5380760000000  0.5172700000000 1.0
C      1  0.4802060000000  0.4621370000000  0.5203070000000 1.0
C      1  0.5390860000000  0.5142440000000  0.4170960000000 1.0
C      1  0.4676630000000  0.4795130000000  0.4153520000000 1.0
C      1  0.5398050000000  0.4853270000000  0.4180440000000 1.0
C      1  0.4733510000000  0.5068910000000  0.4174610000000 1.0
C      1  0.4123020000000  0.4285680000000  0.5176840000000 1.0
C      1  0.5730810000000  0.5836340000000  0.5194670000000 1.0
C      1  0.4212200000000  0.5781130000000  0.5339760000000 1.0
C      1  0.5766100000000  0.4194600000000  0.5185750000000 1.0
C      1  0.4749550000000  0.4350220000000  0.5685620000000 1.0
C      1  0.5217570000000  0.5639540000000  0.5700040000000 1.0
C      1  0.4735400000000  0.5648640000000  0.5666330000000 1.0
C      1  0.5250690000000  0.4424910000000  0.5706130000000 1.0
C      1  0.3928290000000  0.4721280000000  0.5196860000000 1.0
C      1  0.6093530000000  0.5430680000000  0.5301090000000 1.0
C      1  0.3953530000000  0.5337540000000  0.5386720000000 1.0
C      1  0.6064300000000  0.4641670000000  0.5294450000000 1.0
C      1  0.5552340000000  0.5284080000000  0.5849350000000 1.0
C      1  0.4363830000000  0.4705430000000  0.5816920000000 1.0
C      1  0.5852920000000  0.4562700000000  0.5812220000000 1.0
C      1  0.4203190000000  0.5383560000000  0.5935980000000 1.0
END
