TITL C-3289325-7307-589 0.00162091966262341 125000 -492.77790492085 0 0 87 (C1) n - 1
REM
REM in /nfs/bkarasulu/CARBON/AIRSS/Generating-Clusters/AIREBO/with-SteepDescent/Higher-Symm/SD-CG/HFTN-CG
REM
REM
REM
REM
REM
REM ./C.cell (b20cbc046b6831c77cfcea5457e17084)
REM
REM compiler GCC version 9.2.1 20190827 (Red Hat 9.2.1-1)
REM options -cpp -mtune=generic -march=x86-64 -g -O0 -fpre-include=/usr/include/finclude/math-vector-fortran.h
REM seed 241805137 -2023323379 -1102073168 -1148175806 -1188832045 -572275349 855091915 911838151 -20010524 1993004867 -926437620 -946581908 -277246660 295536329 -1044383563 51310799 945581391 -769849350 -775252471 -2106292547 -1383059555 -1713045264 -75533071 1393378403 -592044796 -267005536 676622608 -2121113207 588555690 2094312388 -1299998251 210567655 -2059878091
REM
CELL 1.54180   50.00000   50.00000   50.00000   90.00000   90.00000   90.00000
LATT -1
SFAC C  
C      1  0.4388550000000  0.5047540000000  0.4641660000000 1.0
C      1  0.4428190000000  0.4639750000000  0.5147600000000 1.0
C      1  0.4262340000000  0.5379750000000  0.5185190000000 1.0
C      1  0.5571400000000  0.5065390000000  0.4628120000000 1.0
C      1  0.5523490000000  0.4669840000000  0.5218470000000 1.0
C      1  0.5582340000000  0.5329990000000  0.5275240000000 1.0
C      1  0.5238900000000  0.4857330000000  0.5195070000000 1.0
C      1  0.5216850000000  0.5229140000000  0.4980690000000 1.0
C      1  0.5179070000000  0.4845780000000  0.4742620000000 1.0
C      1  0.4831480000000  0.4832490000000  0.5271550000000 1.0
C      1  0.4825160000000  0.5300730000000  0.5014260000000 1.0
C      1  0.4780890000000  0.4824850000000  0.4733880000000 1.0
C      1  0.5151290000000  0.5769930000000  0.4735620000000 1.0
C      1  0.5074420000000  0.4466630000000  0.4472720000000 1.0
C      1  0.5218350000000  0.4900990000000  0.5762880000000 1.0
C      1  0.4863230000000  0.5708590000000  0.4806890000000 1.0
C      1  0.4802010000000  0.4404510000000  0.4488640000000 1.0
C      1  0.4938550000000  0.4824960000000  0.5745640000000 1.0
C      1  0.4624030000000  0.4948520000000  0.5453220000000 1.0
C      1  0.4622390000000  0.5250180000000  0.4751190000000 1.0
C      1  0.4633840000000  0.4602490000000  0.4903440000000 1.0
C      1  0.5374370000000  0.5112230000000  0.5374870000000 1.0
C      1  0.5398620000000  0.5330390000000  0.4754810000000 1.0
C      1  0.5367200000000  0.4621630000000  0.4696040000000 1.0
C      1  0.5797960000000  0.4930510000000  0.4837650000000 1.0
C      1  0.5796820000000  0.4846430000000  0.5163490000000 1.0
C      1  0.5854310000000  0.5247070000000  0.5103000000000 1.0
C      1  0.4164420000000  0.4859330000000  0.4774520000000 1.0
C      1  0.4259480000000  0.4908040000000  0.5218360000000 1.0
C      1  0.4100380000000  0.5343150000000  0.4950570000000 1.0
C      1  0.5601110000000  0.4385790000000  0.4727390000000 1.0
C      1  0.5699100000000  0.4941980000000  0.5664660000000 1.0
C      1  0.5646100000000  0.5538510000000  0.4649450000000 1.0
C      1  0.4346400000000  0.4432610000000  0.4688560000000 1.0
C      1  0.4395110000000  0.5095300000000  0.5654460000000 1.0
C      1  0.4389370000000  0.5556830000000  0.4647420000000 1.0
C      1  0.4871140000000  0.4597290000000  0.5502180000000 1.0
C      1  0.4850340000000  0.5594250000000  0.5112780000000 1.0
C      1  0.4848300000000  0.4922700000000  0.4421000000000 1.0
C      1  0.5164190000000  0.4567200000000  0.5356110000000 1.0
C      1  0.5134280000000  0.5486560000000  0.5187080000000 1.0
C      1  0.5148960000000  0.4792050000000  0.4408200000000 1.0
C      1  0.4402760000000  0.4756100000000  0.5632130000000 1.0
C      1  0.4532380000000  0.5672660000000  0.4884750000000 1.0
C      1  0.4532750000000  0.4544020000000  0.4488500000000 1.0
C      1  0.5479170000000  0.4776150000000  0.5716090000000 1.0
C      1  0.5424930000000  0.5640960000000  0.4890840000000 1.0
C      1  0.5613770000000  0.4594710000000  0.4459400000000 1.0
C      1  0.4517250000000  0.4845500000000  0.4434170000000 1.0
C      1  0.4542200000000  0.4559310000000  0.5424280000000 1.0
C      1  0.4452110000000  0.5595120000000  0.5148850000000 1.0
C      1  0.5477060000000  0.4881570000000  0.4415510000000 1.0
C      1  0.5461360000000  0.4556580000000  0.5521030000000 1.0
C      1  0.5458550000000  0.5596060000000  0.5194340000000 1.0
C      1  0.4683090000000  0.4323240000000  0.4784300000000 1.0
C      1  0.4729500000000  0.5093800000000  0.5736200000000 1.0
C      1  0.4717740000000  0.5511290000000  0.4572120000000 1.0
C      1  0.5265190000000  0.4307540000000  0.4701290000000 1.0
C      1  0.5259100000000  0.5149570000000  0.5628700000000 1.0
C      1  0.5305000000000  0.5559400000000  0.4521120000000 1.0
C      1  0.4872550000000  0.5428030000000  0.4331140000000 1.0
C      1  0.4850580000000  0.4152400000000  0.4952240000000 1.0
C      1  0.4848920000000  0.5368870000000  0.5726170000000 1.0
C      1  0.5144640000000  0.5467220000000  0.4296160000000 1.0
C      1  0.5123520000000  0.4205770000000  0.4945360000000 1.0
C      1  0.5121280000000  0.5387670000000  0.5673980000000 1.0
C      1  0.4754890000000  0.4106930000000  0.5215210000000 1.0
C      1  0.4696980000000  0.5580000000000  0.5618780000000 1.0
C      1  0.4783330000000  0.5188010000000  0.4231300000000 1.0
C      1  0.5225630000000  0.4276650000000  0.5188860000000 1.0
C      1  0.5195960000000  0.5585360000000  0.5491380000000 1.0
C      1  0.5262250000000  0.5277380000000  0.4123970000000 1.0
C      1  0.5688580000000  0.4622230000000  0.4931880000000 1.0
C      1  0.5770820000000  0.5069910000000  0.5383730000000 1.0
C      1  0.5790460000000  0.5267900000000  0.4796190000000 1.0
C      1  0.4237800000000  0.4616630000000  0.4876870000000 1.0
C      1  0.4292770000000  0.5148720000000  0.5345870000000 1.0
C      1  0.4235180000000  0.5330320000000  0.4700840000000 1.0
C      1  0.5284110000000  0.5018080000000  0.4179670000000 1.0
C      1  0.5405670000000  0.4255950000000  0.5416410000000 1.0
C      1  0.5405330000000  0.5794890000000  0.5464970000000 1.0
C      1  0.4566340000000  0.5003970000000  0.4152450000000 1.0
C      1  0.4740680000000  0.4287900000000  0.5409770000000 1.0
C      1  0.4653310000000  0.5647850000000  0.5354710000000 1.0
C      1  0.4992120000000  0.5093320000000  0.5197010000000 1.0
C      1  0.4968870000000  0.5095150000000  0.4799440000000 1.0
C      1  0.4985870000000  0.4750060000000  0.4994780000000 1.0
END
