TITL C-3289332-8317-589 0.000803181900225703 125000 -1026.01262232836 0 0 190 (C1) n - 1
REM
REM in /nfs/bkarasulu/CARBON/AIRSS/Generating-Clusters/AIREBO/with-SteepDescent/Higher-Symm/SD-CG/HFTN-CG
REM
REM
REM
REM
REM
REM ./C.cell (b20cbc046b6831c77cfcea5457e17084)
REM
REM compiler GCC version 9.2.1 20190827 (Red Hat 9.2.1-1)
REM options -cpp -mtune=generic -march=x86-64 -g -O0 -fpre-include=/usr/include/finclude/math-vector-fortran.h
REM seed -615598332 -2127435905 -1250724223 695356444 -72485268 -809316146 -741049522 490265101 1936172663 971575236 -1741689376 -1956423944 14292319 -827530873 -395624050 1136211071 1837989474 494757010 -423948643 998046361 -675631644 1115357333 -1359001584 1025382304 -1750610546 -874770848 1946535219 -1222919098 1481439534 747007387 -783179375 -1032439428 -1231965171
REM
CELL 1.54180   50.00000   50.00000   50.00000   90.00000   90.00000   90.00000
LATT -1
SFAC C  
C      1  0.4362100000000  0.4108310000000  0.4989420000000 1.0
C      1  0.6063410000000  0.4876760000000  0.5094640000000 1.0
C      1  0.4556880000000  0.6029820000000  0.5077080000000 1.0
C      1  0.5727240000000  0.5334200000000  0.4556460000000 1.0
C      1  0.4232950000000  0.5539940000000  0.4425500000000 1.0
C      1  0.4964540000000  0.4140850000000  0.4471480000000 1.0
C      1  0.4401830000000  0.5723440000000  0.5498700000000 1.0
C      1  0.4695320000000  0.4212940000000  0.5401840000000 1.0
C      1  0.5990360000000  0.5087360000000  0.5406540000000 1.0
C      1  0.5628590000000  0.5860110000000  0.5013930000000 1.0
C      1  0.4031860000000  0.5153370000000  0.4919510000000 1.0
C      1  0.5376340000000  0.4052090000000  0.4949330000000 1.0
C      1  0.5244040000000  0.3914710000000  0.4709620000000 1.0
C      1  0.5846240000000  0.5754750000000  0.4774360000000 1.0
C      1  0.3923070000000  0.5279890000000  0.4683340000000 1.0
C      1  0.4991820000000  0.5291730000000  0.4120350000000 1.0
C      1  0.4727970000000  0.4854330000000  0.4131620000000 1.0
C      1  0.5195800000000  0.4830550000000  0.4195020000000 1.0
C      1  0.5858700000000  0.5313690000000  0.5536290000000 1.0
C      1  0.4285700000000  0.5546890000000  0.5698110000000 1.0
C      1  0.4904950000000  0.4222690000000  0.5588600000000 1.0
C      1  0.5339560000000  0.5132740000000  0.3776010000000 1.0
C      1  0.4779320000000  0.5481040000000  0.3928660000000 1.0
C      1  0.4775300000000  0.4506060000000  0.3965910000000 1.0
C      1  0.3991980000000  0.5105020000000  0.4474720000000 1.0
C      1  0.5387250000000  0.3984310000000  0.4479420000000 1.0
C      1  0.5660240000000  0.5822470000000  0.4551200000000 1.0
C      1  0.4865440000000  0.4833240000000  0.6071360000000 1.0
C      1  0.5349580000000  0.5212410000000  0.6090090000000 1.0
C      1  0.4832520000000  0.5106550000000  0.5967390000000 1.0
C      1  0.3808060000000  0.5022710000000  0.5118960000000 1.0
C      1  0.5619920000000  0.3901580000000  0.5132830000000 1.0
C      1  0.5558330000000  0.6050780000000  0.5287290000000 1.0
C      1  0.5112330000000  0.4417620000000  0.5310320000000 1.0
C      1  0.5384760000000  0.5357120000000  0.5292700000000 1.0
C      1  0.4449090000000  0.5191470000000  0.5354800000000 1.0
C      1  0.5802990000000  0.5074750000000  0.4429470000000 1.0
C      1  0.4473210000000  0.5745190000000  0.4319530000000 1.0
C      1  0.4674040000000  0.4209470000000  0.4366730000000 1.0
C      1  0.5133030000000  0.4704030000000  0.4548560000000 1.0
C      1  0.5165480000000  0.5286340000000  0.4534480000000 1.0
C      1  0.4653460000000  0.5022580000000  0.4541180000000 1.0
C      1  0.5085630000000  0.5195080000000  0.5758890000000 1.0
C      1  0.4803940000000  0.4797590000000  0.5677880000000 1.0
C      1  0.5327300000000  0.4976490000000  0.5757390000000 1.0
C      1  0.5569940000000  0.4625880000000  0.4864860000000 1.0
C      1  0.4962430000000  0.5641600000000  0.4852540000000 1.0
C      1  0.4488000000000  0.4671150000000  0.4932770000000 1.0
C      1  0.4795310000000  0.5347260000000  0.4927640000000 1.0
C      1  0.4813600000000  0.4763100000000  0.4950360000000 1.0
C      1  0.5277110000000  0.5000600000000  0.4940330000000 1.0
C      1  0.5208780000000  0.4373410000000  0.4524980000000 1.0
C      1  0.5384800000000  0.5536440000000  0.4592760000000 1.0
C      1  0.4368360000000  0.5160380000000  0.4597910000000 1.0
C      1  0.4886340000000  0.5962740000000  0.4546550000000 1.0
C      1  0.4334840000000  0.4375640000000  0.4538680000000 1.0
C      1  0.5877830000000  0.4645590000000  0.4571350000000 1.0
C      1  0.5983990000000  0.4548490000000  0.5137410000000 1.0
C      1  0.4868840000000  0.6070810000000  0.5174820000000 1.0
C      1  0.4149120000000  0.4355770000000  0.5085990000000 1.0
C      1  0.5466760000000  0.5399830000000  0.5850290000000 1.0
C      1  0.4531800000000  0.5167330000000  0.5859490000000 1.0
C      1  0.5071570000000  0.4613540000000  0.5928680000000 1.0
C      1  0.4248940000000  0.4995020000000  0.4104850000000 1.0
C      1  0.5289310000000  0.4314340000000  0.4137900000000 1.0
C      1  0.5423660000000  0.5584120000000  0.4109970000000 1.0
C      1  0.5297760000000  0.5324700000000  0.4039860000000 1.0
C      1  0.4530170000000  0.5048420000000  0.4161970000000 1.0
C      1  0.5093990000000  0.4526120000000  0.4082760000000 1.0
C      1  0.5161230000000  0.4090310000000  0.5581350000000 1.0
C      1  0.5697410000000  0.5578570000000  0.5676510000000 1.0
C      1  0.4221120000000  0.5243000000000  0.5743890000000 1.0
C      1  0.4590440000000  0.4501990000000  0.4258280000000 1.0
C      1  0.5546250000000  0.4929540000000  0.4361870000000 1.0
C      1  0.4759850000000  0.5589510000000  0.4250380000000 1.0
C      1  0.4418410000000  0.5882560000000  0.4881870000000 1.0
C      1  0.4600810000000  0.3951710000000  0.4843920000000 1.0
C      1  0.6033250000000  0.5102070000000  0.4843380000000 1.0
C      1  0.4003350000000  0.5482310000000  0.5171210000000 1.0
C      1  0.5088900000000  0.3899700000000  0.5214990000000 1.0
C      1  0.5877080000000  0.5616440000000  0.5209440000000 1.0
C      1  0.5932830000000  0.4261380000000  0.4967150000000 1.0
C      1  0.5106820000000  0.6218390000000  0.4981950000000 1.0
C      1  0.3985610000000  0.4493030000000  0.4854430000000 1.0
C      1  0.4888360000000  0.3949850000000  0.5025480000000 1.0
C      1  0.5936390000000  0.5369600000000  0.5030130000000 1.0
C      1  0.4178280000000  0.5644180000000  0.4930790000000 1.0
C      1  0.5393360000000  0.5027110000000  0.5223210000000 1.0
C      1  0.4747220000000  0.5316760000000  0.5261550000000 1.0
C      1  0.4927990000000  0.4670480000000  0.5226970000000 1.0
C      1  0.4255080000000  0.4698250000000  0.5701760000000 1.0
C      1  0.5632670000000  0.4565260000000  0.5796040000000 1.0
C      1  0.5130980000000  0.5802250000000  0.5749200000000 1.0
C      1  0.5955870000000  0.4916670000000  0.4609190000000 1.0
C      1  0.4590520000000  0.5910540000000  0.4594740000000 1.0
C      1  0.4446830000000  0.4055920000000  0.4567730000000 1.0
C      1  0.4561660000000  0.4737880000000  0.5369450000000 1.0
C      1  0.5442770000000  0.4631440000000  0.5334870000000 1.0
C      1  0.5046960000000  0.5534620000000  0.5410100000000 1.0
C      1  0.5970930000000  0.5441430000000  0.4728040000000 1.0
C      1  0.4028080000000  0.5550710000000  0.4660150000000 1.0
C      1  0.4917400000000  0.3920910000000  0.4698160000000 1.0
C      1  0.4606420000000  0.4525890000000  0.5631840000000 1.0
C      1  0.5657430000000  0.5040450000000  0.5807250000000 1.0
C      1  0.4811970000000  0.5568730000000  0.5653550000000 1.0
C      1  0.4500600000000  0.5591070000000  0.4621430000000 1.0
C      1  0.4639440000000  0.4315700000000  0.4684760000000 1.0
C      1  0.5514630000000  0.5168130000000  0.4763630000000 1.0
C      1  0.5107670000000  0.5941620000000  0.4784290000000 1.0
C      1  0.4245960000000  0.4664990000000  0.4693960000000 1.0
C      1  0.5762300000000  0.4387590000000  0.4739960000000 1.0
C      1  0.5602250000000  0.4178500000000  0.4528800000000 1.0
C      1  0.5387380000000  0.5936010000000  0.4589540000000 1.0
C      1  0.4043640000000  0.4827440000000  0.4473960000000 1.0
C      1  0.4222640000000  0.5250810000000  0.4314860000000 1.0
C      1  0.5202760000000  0.4071160000000  0.4264320000000 1.0
C      1  0.5629080000000  0.5567520000000  0.4359390000000 1.0
C      1  0.4513400000000  0.4845440000000  0.5848320000000 1.0
C      1  0.5364720000000  0.4702940000000  0.5953960000000 1.0
C      1  0.5171890000000  0.5510950000000  0.5851670000000 1.0
C      1  0.5370600000000  0.5625180000000  0.5485220000000 1.0
C      1  0.4147550000000  0.5111320000000  0.5468300000000 1.0
C      1  0.5393270000000  0.4311870000000  0.5468400000000 1.0
C      1  0.3937320000000  0.5240860000000  0.5295150000000 1.0
C      1  0.5385620000000  0.3997070000000  0.5339960000000 1.0
C      1  0.5674020000000  0.5749440000000  0.5394270000000 1.0
C      1  0.4978460000000  0.5203520000000  0.5446560000000 1.0
C      1  0.4972740000000  0.4882890000000  0.5432720000000 1.0
C      1  0.5281950000000  0.4870400000000  0.5466910000000 1.0
C      1  0.5137600000000  0.5470630000000  0.5088650000000 1.0
C      1  0.4505840000000  0.4959290000000  0.5112800000000 1.0
C      1  0.5306860000000  0.4510810000000  0.5047330000000 1.0
C      1  0.5122530000000  0.4745500000000  0.4885890000000 1.0
C      1  0.5113480000000  0.5248400000000  0.4859520000000 1.0
C      1  0.4715550000000  0.5048410000000  0.4860380000000 1.0
C      1  0.4096130000000  0.4656740000000  0.5237520000000 1.0
C      1  0.5756970000000  0.4362750000000  0.5310000000000 1.0
C      1  0.5171120000000  0.5956510000000  0.5276210000000 1.0
C      1  0.4140560000000  0.4749550000000  0.4215680000000 1.0
C      1  0.5496240000000  0.4418240000000  0.4348740000000 1.0
C      1  0.5272030000000  0.5746100000000  0.4347660000000 1.0
C      1  0.4819140000000  0.4810510000000  0.3817980000000 1.0
C      1  0.5107030000000  0.4969690000000  0.3903960000000 1.0
C      1  0.4816030000000  0.5145790000000  0.3874630000000 1.0
C      1  0.5597920000000  0.5338580000000  0.5033890000000 1.0
C      1  0.4479670000000  0.5487340000000  0.4917130000000 1.0
C      1  0.4846850000000  0.4261050000000  0.4894880000000 1.0
C      1  0.5449540000000  0.4793020000000  0.4635200000000 1.0
C      1  0.4906610000000  0.5505680000000  0.4545550000000 1.0
C      1  0.4524040000000  0.4724370000000  0.4507030000000 1.0
C      1  0.4339410000000  0.5182060000000  0.4916940000000 1.0
C      1  0.5159350000000  0.4286560000000  0.4832970000000 1.0
C      1  0.5500400000000  0.5587900000000  0.4867160000000 1.0
C      1  0.4301760000000  0.4395620000000  0.5684720000000 1.0
C      1  0.5774130000000  0.4782570000000  0.5701400000000 1.0
C      1  0.4841370000000  0.5901880000000  0.5715030000000 1.0
C      1  0.4569100000000  0.5378910000000  0.5612240000000 1.0
C      1  0.5003180000000  0.4529030000000  0.5615970000000 1.0
C      1  0.5545750000000  0.5247060000000  0.5563830000000 1.0
C      1  0.4756390000000  0.4388810000000  0.5144360000000 1.0
C      1  0.5727530000000  0.5068900000000  0.5191530000000 1.0
C      1  0.4548590000000  0.5591330000000  0.5233420000000 1.0
C      1  0.5864070000000  0.4014920000000  0.5067520000000 1.0
C      1  0.5363190000000  0.6263070000000  0.5106340000000 1.0
C      1  0.3803610000000  0.4736450000000  0.4981040000000 1.0
C      1  0.5296480000000  0.5873320000000  0.5046260000000 1.0
C      1  0.4124920000000  0.4845140000000  0.4955890000000 1.0
C      1  0.5559480000000  0.4291240000000  0.5107150000000 1.0
C      1  0.4886260000000  0.4648940000000  0.4322270000000 1.0
C      1  0.5317270000000  0.5123340000000  0.4277420000000 1.0
C      1  0.4706720000000  0.5259230000000  0.4302850000000 1.0
C      1  0.5668790000000  0.4347950000000  0.5620800000000 1.0
C      1  0.5359530000000  0.5946650000000  0.5542830000000 1.0
C      1  0.4099160000000  0.4806280000000  0.5491570000000 1.0
C      1  0.4262570000000  0.4494590000000  0.4226840000000 1.0
C      1  0.5681360000000  0.4642020000000  0.4348000000000 1.0
C      1  0.4984520000000  0.5823980000000  0.4316460000000 1.0
C      1  0.5698760000000  0.4730820000000  0.5169480000000 1.0
C      1  0.4835200000000  0.5745860000000  0.5248380000000 1.0
C      1  0.4444490000000  0.4466740000000  0.5200990000000 1.0
C      1  0.5452820000000  0.4961300000000  0.6138950000000 1.0
C      1  0.4961580000000  0.5381790000000  0.6085980000000 1.0
C      1  0.4591830000000  0.4682940000000  0.6136530000000 1.0
C      1  0.4403150000000  0.4236340000000  0.5450290000000 1.0
C      1  0.5876040000000  0.4807490000000  0.5450730000000 1.0
C      1  0.4651270000000  0.5888570000000  0.5479200000000 1.0
C      1  0.5749110000000  0.4989410000000  0.6131010000000 1.0
C      1  0.4809380000000  0.5613900000000  0.5980230000000 1.0
C      1  0.4752850000000  0.4490960000000  0.5924330000000 1.0
C      1  0.4984410000000  0.5003070000000  0.4511590000000 1.0
END
