TITL C-3289320-4661-86 -2.24896237459167 125000 -727.170952550262 0 0 137 (C1) n - 1
REM
REM in /nfs/bkarasulu/CARBON/AIRSS/Generating-Clusters/AIREBO/with-SteepDescent/Higher-Symm/SD-CG/HFTN-CG
REM
REM
REM
REM
REM
REM ./C.cell (b20cbc046b6831c77cfcea5457e17084)
REM
REM compiler GCC version 9.2.1 20190827 (Red Hat 9.2.1-1)
REM options -cpp -mtune=generic -march=x86-64 -g -O0 -fpre-include=/usr/include/finclude/math-vector-fortran.h
REM seed -396008979 -801546019 621819592 1755334874 837124849 -1789319391 -678224814 1747560724 -537740989 -1974110145 1331601496 -1911664581 483689019 -666295418 -1804437721 863197088 1665692080 1020294336 -935823563 -1150573953 862823918 -772148188 534509840 1621398652 -1853040478 178536532 716705815 -1846484741 545072580 1804895479 -867302850 -229464263 -1032469188
REM
CELL 1.54180   50.00000   50.00000   50.00000   90.00000   90.00000   90.00000
LATT -1
SFAC C  
C      1  0.4201780000000  0.4622580000000  0.4898340000000 1.0
C      1  0.4938980000000  0.4691900000000  0.4114310000000 1.0
C      1  0.5710170000000  0.4629470000000  0.4631830000000 1.0
C      1  0.5607650000000  0.4671470000000  0.5554130000000 1.0
C      1  0.4556860000000  0.4620500000000  0.5841120000000 1.0
C      1  0.4860060000000  0.4190650000000  0.5588660000000 1.0
C      1  0.4519630000000  0.4156860000000  0.5027500000000 1.0
C      1  0.4892330000000  0.4234960000000  0.4503210000000 1.0
C      1  0.5425250000000  0.4064360000000  0.4634530000000 1.0
C      1  0.5392870000000  0.4096380000000  0.5236420000000 1.0
C      1  0.4419100000000  0.5375620000000  0.5586690000000 1.0
C      1  0.4291370000000  0.5395550000000  0.4591970000000 1.0
C      1  0.5190450000000  0.5481970000000  0.4140050000000 1.0
C      1  0.5915040000000  0.5317070000000  0.4986650000000 1.0
C      1  0.5352450000000  0.5460330000000  0.5734640000000 1.0
C      1  0.5035090000000  0.4747210000000  0.5579670000000 1.0
C      1  0.4609480000000  0.4621280000000  0.5258490000000 1.0
C      1  0.4654980000000  0.4787020000000  0.4626120000000 1.0
C      1  0.5199240000000  0.4647170000000  0.4632940000000 1.0
C      1  0.5424030000000  0.4621370000000  0.5122630000000 1.0
C      1  0.4219960000000  0.4938910000000  0.4846780000000 1.0
C      1  0.4979260000000  0.5025680000000  0.4075170000000 1.0
C      1  0.5772170000000  0.4922190000000  0.4691230000000 1.0
C      1  0.5581470000000  0.5010910000000  0.5556540000000 1.0
C      1  0.4473640000000  0.4935640000000  0.5818090000000 1.0
C      1  0.4359480000000  0.5675790000000  0.4368500000000 1.0
C      1  0.5438110000000  0.5728310000000  0.4238010000000 1.0
C      1  0.6066360000000  0.5664550000000  0.4952340000000 1.0
C      1  0.5247200000000  0.5610090000000  0.5937190000000 1.0
C      1  0.4199330000000  0.5633500000000  0.5450050000000 1.0
C      1  0.5881170000000  0.5479920000000  0.4695740000000 1.0
C      1  0.5621380000000  0.5570750000000  0.5580810000000 1.0
C      1  0.4450830000000  0.5418390000000  0.5904750000000 1.0
C      1  0.4088320000000  0.5490240000000  0.4819560000000 1.0
C      1  0.4923180000000  0.5577150000000  0.4061900000000 1.0
C      1  0.5222370000000  0.4552470000000  0.5873630000000 1.0
C      1  0.4280370000000  0.4543010000000  0.5470630000000 1.0
C      1  0.4353960000000  0.4603660000000  0.4441770000000 1.0
C      1  0.5408780000000  0.4605370000000  0.4183540000000 1.0
C      1  0.5885290000000  0.4543090000000  0.5090450000000 1.0
C      1  0.5194310000000  0.4885510000000  0.5312800000000 1.0
C      1  0.4755770000000  0.4927420000000  0.5285460000000 1.0
C      1  0.4649050000000  0.4871900000000  0.4955710000000 1.0
C      1  0.5026270000000  0.4945710000000  0.4615930000000 1.0
C      1  0.5315910000000  0.4861790000000  0.4935630000000 1.0
C      1  0.4900100000000  0.5288300000000  0.5689360000000 1.0
C      1  0.4232340000000  0.5310290000000  0.5216730000000 1.0
C      1  0.4609530000000  0.5366690000000  0.4329280000000 1.0
C      1  0.5507750000000  0.5372760000000  0.4406830000000 1.0
C      1  0.5650720000000  0.5302400000000  0.5286160000000 1.0
C      1  0.5109450000000  0.4244690000000  0.5363970000000 1.0
C      1  0.4717250000000  0.4230900000000  0.5290390000000 1.0
C      1  0.4706430000000  0.4227660000000  0.4747600000000 1.0
C      1  0.5204920000000  0.4100310000000  0.4486170000000 1.0
C      1  0.5420850000000  0.4165120000000  0.4949820000000 1.0
C      1  0.4890500000000  0.4622910000000  0.5850060000000 1.0
C      1  0.4295530000000  0.4546370000000  0.5151240000000 1.0
C      1  0.4657820000000  0.4671500000000  0.4304990000000 1.0
C      1  0.5470780000000  0.4596250000000  0.4479160000000 1.0
C      1  0.5656180000000  0.4576200000000  0.5287660000000 1.0
C      1  0.4547530000000  0.4181190000000  0.5681220000000 1.0
C      1  0.4375040000000  0.4222750000000  0.4726910000000 1.0
C      1  0.5088190000000  0.4249450000000  0.4229250000000 1.0
C      1  0.5698840000000  0.4185760000000  0.4784490000000 1.0
C      1  0.5399280000000  0.4245910000000  0.5541830000000 1.0
C      1  0.5887390000000  0.5224060000000  0.5413860000000 1.0
C      1  0.4918670000000  0.5150200000000  0.5921430000000 1.0
C      1  0.3966160000000  0.5167400000000  0.5250880000000 1.0
C      1  0.4470090000000  0.5164880000000  0.4148480000000 1.0
C      1  0.5643190000000  0.5162650000000  0.4211350000000 1.0
C      1  0.5891030000000  0.4929060000000  0.5441170000000 1.0
C      1  0.4782940000000  0.4921110000000  0.5944940000000 1.0
C      1  0.4161480000000  0.4923030000000  0.5157880000000 1.0
C      1  0.4725960000000  0.4991670000000  0.4256940000000 1.0
C      1  0.5559750000000  0.4987060000000  0.4490340000000 1.0
C      1  0.4072590000000  0.5182630000000  0.4719710000000 1.0
C      1  0.4915560000000  0.5308620000000  0.3908060000000 1.0
C      1  0.5971980000000  0.5159700000000  0.4699120000000 1.0
C      1  0.5638470000000  0.5279500000000  0.5721550000000 1.0
C      1  0.4394190000000  0.5171750000000  0.6022580000000 1.0
C      1  0.4758110000000  0.5774590000000  0.5547760000000 1.0
C      1  0.4374060000000  0.5767990000000  0.5094710000000 1.0
C      1  0.4749580000000  0.5795690000000  0.4494410000000 1.0
C      1  0.5478330000000  0.5752800000000  0.4682660000000 1.0
C      1  0.5416470000000  0.5791590000000  0.5174190000000 1.0
C      1  0.4809410000000  0.5859210000000  0.5297030000000 1.0
C      1  0.4635350000000  0.5855960000000  0.5083260000000 1.0
C      1  0.4785890000000  0.5873960000000  0.4792710000000 1.0
C      1  0.5306140000000  0.5738120000000  0.4897110000000 1.0
C      1  0.5102020000000  0.5903610000000  0.5195360000000 1.0
C      1  0.4423630000000  0.4434690000000  0.5685610000000 1.0
C      1  0.4259720000000  0.4468100000000  0.4669730000000 1.0
C      1  0.5146540000000  0.4505690000000  0.4126370000000 1.0
C      1  0.5813240000000  0.4442640000000  0.4818920000000 1.0
C      1  0.5437470000000  0.4484650000000  0.5692330000000 1.0
C      1  0.4469080000000  0.5067730000000  0.5168080000000 1.0
C      1  0.4767590000000  0.5162590000000  0.4550680000000 1.0
C      1  0.5277190000000  0.5166110000000  0.4551200000000 1.0
C      1  0.5465590000000  0.5039070000000  0.5175970000000 1.0
C      1  0.4992960000000  0.5142580000000  0.5408060000000 1.0
C      1  0.5183400000000  0.5216330000000  0.4228240000000 1.0
C      1  0.5758440000000  0.5018150000000  0.5004170000000 1.0
C      1  0.5312680000000  0.5212430000000  0.5501690000000 1.0
C      1  0.4459530000000  0.5079510000000  0.5509320000000 1.0
C      1  0.4468900000000  0.5130750000000  0.4710260000000 1.0
C      1  0.4215360000000  0.5542750000000  0.5061070000000 1.0
C      1  0.4743540000000  0.5609620000000  0.4279610000000 1.0
C      1  0.5636460000000  0.5557890000000  0.4564610000000 1.0
C      1  0.5575550000000  0.5598500000000  0.5292570000000 1.0
C      1  0.4695690000000  0.5509100000000  0.5685500000000 1.0
C      1  0.4969800000000  0.5408640000000  0.5197400000000 1.0
C      1  0.4652080000000  0.5268770000000  0.4963610000000 1.0
C      1  0.4875080000000  0.5414470000000  0.4752250000000 1.0
C      1  0.5188380000000  0.5314880000000  0.4843950000000 1.0
C      1  0.5272100000000  0.5307140000000  0.5175970000000 1.0
C      1  0.4279010000000  0.4831530000000  0.5428890000000 1.0
C      1  0.4390460000000  0.4920070000000  0.4458840000000 1.0
C      1  0.5522280000000  0.4869050000000  0.4192170000000 1.0
C      1  0.5937820000000  0.4830750000000  0.5172310000000 1.0
C      1  0.5200570000000  0.4971170000000  0.5702960000000 1.0
C      1  0.5157160000000  0.4549480000000  0.5276430000000 1.0
C      1  0.4816000000000  0.4508470000000  0.5476050000000 1.0
C      1  0.4647180000000  0.4469260000000  0.4979510000000 1.0
C      1  0.4892370000000  0.4545560000000  0.4594780000000 1.0
C      1  0.5302110000000  0.4452440000000  0.4892190000000 1.0
C      1  0.4971780000000  0.3608600000000  0.4957240000000 1.0
C      1  0.4975580000000  0.3865890000000  0.5016180000000 1.0
C      1  0.4982490000000  0.4811860000000  0.4925560000000 1.0
C      1  0.4958050000000  0.5127940000000  0.5010100000000 1.0
C      1  0.4953180000000  0.4170990000000  0.5070520000000 1.0
C      1  0.4983020000000  0.5656880000000  0.4964940000000 1.0
C      1  0.5089200000000  0.6576240000000  0.4831700000000 1.0
C      1  0.5136060000000  0.6825900000000  0.4767130000000 1.0
C      1  0.5004650000000  0.6065480000000  0.4937470000000 1.0
C      1  0.4991680000000  0.3356220000000  0.4889520000000 1.0
C      1  0.4975300000000  0.4471990000000  0.4913640000000 1.0
C      1  0.5056740000000  0.6315860000000  0.4877290000000 1.0
END
