TITL C-3289327-5623-236 0.00107808728644532 125000 -521.295724466458 0 0 96 (C1) n - 1
REM
REM in /nfs/bkarasulu/CARBON/AIRSS/Generating-Clusters/AIREBO/with-SteepDescent/Higher-Symm/SD-CG/HFTN-CG
REM
REM
REM
REM
REM
REM ./C.cell (b20cbc046b6831c77cfcea5457e17084)
REM
REM compiler GCC version 9.2.1 20190827 (Red Hat 9.2.1-1)
REM options -cpp -mtune=generic -march=x86-64 -g -O0 -fpre-include=/usr/include/finclude/math-vector-fortran.h
REM seed 1116675465 1602043085 -1787877257 24461991 823686464 -463149918 -1227061759 1037844200 89431761 -1476137691 2068184424 -863046013 -148902006 -166099621 -1235243300 -180933020 -1357321506 -1026169702 -1940543781 808183442 1886378738 1102227500 924904578 -1519434085 1696230853 -1633453440 -409261767 857920689 -1314794305 1477419435 1592523720 1183320850 -1774959744
REM
CELL 1.54180   50.00000   50.00000   50.00000   90.00000   90.00000   90.00000
LATT -1
SFAC C  
C      1  0.5140240000000  0.4214080000000  0.5071630000000 1.0
C      1  0.4745070000000  0.4257240000000  0.5039420000000 1.0
C      1  0.5378140000000  0.5862360000000  0.5059130000000 1.0
C      1  0.4763620000000  0.5775970000000  0.4876420000000 1.0
C      1  0.4959860000000  0.4215910000000  0.5320310000000 1.0
C      1  0.4983820000000  0.4201540000000  0.4803700000000 1.0
C      1  0.5098520000000  0.5954860000000  0.5209310000000 1.0
C      1  0.5077300000000  0.5821300000000  0.4897330000000 1.0
C      1  0.5261910000000  0.5629090000000  0.4466810000000 1.0
C      1  0.4712390000000  0.5680430000000  0.5499940000000 1.0
C      1  0.5324390000000  0.4382940000000  0.5525420000000 1.0
C      1  0.4699020000000  0.4286340000000  0.4536030000000 1.0
C      1  0.4490200000000  0.5715960000000  0.5338740000000 1.0
C      1  0.5482790000000  0.5682070000000  0.4594290000000 1.0
C      1  0.5498650000000  0.4401260000000  0.5342190000000 1.0
C      1  0.4518910000000  0.4292720000000  0.4713780000000 1.0
C      1  0.4975900000000  0.5593860000000  0.5326940000000 1.0
C      1  0.5036320000000  0.5555630000000  0.4688230000000 1.0
C      1  0.4971160000000  0.4447940000000  0.4582650000000 1.0
C      1  0.5027970000000  0.4512710000000  0.5471790000000 1.0
C      1  0.5455090000000  0.5618340000000  0.4871390000000 1.0
C      1  0.4710870000000  0.5594700000000  0.5111130000000 1.0
C      1  0.4544520000000  0.4518910000000  0.4955300000000 1.0
C      1  0.5389290000000  0.4388180000000  0.5058870000000 1.0
C      1  0.4824450000000  0.5085640000000  0.5877110000000 1.0
C      1  0.5330350000000  0.5242810000000  0.4209150000000 1.0
C      1  0.4759780000000  0.4887690000000  0.4189570000000 1.0
C      1  0.5263210000000  0.4835020000000  0.5783170000000 1.0
C      1  0.5728470000000  0.5148100000000  0.4903970000000 1.0
C      1  0.4191950000000  0.5087410000000  0.5252320000000 1.0
C      1  0.4156300000000  0.4845920000000  0.4659570000000 1.0
C      1  0.5913860000000  0.4898700000000  0.5344650000000 1.0
C      1  0.5576110000000  0.5291850000000  0.4342660000000 1.0
C      1  0.4552060000000  0.5206310000000  0.5725800000000 1.0
C      1  0.5527190000000  0.4801740000000  0.5691310000000 1.0
C      1  0.4512360000000  0.4777930000000  0.4323000000000 1.0
C      1  0.4359060000000  0.5148530000000  0.5482810000000 1.0
C      1  0.5624690000000  0.5179600000000  0.4581690000000 1.0
C      1  0.5654140000000  0.4853440000000  0.5445650000000 1.0
C      1  0.4235700000000  0.4758810000000  0.4397270000000 1.0
C      1  0.4317980000000  0.4361310000000  0.5348020000000 1.0
C      1  0.5773380000000  0.4545780000000  0.4600270000000 1.0
C      1  0.4430200000000  0.5532150000000  0.4642220000000 1.0
C      1  0.5773610000000  0.5470210000000  0.5376530000000 1.0
C      1  0.5295770000000  0.4393150000000  0.4356910000000 1.0
C      1  0.4658670000000  0.4435080000000  0.5727210000000 1.0
C      1  0.4563120000000  0.5576660000000  0.4261500000000 1.0
C      1  0.5328480000000  0.5587290000000  0.5682160000000 1.0
C      1  0.4989540000000  0.5110780000000  0.5500960000000 1.0
C      1  0.5073260000000  0.5290340000000  0.4370690000000 1.0
C      1  0.5058220000000  0.4866530000000  0.4309390000000 1.0
C      1  0.5039490000000  0.4668160000000  0.5746590000000 1.0
C      1  0.5549150000000  0.5317230000000  0.5085350000000 1.0
C      1  0.4377320000000  0.5181430000000  0.4983150000000 1.0
C      1  0.4276890000000  0.4707240000000  0.4930180000000 1.0
C      1  0.5485690000000  0.4831630000000  0.4963550000000 1.0
C      1  0.4799280000000  0.5167060000000  0.4258900000000 1.0
C      1  0.5147890000000  0.5123600000000  0.5769870000000 1.0
C      1  0.4798930000000  0.4792380000000  0.5829310000000 1.0
C      1  0.5295940000000  0.4977290000000  0.4101290000000 1.0
C      1  0.4115760000000  0.5102360000000  0.4780620000000 1.0
C      1  0.5955870000000  0.5023010000000  0.5101520000000 1.0
C      1  0.5752530000000  0.4844750000000  0.4751980000000 1.0
C      1  0.4195780000000  0.4799200000000  0.5213800000000 1.0
C      1  0.4966300000000  0.5267450000000  0.4832240000000 1.0
C      1  0.5061340000000  0.5304130000000  0.5240890000000 1.0
C      1  0.5009230000000  0.4716470000000  0.5226770000000 1.0
C      1  0.4953330000000  0.4744740000000  0.4717860000000 1.0
C      1  0.4698400000000  0.5308630000000  0.5004480000000 1.0
C      1  0.5248950000000  0.5365910000000  0.4968380000000 1.0
C      1  0.5150320000000  0.4609850000000  0.4962110000000 1.0
C      1  0.4764050000000  0.4764920000000  0.4999610000000 1.0
C      1  0.5522980000000  0.5622790000000  0.5246260000000 1.0
C      1  0.4660140000000  0.5679490000000  0.4634750000000 1.0
C      1  0.5504110000000  0.4534980000000  0.4797360000000 1.0
C      1  0.4562080000000  0.4225000000000  0.5309590000000 1.0
C      1  0.5250030000000  0.5730320000000  0.5413550000000 1.0
C      1  0.4872210000000  0.5562950000000  0.4402570000000 1.0
C      1  0.4735420000000  0.4251420000000  0.5549410000000 1.0
C      1  0.5271420000000  0.4330270000000  0.4657450000000 1.0
C      1  0.5450660000000  0.4958290000000  0.5231080000000 1.0
C      1  0.4521840000000  0.4921010000000  0.4818780000000 1.0
C      1  0.5385990000000  0.4988580000000  0.4692170000000 1.0
C      1  0.4595940000000  0.5077730000000  0.5222100000000 1.0
C      1  0.5155200000000  0.4978170000000  0.5271010000000 1.0
C      1  0.4665750000000  0.4786520000000  0.4563850000000 1.0
C      1  0.4714710000000  0.5005890000000  0.5504260000000 1.0
C      1  0.5074560000000  0.5040330000000  0.4601400000000 1.0
C      1  0.5551830000000  0.4780270000000  0.4485170000000 1.0
C      1  0.4311270000000  0.4640200000000  0.5414130000000 1.0
C      1  0.5533170000000  0.5232810000000  0.5414330000000 1.0
C      1  0.4473870000000  0.5205940000000  0.4639140000000 1.0
C      1  0.4555110000000  0.4721490000000  0.5603120000000 1.0
C      1  0.5331940000000  0.4673750000000  0.4301600000000 1.0
C      1  0.5363050000000  0.5312970000000  0.5658590000000 1.0
C      1  0.4576360000000  0.5298300000000  0.4353580000000 1.0
END
