TITL C-3289332-8317-427 -0.00968201246377158 125000 -1059.34999776749 0 0 183 (C1) n - 1
REM
REM in /nfs/bkarasulu/CARBON/AIRSS/Generating-Clusters/AIREBO/with-SteepDescent/Higher-Symm/SD-CG/HFTN-CG
REM
REM
REM
REM
REM
REM ./C.cell (b20cbc046b6831c77cfcea5457e17084)
REM
REM compiler GCC version 9.2.1 20190827 (Red Hat 9.2.1-1)
REM options -cpp -mtune=generic -march=x86-64 -g -O0 -fpre-include=/usr/include/finclude/math-vector-fortran.h
REM seed 1882117285 1711563564 -1658678242 -1135060111 -1118461029 -2052020073 -826954132 1921993997 -1175123918 -1797196442 -1414821554 -744200917 -655635110 -1734714308 -1518528286 768615601 2087675823 186836720 -893738812 456378744 1832979446 -1927349978 -2143275314 325377536 1425435383 -155287641 710075596 1583886311 1538236431 569619619 -580626797 -1473961098 -211410563
REM
CELL 1.54180   50.00000   50.00000   50.00000   90.00000   90.00000   90.00000
LATT -1
SFAC C  
C      1  0.5522900000000  0.4697040000000  0.3982160000000 1.0
C      1  0.4963910000000  0.5601310000000  0.4001620000000 1.0
C      1  0.4502400000000  0.4680110000000  0.3935320000000 1.0
C      1  0.5502700000000  0.4703770000000  0.5996040000000 1.0
C      1  0.4993640000000  0.5611490000000  0.5950930000000 1.0
C      1  0.4475310000000  0.4743110000000  0.6014590000000 1.0
C      1  0.5482890000000  0.5278060000000  0.3912230000000 1.0
C      1  0.5008830000000  0.4403510000000  0.3979750000000 1.0
C      1  0.4491930000000  0.5289060000000  0.3960540000000 1.0
C      1  0.5494940000000  0.5281930000000  0.6048750000000 1.0
C      1  0.4970140000000  0.4454100000000  0.6069380000000 1.0
C      1  0.4533860000000  0.5345770000000  0.6011400000000 1.0
C      1  0.5247830000000  0.4031860000000  0.4529050000000 1.0
C      1  0.5666930000000  0.5610540000000  0.4510370000000 1.0
C      1  0.4168660000000  0.5164750000000  0.4563930000000 1.0
C      1  0.5247750000000  0.3960010000000  0.5488980000000 1.0
C      1  0.5730410000000  0.5541000000000  0.5579230000000 1.0
C      1  0.4014510000000  0.5313180000000  0.5453550000000 1.0
C      1  0.5312860000000  0.6044370000000  0.4420010000000 1.0
C      1  0.5675180000000  0.4320730000000  0.4386540000000 1.0
C      1  0.4120590000000  0.4667980000000  0.4565650000000 1.0
C      1  0.5289190000000  0.5911430000000  0.5641650000000 1.0
C      1  0.6007730000000  0.3888830000000  0.5296120000000 1.0
C      1  0.4128990000000  0.4834940000000  0.5537790000000 1.0
C      1  0.4537590000000  0.4433820000000  0.4062100000000 1.0
C      1  0.5718680000000  0.4848760000000  0.4106640000000 1.0
C      1  0.4752400000000  0.5708800000000  0.4200200000000 1.0
C      1  0.4522810000000  0.4513240000000  0.5851690000000 1.0
C      1  0.5708880000000  0.4844810000000  0.5879870000000 1.0
C      1  0.4788610000000  0.5690870000000  0.5776510000000 1.0
C      1  0.4507290000000  0.5529170000000  0.4111540000000 1.0
C      1  0.5691850000000  0.5140910000000  0.4042170000000 1.0
C      1  0.4784450000000  0.4277570000000  0.4111480000000 1.0
C      1  0.4550060000000  0.5559530000000  0.5819020000000 1.0
C      1  0.5714410000000  0.5141660000000  0.5944610000000 1.0
C      1  0.4763870000000  0.4379810000000  0.5887930000000 1.0
C      1  0.4474730000000  0.4344850000000  0.4864090000000 1.0
C      1  0.5830360000000  0.4877730000000  0.4830850000000 1.0
C      1  0.4669320000000  0.5943770000000  0.4764220000000 1.0
C      1  0.4436130000000  0.4223640000000  0.5162320000000 1.0
C      1  0.5837040000000  0.4834810000000  0.5158550000000 1.0
C      1  0.4606260000000  0.5959730000000  0.5089640000000 1.0
C      1  0.4374620000000  0.5802890000000  0.4807080000000 1.0
C      1  0.5876190000000  0.5205140000000  0.4797490000000 1.0
C      1  0.4738600000000  0.4172760000000  0.4735990000000 1.0
C      1  0.4368700000000  0.5753830000000  0.5125060000000 1.0
C      1  0.5845750000000  0.5147410000000  0.5124020000000 1.0
C      1  0.4757090000000  0.4168330000000  0.5077650000000 1.0
C      1  0.4779900000000  0.4121970000000  0.4402280000000 1.0
C      1  0.5807660000000  0.5331400000000  0.4525360000000 1.0
C      1  0.4294230000000  0.5661020000000  0.4582990000000 1.0
C      1  0.4750530000000  0.4141550000000  0.5416540000000 1.0
C      1  0.5889420000000  0.5295940000000  0.5405120000000 1.0
C      1  0.4227950000000  0.5731180000000  0.5411270000000 1.0
C      1  0.4737820000000  0.5961660000000  0.4431670000000 1.0
C      1  0.6005140000000  0.4740890000000  0.4604220000000 1.0
C      1  0.4401310000000  0.4292430000000  0.4560480000000 1.0
C      1  0.4768590000000  0.5985220000000  0.5308310000000 1.0
C      1  0.6031350000000  0.4736250000000  0.5381430000000 1.0
C      1  0.4339050000000  0.4328000000000  0.5395650000000 1.0
C      1  0.5261050000000  0.5962230000000  0.4889640000000 1.0
C      1  0.3917160000000  0.4688260000000  0.4907420000000 1.0
C      1  0.5744400000000  0.4292860000000  0.4871290000000 1.0
C      1  0.5347090000000  0.5961940000000  0.5153950000000 1.0
C      1  0.3843800000000  0.4684190000000  0.5181560000000 1.0
C      1  0.5729560000000  0.4253670000000  0.5144360000000 1.0
C      1  0.5298900000000  0.3974350000000  0.4861470000000 1.0
C      1  0.3779410000000  0.5248430000000  0.4826560000000 1.0
C      1  0.5820500000000  0.5777990000000  0.4919340000000 1.0
C      1  0.5247070000000  0.3918690000000  0.5144800000000 1.0
C      1  0.3854140000000  0.5259760000000  0.5096090000000 1.0
C      1  0.5827960000000  0.5746010000000  0.5190760000000 1.0
C      1  0.5397420000000  0.4488230000000  0.5580660000000 1.0
C      1  0.5173170000000  0.5602840000000  0.5558290000000 1.0
C      1  0.4349770000000  0.4960390000000  0.5673960000000 1.0
C      1  0.5421710000000  0.4548950000000  0.4406930000000 1.0
C      1  0.5316650000000  0.5817250000000  0.4263840000000 1.0
C      1  0.4333080000000  0.4712660000000  0.4363170000000 1.0
C      1  0.5434040000000  0.5421060000000  0.5679030000000 1.0
C      1  0.5205990000000  0.4223120000000  0.5674180000000 1.0
C      1  0.4203270000000  0.5252490000000  0.5691250000000 1.0
C      1  0.5411720000000  0.5498700000000  0.4347600000000 1.0
C      1  0.5201450000000  0.4290520000000  0.4389060000000 1.0
C      1  0.4373430000000  0.5042870000000  0.4371030000000 1.0
C      1  0.4750140000000  0.4889960000000  0.6005580000000 1.0
C      1  0.5236660000000  0.4861360000000  0.5990000000000 1.0
C      1  0.5012860000000  0.5307780000000  0.5919400000000 1.0
C      1  0.4750300000000  0.4847270000000  0.3978040000000 1.0
C      1  0.5248930000000  0.4847590000000  0.3995010000000 1.0
C      1  0.4985620000000  0.5290740000000  0.4001390000000 1.0
C      1  0.4762670000000  0.5189510000000  0.6037470000000 1.0
C      1  0.5249100000000  0.5154290000000  0.6034960000000 1.0
C      1  0.4989590000000  0.4733720000000  0.6100210000000 1.0
C      1  0.4735070000000  0.5153680000000  0.3897580000000 1.0
C      1  0.5239750000000  0.5136650000000  0.3893570000000 1.0
C      1  0.5003780000000  0.4683410000000  0.3913660000000 1.0
C      1  0.4974200000000  0.4409510000000  0.4799780000000 1.0
C      1  0.5553490000000  0.5257100000000  0.4874460000000 1.0
C      1  0.4550980000000  0.5378210000000  0.4767950000000 1.0
C      1  0.4944930000000  0.4433160000000  0.5136690000000 1.0
C      1  0.5550700000000  0.5260910000000  0.5183010000000 1.0
C      1  0.4468520000000  0.5452490000000  0.5256420000000 1.0
C      1  0.4758820000000  0.5630760000000  0.4867260000000 1.0
C      1  0.5537380000000  0.4763380000000  0.4722960000000 1.0
C      1  0.4508090000000  0.4651220000000  0.4902010000000 1.0
C      1  0.4788940000000  0.5549340000000  0.5196370000000 1.0
C      1  0.5551290000000  0.4744140000000  0.5279980000000 1.0
C      1  0.4466610000000  0.4668710000000  0.5231770000000 1.0
C      1  0.4773080000000  0.5113570000000  0.5539790000000 1.0
C      1  0.4946120000000  0.4677010000000  0.5569390000000 1.0
C      1  0.5387380000000  0.5092900000000  0.5591520000000 1.0
C      1  0.4687130000000  0.5161820000000  0.4427880000000 1.0
C      1  0.5009090000000  0.4748320000000  0.4426730000000 1.0
C      1  0.5313280000000  0.5180040000000  0.4418060000000 1.0
C      1  0.4668890000000  0.4841970000000  0.5678910000000 1.0
C      1  0.5010460000000  0.5304920000000  0.5579150000000 1.0
C      1  0.5253640000000  0.4787910000000  0.5665840000000 1.0
C      1  0.4784140000000  0.4883310000000  0.4286510000000 1.0
C      1  0.4996200000000  0.5241860000000  0.4310530000000 1.0
C      1  0.5288850000000  0.4852280000000  0.4325680000000 1.0
C      1  0.5746590000000  0.4821370000000  0.5547390000000 1.0
C      1  0.4871120000000  0.5732410000000  0.5471060000000 1.0
C      1  0.4496280000000  0.4584230000000  0.5539360000000 1.0
C      1  0.5721520000000  0.4842500000000  0.4447920000000 1.0
C      1  0.4801570000000  0.5648560000000  0.4530390000000 1.0
C      1  0.4578790000000  0.4486240000000  0.4382440000000 1.0
C      1  0.5722470000000  0.5143170000000  0.5619740000000 1.0
C      1  0.4912910000000  0.4341510000000  0.5617160000000 1.0
C      1  0.4376660000000  0.5499460000000  0.5580480000000 1.0
C      1  0.5646860000000  0.5141100000000  0.4364450000000 1.0
C      1  0.4904350000000  0.4436020000000  0.4467870000000 1.0
C      1  0.4531070000000  0.5463720000000  0.4439430000000 1.0
C      1  0.5432420000000  0.6034720000000  0.4674980000000 1.0
C      1  0.3857230000000  0.4814280000000  0.4625230000000 1.0
C      1  0.5723340000000  0.4141880000000  0.4608160000000 1.0
C      1  0.5475780000000  0.5993380000000  0.5438090000000 1.0
C      1  0.3846090000000  0.4859670000000  0.5423010000000 1.0
C      1  0.5763890000000  0.3998100000000  0.5263250000000 1.0
C      1  0.5533320000000  0.3932520000000  0.4622190000000 1.0
C      1  0.3896800000000  0.5097980000000  0.4613260000000 1.0
C      1  0.5690470000000  0.5912960000000  0.4664520000000 1.0
C      1  0.5528460000000  0.3870270000000  0.5329580000000 1.0
C      1  0.3779450000000  0.5135190000000  0.5377050000000 1.0
C      1  0.5730420000000  0.5861060000000  0.5460500000000 1.0
C      1  0.5263020000000  0.4849720000000  0.5165100000000 1.0
C      1  0.5037680000000  0.5317930000000  0.5240120000000 1.0
C      1  0.4709460000000  0.4869060000000  0.5166330000000 1.0
C      1  0.5267630000000  0.4870520000000  0.4850180000000 1.0
C      1  0.5037600000000  0.5345920000000  0.4899250000000 1.0
C      1  0.4760720000000  0.4875690000000  0.4853370000000 1.0
C      1  0.5301970000000  0.5129120000000  0.5293910000000 1.0
C      1  0.4978630000000  0.4713390000000  0.5256440000000 1.0
C      1  0.4628490000000  0.5152670000000  0.5276370000000 1.0
C      1  0.5286050000000  0.5168870000000  0.4757050000000 1.0
C      1  0.5007380000000  0.4737550000000  0.4744060000000 1.0
C      1  0.4789240000000  0.5164050000000  0.4754340000000 1.0
C      1  0.4283640000000  0.4816660000000  0.4055910000000 1.0
C      1  0.5489440000000  0.4418800000000  0.3976960000000 1.0
C      1  0.5210780000000  0.5727210000000  0.3990220000000 1.0
C      1  0.4275870000000  0.4931860000000  0.6087930000000 1.0
C      1  0.5446240000000  0.4452190000000  0.5894170000000 1.0
C      1  0.5235640000000  0.5717310000000  0.6047660000000 1.0
C      1  0.4300000000000  0.5112610000000  0.4061290000000 1.0
C      1  0.5441440000000  0.5529910000000  0.4022950000000 1.0
C      1  0.5253340000000  0.4316530000000  0.4085880000000 1.0
C      1  0.4290230000000  0.5198710000000  0.5988380000000 1.0
C      1  0.5464090000000  0.5567400000000  0.5977610000000 1.0
C      1  0.5209770000000  0.4308400000000  0.6005750000000 1.0
C      1  0.5106930000000  0.4191670000000  0.5288880000000 1.0
C      1  0.5590510000000  0.5530880000000  0.5286630000000 1.0
C      1  0.4177670000000  0.5330020000000  0.5174670000000 1.0
C      1  0.5267200000000  0.4300120000000  0.4824290000000 1.0
C      1  0.5609460000000  0.5557310000000  0.4819150000000 1.0
C      1  0.4293790000000  0.5233330000000  0.4804380000000 1.0
C      1  0.5320750000000  0.5660890000000  0.5280370000000 1.0
C      1  0.5534360000000  0.4442420000000  0.5304460000000 1.0
C      1  0.4191560000000  0.4796140000000  0.5236240000000 1.0
C      1  0.5085700000000  0.5676140000000  0.4832220000000 1.0
C      1  0.5502460000000  0.4454830000000  0.4720060000000 1.0
C      1  0.4237220000000  0.4772830000000  0.4842110000000 1.0
C      1  0.5346920000000  0.5583540000000  0.4974970000000 1.0
C      1  0.5328800000000  0.4322590000000  0.5122510000000 1.0
C      1  0.4198280000000  0.5044410000000  0.5035790000000 1.0
END
