TITL C-3289322-3858-364 -115.047873964735 125000 -220.759812681143 0 0 44 (C1) n - 1
REM
REM in /nfs/bkarasulu/CARBON/AIRSS/Generating-Clusters/AIREBO/with-SteepDescent/Higher-Symm/SD-CG/HFTN-CG
REM
REM
REM
REM
REM
REM ./C.cell (b20cbc046b6831c77cfcea5457e17084)
REM
REM compiler GCC version 9.2.1 20190827 (Red Hat 9.2.1-1)
REM options -cpp -mtune=generic -march=x86-64 -g -O0 -fpre-include=/usr/include/finclude/math-vector-fortran.h
REM seed 884774976 -1020124495 1040766724 -883765310 -499893041 -64507925 995902036 -242755351 704757142 -672982069 -621220831 1479647721 2106731176 1360957932 1751376278 -1413227619 2014240522 -1296841987 -963809860 1807638577 696763189 -175353743 -2088257991 163737546 1603362940 -1060344449 766342825 644896090 790197379 -1731240766 1334525026 1970920207 -538784557
REM
CELL 1.54180   50.00000   50.00000   50.00000   90.00000   90.00000   90.00000
LATT -1
SFAC C  
C      1  0.4720260000000  0.5653550000000  0.5047200000000 1.0
C      1  0.4739880000000  0.5244090000000  0.4396990000000 1.0
C      1  0.4695490000000  0.4491740000000  0.4605410000000 1.0
C      1  0.4640220000000  0.4488010000000  0.5334650000000 1.0
C      1  0.4683950000000  0.5175810000000  0.5561260000000 1.0
C      1  0.4555890000000  0.5419070000000  0.4543430000000 1.0
C      1  0.4512910000000  0.4700140000000  0.4523540000000 1.0
C      1  0.4511450000000  0.4514440000000  0.5080540000000 1.0
C      1  0.4511950000000  0.4956740000000  0.5485010000000 1.0
C      1  0.4471790000000  0.5615520000000  0.5221880000000 1.0
C      1  0.4721080000000  0.4486290000000  0.4896660000000 1.0
C      1  0.4703390000000  0.4749350000000  0.5447570000000 1.0
C      1  0.4675290000000  0.5363480000000  0.5318160000000 1.0
C      1  0.4717860000000  0.5431870000000  0.4831690000000 1.0
C      1  0.4725910000000  0.4964830000000  0.4537220000000 1.0
C      1  0.4949500000000  0.5074980000000  0.5581390000000 1.0
C      1  0.4985710000000  0.5539280000000  0.5108030000000 1.0
C      1  0.5015450000000  0.5239180000000  0.4514450000000 1.0
C      1  0.4985360000000  0.4580270000000  0.4612270000000 1.0
C      1  0.4938330000000  0.4475010000000  0.5276110000000 1.0
C      1  0.5210940000000  0.5025170000000  0.4466550000000 1.0
C      1  0.5176350000000  0.4444290000000  0.4791000000000 1.0
C      1  0.5137010000000  0.4582990000000  0.5466960000000 1.0
C      1  0.5173830000000  0.5256240000000  0.5496600000000 1.0
C      1  0.5193380000000  0.5519200000000  0.4899290000000 1.0
C      1  0.4997620000000  0.4882120000000  0.4689460000000 1.0
C      1  0.4997820000000  0.4637850000000  0.5006210000000 1.0
C      1  0.4996910000000  0.4864100000000  0.5336560000000 1.0
C      1  0.4972800000000  0.5246050000000  0.5222450000000 1.0
C      1  0.4988120000000  0.5258600000000  0.4824410000000 1.0
C      1  0.4345770000000  0.5012950000000  0.5261130000000 1.0
C      1  0.4397510000000  0.5296120000000  0.5131980000000 1.0
C      1  0.4426320000000  0.5262910000000  0.4816900000000 1.0
C      1  0.4470710000000  0.4952880000000  0.4761680000000 1.0
C      1  0.4350280000000  0.4786590000000  0.5032790000000 1.0
C      1  0.5892230000000  0.5210420000000  0.5074110000000 1.0
C      1  0.6037820000000  0.5295190000000  0.4839750000000 1.0
C      1  0.6044230000000  0.5060620000000  0.4676300000000 1.0
C      1  0.5901120000000  0.4865570000000  0.4834010000000 1.0
C      1  0.5935980000000  0.4890760000000  0.5166780000000 1.0
C      1  0.4682500000000  0.4884530000000  0.5018790000000 1.0
C      1  0.5009470000000  0.4977900000000  0.5015950000000 1.0
C      1  0.5349440000000  0.4982410000000  0.5020840000000 1.0
C      1  0.5640660000000  0.4987710000000  0.5021860000000 1.0
END
