TITL C-3289326-3776-300 0.002519865874112 125000 -1037.93901327994 0 0 198 (C1) n - 1
REM
REM in /nfs/bkarasulu/CARBON/AIRSS/Generating-Clusters/AIREBO/with-SteepDescent/Higher-Symm/SD-CG/HFTN-CG
REM
REM
REM
REM
REM
REM ./C.cell (b20cbc046b6831c77cfcea5457e17084)
REM
REM compiler GCC version 9.2.1 20190827 (Red Hat 9.2.1-1)
REM options -cpp -mtune=generic -march=x86-64 -g -O0 -fpre-include=/usr/include/finclude/math-vector-fortran.h
REM seed 604741438 -875226285 1790199640 1568581387 -183712884 1626124992 1771741959 2040049394 -9968744 -1418441726 -1139036115 -1759115284 -737297509 -1218118430 461144872 1629671348 -232746465 -974941256 1041265379 -1451521159 1872727072 -939479803 521009318 252600922 2009400114 -1394073376 1604257727 44463789 1095548029 244650155 1638173672 -2127684766 2117437743
REM
CELL 1.54180   50.00000   50.00000   50.00000   90.00000   90.00000   90.00000
LATT -1
SFAC C  
C      1  0.5948740000000  0.4820780000000  0.5186010000000 1.0
C      1  0.6022840000000  0.4884500000000  0.4724840000000 1.0
C      1  0.5900640000000  0.5225070000000  0.5106570000000 1.0
C      1  0.4133590000000  0.5237900000000  0.5197740000000 1.0
C      1  0.4052160000000  0.5089180000000  0.4715410000000 1.0
C      1  0.4104060000000  0.4696990000000  0.5041940000000 1.0
C      1  0.5310210000000  0.5337530000000  0.6172190000000 1.0
C      1  0.5255260000000  0.3799250000000  0.4666930000000 1.0
C      1  0.5130440000000  0.5796130000000  0.4217740000000 1.0
C      1  0.4648810000000  0.4517560000000  0.6230360000000 1.0
C      1  0.4739300000000  0.6188270000000  0.4694450000000 1.0
C      1  0.4690430000000  0.4076760000000  0.4182820000000 1.0
C      1  0.4654720000000  0.4462810000000  0.4806630000000 1.0
C      1  0.4764220000000  0.5480320000000  0.4573730000000 1.0
C      1  0.4713670000000  0.5022220000000  0.5673760000000 1.0
C      1  0.5168230000000  0.5509000000000  0.4744800000000 1.0
C      1  0.5280960000000  0.4568000000000  0.4525070000000 1.0
C      1  0.5300010000000  0.4870540000000  0.5709230000000 1.0
C      1  0.5048240000000  0.4689950000000  0.4958800000000 1.0
C      1  0.5021050000000  0.5289860000000  0.4585440000000 1.0
C      1  0.5271340000000  0.5198150000000  0.5486060000000 1.0
C      1  0.4752560000000  0.5421250000000  0.4967180000000 1.0
C      1  0.4996820000000  0.4709380000000  0.4639440000000 1.0
C      1  0.4838160000000  0.4869590000000  0.5403630000000 1.0
C      1  0.4492880000000  0.5048310000000  0.4392200000000 1.0
C      1  0.4452910000000  0.5488010000000  0.5418280000000 1.0
C      1  0.4513930000000  0.4398410000000  0.5302960000000 1.0
C      1  0.5503240000000  0.5027110000000  0.4395600000000 1.0
C      1  0.5582170000000  0.4477080000000  0.5336370000000 1.0
C      1  0.5543780000000  0.5621180000000  0.5199760000000 1.0
C      1  0.6030700000000  0.5341250000000  0.5391650000000 1.0
C      1  0.5982880000000  0.4491070000000  0.5112610000000 1.0
C      1  0.6044250000000  0.5123420000000  0.4474020000000 1.0
C      1  0.3922540000000  0.4623160000000  0.5311230000000 1.0
C      1  0.4017810000000  0.5536590000000  0.5136130000000 1.0
C      1  0.3988110000000  0.4902350000000  0.4446650000000 1.0
C      1  0.4500700000000  0.5517050000000  0.4785910000000 1.0
C      1  0.4419240000000  0.4914080000000  0.5537380000000 1.0
C      1  0.4508110000000  0.4713890000000  0.4657920000000 1.0
C      1  0.5489790000000  0.4578690000000  0.4779930000000 1.0
C      1  0.5547190000000  0.5072780000000  0.5601320000000 1.0
C      1  0.5457390000000  0.5507810000000  0.4692390000000 1.0
C      1  0.4858410000000  0.4302690000000  0.4615080000000 1.0
C      1  0.4783310000000  0.5793330000000  0.4653490000000 1.0
C      1  0.4841320000000  0.4892300000000  0.5928860000000 1.0
C      1  0.5067390000000  0.5741980000000  0.4582990000000 1.0
C      1  0.5164970000000  0.4277430000000  0.4658520000000 1.0
C      1  0.5125330000000  0.4950400000000  0.5965650000000 1.0
C      1  0.5459750000000  0.4716320000000  0.4276520000000 1.0
C      1  0.5580830000000  0.5939640000000  0.5187190000000 1.0
C      1  0.5568490000000  0.4385260000000  0.5653440000000 1.0
C      1  0.4652910000000  0.5248090000000  0.4168350000000 1.0
C      1  0.4450910000000  0.4083090000000  0.5248780000000 1.0
C      1  0.4477230000000  0.5666430000000  0.5706800000000 1.0
C      1  0.5036150000000  0.5582110000000  0.5049490000000 1.0
C      1  0.5067280000000  0.4437920000000  0.5444560000000 1.0
C      1  0.5010800000000  0.4798240000000  0.4037210000000 1.0
C      1  0.4980780000000  0.4384010000000  0.5057500000000 1.0
C      1  0.4967120000000  0.5516390000000  0.5518480000000 1.0
C      1  0.4983760000000  0.5058320000000  0.4343880000000 1.0
C      1  0.4759930000000  0.4920180000000  0.4559370000000 1.0
C      1  0.4809290000000  0.5364490000000  0.5295470000000 1.0
C      1  0.4791980000000  0.4555170000000  0.5282620000000 1.0
C      1  0.5221310000000  0.5035490000000  0.4583150000000 1.0
C      1  0.5237070000000  0.4652040000000  0.5239160000000 1.0
C      1  0.5210130000000  0.5403770000000  0.5221670000000 1.0
C      1  0.6121770000000  0.4617230000000  0.5396320000000 1.0
C      1  0.6046560000000  0.4800310000000  0.4411630000000 1.0
C      1  0.5935290000000  0.5561950000000  0.5154980000000 1.0
C      1  0.4055220000000  0.5465260000000  0.5442310000000 1.0
C      1  0.4002140000000  0.5245180000000  0.4423940000000 1.0
C      1  0.4040950000000  0.4371780000000  0.5136110000000 1.0
C      1  0.5549390000000  0.3944480000000  0.4891580000000 1.0
C      1  0.5494860000000  0.5636740000000  0.4118110000000 1.0
C      1  0.5559430000000  0.5458190000000  0.6038860000000 1.0
C      1  0.4479210000000  0.6052370000000  0.4959460000000 1.0
C      1  0.4566260000000  0.4488770000000  0.4134990000000 1.0
C      1  0.4535660000000  0.4510630000000  0.5841500000000 1.0
C      1  0.5547240000000  0.4055810000000  0.5429530000000 1.0
C      1  0.5580100000000  0.5185340000000  0.3904020000000 1.0
C      1  0.5453440000000  0.5846840000000  0.5618250000000 1.0
C      1  0.4463140000000  0.5992690000000  0.5415990000000 1.0
C      1  0.4464990000000  0.4883500000000  0.3812290000000 1.0
C      1  0.4539980000000  0.4173030000000  0.5629960000000 1.0
C      1  0.4236610000000  0.5323650000000  0.4878530000000 1.0
C      1  0.4213980000000  0.4924310000000  0.5266470000000 1.0
C      1  0.4192690000000  0.4784070000000  0.4768100000000 1.0
C      1  0.5761390000000  0.4745050000000  0.4899180000000 1.0
C      1  0.5702580000000  0.5026450000000  0.5299080000000 1.0
C      1  0.5863060000000  0.5152270000000  0.4827440000000 1.0
C      1  0.5750990000000  0.5242810000000  0.4376190000000 1.0
C      1  0.5772500000000  0.5401530000000  0.5591240000000 1.0
C      1  0.5783060000000  0.4239930000000  0.5024080000000 1.0
C      1  0.4153140000000  0.4694180000000  0.4258230000000 1.0
C      1  0.4100580000000  0.4585650000000  0.5585420000000 1.0
C      1  0.4274980000000  0.5725770000000  0.5040670000000 1.0
C      1  0.5848740000000  0.4483780000000  0.5533350000000 1.0
C      1  0.5764410000000  0.4725190000000  0.4266490000000 1.0
C      1  0.5871560000000  0.5849290000000  0.5204210000000 1.0
C      1  0.4168370000000  0.5686790000000  0.5617030000000 1.0
C      1  0.4251030000000  0.5204330000000  0.4232370000000 1.0
C      1  0.4159630000000  0.4100270000000  0.5224690000000 1.0
C      1  0.4787610000000  0.5334370000000  0.5691980000000 1.0
C      1  0.4895830000000  0.4088330000000  0.4949740000000 1.0
C      1  0.4891480000000  0.5552060000000  0.4275170000000 1.0
C      1  0.5114600000000  0.4582640000000  0.5717430000000 1.0
C      1  0.5069740000000  0.5901120000000  0.4948620000000 1.0
C      1  0.5073040000000  0.4551870000000  0.4257410000000 1.0
C      1  0.5226960000000  0.4164970000000  0.4973490000000 1.0
C      1  0.5210100000000  0.5466380000000  0.4192590000000 1.0
C      1  0.5255960000000  0.5500220000000  0.5620780000000 1.0
C      1  0.4736370000000  0.5830450000000  0.4944310000000 1.0
C      1  0.4815540000000  0.4422730000000  0.4338050000000 1.0
C      1  0.4856830000000  0.4590180000000  0.5867230000000 1.0
C      1  0.5301370000000  0.4898330000000  0.4868420000000 1.0
C      1  0.5262860000000  0.5089600000000  0.5102670000000 1.0
C      1  0.5136010000000  0.4935630000000  0.5352170000000 1.0
C      1  0.4766450000000  0.5116400000000  0.4837030000000 1.0
C      1  0.4706970000000  0.4730040000000  0.5003670000000 1.0
C      1  0.4817950000000  0.5079270000000  0.5160000000000 1.0
C      1  0.5688150000000  0.5538340000000  0.4922470000000 1.0
C      1  0.5945420000000  0.4785080000000  0.5633730000000 1.0
C      1  0.5942080000000  0.4488980000000  0.4366410000000 1.0
C      1  0.4341910000000  0.4383390000000  0.5009600000000 1.0
C      1  0.4276080000000  0.5303370000000  0.5642470000000 1.0
C      1  0.4175300000000  0.5533650000000  0.4371480000000 1.0
C      1  0.5232170000000  0.4140550000000  0.5451920000000 1.0
C      1  0.5094540000000  0.5112000000000  0.4047740000000 1.0
C      1  0.5155600000000  0.5943220000000  0.5525120000000 1.0
C      1  0.4886260000000  0.5753580000000  0.5302110000000 1.0
C      1  0.4729570000000  0.4955260000000  0.4013500000000 1.0
C      1  0.4841990000000  0.4194020000000  0.5519000000000 1.0
C      1  0.4556390000000  0.5744130000000  0.5219760000000 1.0
C      1  0.4354110000000  0.4446090000000  0.5589830000000 1.0
C      1  0.4452550000000  0.4810560000000  0.4147490000000 1.0
C      1  0.5489630000000  0.4232770000000  0.5160630000000 1.0
C      1  0.5550230000000  0.5581120000000  0.5503180000000 1.0
C      1  0.5385250000000  0.5179820000000  0.4139230000000 1.0
C      1  0.5029120000000  0.5350880000000  0.3858290000000 1.0
C      1  0.5048680000000  0.5798190000000  0.5806570000000 1.0
C      1  0.5082970000000  0.3939530000000  0.5270010000000 1.0
C      1  0.5052200000000  0.4514050000000  0.3862670000000 1.0
C      1  0.4980680000000  0.4215570000000  0.5801810000000 1.0
C      1  0.4957030000000  0.6080140000000  0.5281730000000 1.0
C      1  0.4769090000000  0.6214580000000  0.5032130000000 1.0
C      1  0.4754910000000  0.4300330000000  0.6008620000000 1.0
C      1  0.4843490000000  0.4330060000000  0.4013550000000 1.0
C      1  0.5249190000000  0.3826640000000  0.4999620000000 1.0
C      1  0.5261880000000  0.5579680000000  0.5933100000000 1.0
C      1  0.5275910000000  0.5547810000000  0.3868920000000 1.0
C      1  0.4575180000000  0.5580470000000  0.4153680000000 1.0
C      1  0.4601210000000  0.5458460000000  0.5945650000000 1.0
C      1  0.4608700000000  0.3969240000000  0.4991710000000 1.0
C      1  0.5344440000000  0.4345120000000  0.4199900000000 1.0
C      1  0.5403650000000  0.4534320000000  0.5882670000000 1.0
C      1  0.5378620000000  0.5992180000000  0.4937240000000 1.0
C      1  0.4517050000000  0.4155490000000  0.4759400000000 1.0
C      1  0.4463930000000  0.5702370000000  0.4434320000000 1.0
C      1  0.4456860000000  0.5168460000000  0.5842320000000 1.0
C      1  0.5509240000000  0.5926370000000  0.4664520000000 1.0
C      1  0.5489300000000  0.4188020000000  0.4371090000000 1.0
C      1  0.5508430000000  0.4843530000000  0.5976610000000 1.0
C      1  0.4449430000000  0.5101580000000  0.4733330000000 1.0
C      1  0.4518520000000  0.5182400000000  0.5283740000000 1.0
C      1  0.4464820000000  0.4952470000000  0.5038640000000 1.0
C      1  0.5591180000000  0.4981210000000  0.4723460000000 1.0
C      1  0.5556200000000  0.4747540000000  0.5170660000000 1.0
C      1  0.5515070000000  0.5284340000000  0.5180960000000 1.0
C      1  0.4615560000000  0.4771420000000  0.6132650000000 1.0
C      1  0.4662890000000  0.4075800000000  0.4460640000000 1.0
C      1  0.4609170000000  0.6005560000000  0.4488390000000 1.0
C      1  0.5313910000000  0.5062250000000  0.6160650000000 1.0
C      1  0.5329010000000  0.5869630000000  0.4462810000000 1.0
C      1  0.5318200000000  0.4029150000000  0.4538760000000 1.0
C      1  0.5898020000000  0.4455130000000  0.4785320000000 1.0
C      1  0.5913870000000  0.5404950000000  0.4624110000000 1.0
C      1  0.5944830000000  0.5107760000000  0.5606300000000 1.0
C      1  0.4042140000000  0.5596930000000  0.4822100000000 1.0
C      1  0.4035220000000  0.4579440000000  0.4561340000000 1.0
C      1  0.3977490000000  0.4892550000000  0.5509490000000 1.0
C      1  0.5559220000000  0.4250650000000  0.4768350000000 1.0
C      1  0.5618820000000  0.5540230000000  0.4394410000000 1.0
C      1  0.5676610000000  0.5256650000000  0.5856770000000 1.0
C      1  0.4360340000000  0.5822750000000  0.4735160000000 1.0
C      1  0.4400290000000  0.4521830000000  0.4415800000000 1.0
C      1  0.4422690000000  0.4831100000000  0.5867220000000 1.0
C      1  0.5800950000000  0.4946760000000  0.5883290000000 1.0
C      1  0.5774410000000  0.4285780000000  0.4515970000000 1.0
C      1  0.5774960000000  0.5714660000000  0.4644920000000 1.0
C      1  0.4003600000000  0.5147690000000  0.5673400000000 1.0
C      1  0.3969410000000  0.5638540000000  0.4560920000000 1.0
C      1  0.4285330000000  0.4378600000000  0.4674330000000 1.0
C      1  0.4766610000000  0.5430280000000  0.3916150000000 1.0
C      1  0.4794040000000  0.5709900000000  0.5822320000000 1.0
C      1  0.4762690000000  0.3957480000000  0.5300130000000 1.0
C      1  0.5354050000000  0.4582060000000  0.3982230000000 1.0
C      1  0.5291830000000  0.4229210000000  0.5774800000000 1.0
C      1  0.5288500000000  0.6099890000000  0.5254080000000 1.0
END
