TITL C-3289323-3850-284 0.0894259613869254 125000 -794.329481007633 0 0 151 (C1) n - 1
REM
REM in /nfs/bkarasulu/CARBON/AIRSS/Generating-Clusters/AIREBO/with-SteepDescent/Higher-Symm/SD-CG/HFTN-CG
REM
REM
REM
REM
REM
REM ./C.cell (b20cbc046b6831c77cfcea5457e17084)
REM
REM compiler GCC version 9.2.1 20190827 (Red Hat 9.2.1-1)
REM options -cpp -mtune=generic -march=x86-64 -g -O0 -fpre-include=/usr/include/finclude/math-vector-fortran.h
REM seed 1509707726 2093639585 -1694656039 -2060171807 -1865362332 -1624415058 1500965513 -307001171 1547924506 1344297471 408742805 -36401845 -1536401164 -673212483 -1468381059 937369583 -2009167204 1932908557 -1947765577 -1779738307 -61982069 294537970 -1047075682 1230499534 13182498 -1064540775 -2064053807 1888530131 -671038570 1277296351 287350010 -563754128 -852716950
REM
CELL 1.54180   50.00000   50.00000   50.00000   90.00000   90.00000   90.00000
LATT -1
SFAC C  
C      1  0.4636360000000  0.4925630000000  0.4059200000000 1.0
C      1  0.5471330000000  0.5618480000000  0.5464460000000 1.0
C      1  0.4580060000000  0.4746850000000  0.5541890000000 1.0
C      1  0.5945800000000  0.5422780000000  0.4495290000000 1.0
C      1  0.4098410000000  0.4428610000000  0.5160370000000 1.0
C      1  0.4466850000000  0.5229420000000  0.5372260000000 1.0
C      1  0.4944160000000  0.5792190000000  0.5139670000000 1.0
C      1  0.5238830000000  0.5692540000000  0.4734130000000 1.0
C      1  0.4913410000000  0.4356190000000  0.5019940000000 1.0
C      1  0.4791030000000  0.4995510000000  0.4706200000000 1.0
C      1  0.5442140000000  0.4982280000000  0.4165690000000 1.0
C      1  0.4414980000000  0.4935900000000  0.4727880000000 1.0
C      1  0.5950770000000  0.5488880000000  0.5011590000000 1.0
C      1  0.5594940000000  0.5107690000000  0.5672780000000 1.0
C      1  0.4323630000000  0.4600720000000  0.4312240000000 1.0
C      1  0.4771770000000  0.4489750000000  0.5655290000000 1.0
C      1  0.4954430000000  0.5458890000000  0.5359400000000 1.0
C      1  0.5548390000000  0.4257640000000  0.4392690000000 1.0
C      1  0.4850620000000  0.5140470000000  0.5418390000000 1.0
C      1  0.5746470000000  0.4699720000000  0.5251460000000 1.0
C      1  0.5039800000000  0.6068690000000  0.4993900000000 1.0
C      1  0.5164540000000  0.4179420000000  0.4289960000000 1.0
C      1  0.5069400000000  0.5381860000000  0.4469350000000 1.0
C      1  0.5390260000000  0.5574790000000  0.5765490000000 1.0
C      1  0.5669650000000  0.5103600000000  0.4349980000000 1.0
C      1  0.5003200000000  0.5249720000000  0.4775710000000 1.0
C      1  0.4775870000000  0.4240200000000  0.4662960000000 1.0
C      1  0.4835850000000  0.4599000000000  0.5245110000000 1.0
C      1  0.4759660000000  0.5256240000000  0.4406700000000 1.0
C      1  0.4674590000000  0.4675040000000  0.5996130000000 1.0
C      1  0.4857550000000  0.5556630000000  0.5800830000000 1.0
C      1  0.4482390000000  0.4357870000000  0.5534600000000 1.0
C      1  0.5098060000000  0.5362600000000  0.3988400000000 1.0
C      1  0.3926730000000  0.5263520000000  0.4793800000000 1.0
C      1  0.4384690000000  0.5916100000000  0.4695240000000 1.0
C      1  0.5438080000000  0.5304450000000  0.5857050000000 1.0
C      1  0.4492060000000  0.5739350000000  0.5518030000000 1.0
C      1  0.5346800000000  0.4655500000000  0.4162410000000 1.0
C      1  0.5185690000000  0.4823180000000  0.3912090000000 1.0
C      1  0.4498820000000  0.4700320000000  0.4559450000000 1.0
C      1  0.4515320000000  0.5056460000000  0.5617280000000 1.0
C      1  0.6141450000000  0.4569940000000  0.4903000000000 1.0
C      1  0.4886080000000  0.4052310000000  0.5385640000000 1.0
C      1  0.5009540000000  0.5558470000000  0.4919720000000 1.0
C      1  0.4771270000000  0.5170360000000  0.5747890000000 1.0
C      1  0.4257950000000  0.4540620000000  0.5426250000000 1.0
C      1  0.6022400000000  0.4880490000000  0.4973850000000 1.0
C      1  0.6111620000000  0.5362550000000  0.5195340000000 1.0
C      1  0.5336410000000  0.4889190000000  0.4538150000000 1.0
C      1  0.4769950000000  0.4379240000000  0.4386670000000 1.0
C      1  0.5228290000000  0.5144070000000  0.4357640000000 1.0
C      1  0.4928930000000  0.4337150000000  0.5415890000000 1.0
C      1  0.4194570000000  0.5090900000000  0.4312120000000 1.0
C      1  0.4290850000000  0.5076550000000  0.5832380000000 1.0
C      1  0.4313610000000  0.5512350000000  0.5030000000000 1.0
C      1  0.4598800000000  0.4156590000000  0.5285410000000 1.0
C      1  0.3998620000000  0.4753390000000  0.5370380000000 1.0
C      1  0.4147640000000  0.4853120000000  0.4268330000000 1.0
C      1  0.5390700000000  0.4569050000000  0.4583400000000 1.0
C      1  0.5213310000000  0.4799150000000  0.5896180000000 1.0
C      1  0.4188250000000  0.4334450000000  0.4278180000000 1.0
C      1  0.4114630000000  0.4567180000000  0.4948480000000 1.0
C      1  0.5152760000000  0.5748570000000  0.4333260000000 1.0
C      1  0.5206400000000  0.5125560000000  0.5940250000000 1.0
C      1  0.5069990000000  0.4103910000000  0.4896690000000 1.0
C      1  0.4557070000000  0.5241200000000  0.4679440000000 1.0
C      1  0.4601160000000  0.5185440000000  0.4156640000000 1.0
C      1  0.4897840000000  0.6029930000000  0.4681810000000 1.0
C      1  0.4059180000000  0.5085320000000  0.5024480000000 1.0
C      1  0.5654100000000  0.4513710000000  0.4985180000000 1.0
C      1  0.5081970000000  0.4110880000000  0.4588910000000 1.0
C      1  0.5374370000000  0.4250100000000  0.4684020000000 1.0
C      1  0.6051120000000  0.4557100000000  0.5200830000000 1.0
C      1  0.4756460000000  0.5130190000000  0.6053610000000 1.0
C      1  0.4691790000000  0.5853520000000  0.5272580000000 1.0
C      1  0.6022340000000  0.5174020000000  0.5388550000000 1.0
C      1  0.4815600000000  0.4315470000000  0.5896600000000 1.0
C      1  0.5869670000000  0.5118460000000  0.4886840000000 1.0
C      1  0.4653700000000  0.5809520000000  0.4604430000000 1.0
C      1  0.4945660000000  0.5559640000000  0.4205740000000 1.0
C      1  0.4419940000000  0.4604160000000  0.5800140000000 1.0
C      1  0.5062850000000  0.4585010000000  0.4577910000000 1.0
C      1  0.4572870000000  0.5035110000000  0.5123830000000 1.0
C      1  0.5059740000000  0.6002500000000  0.4388440000000 1.0
C      1  0.5696250000000  0.5396350000000  0.4805970000000 1.0
C      1  0.4915780000000  0.4722630000000  0.6042100000000 1.0
C      1  0.5541350000000  0.4954440000000  0.5158150000000 1.0
C      1  0.4757210000000  0.4790680000000  0.4975490000000 1.0
C      1  0.4582450000000  0.5567890000000  0.5769120000000 1.0
C      1  0.5645520000000  0.5439550000000  0.5353670000000 1.0
C      1  0.4255620000000  0.4850330000000  0.4965290000000 1.0
C      1  0.5129230000000  0.3922170000000  0.5342710000000 1.0
C      1  0.4813180000000  0.4771640000000  0.4451180000000 1.0
C      1  0.4078860000000  0.5451620000000  0.4655260000000 1.0
C      1  0.5563620000000  0.5289900000000  0.5100390000000 1.0
C      1  0.5612470000000  0.4589350000000  0.5522840000000 1.0
C      1  0.5156190000000  0.5729810000000  0.5399260000000 1.0
C      1  0.4868550000000  0.5198100000000  0.5083660000000 1.0
C      1  0.4208790000000  0.4819990000000  0.5889560000000 1.0
C      1  0.4160650000000  0.5698400000000  0.4812980000000 1.0
C      1  0.5302850000000  0.4866360000000  0.4969200000000 1.0
C      1  0.5522360000000  0.4809590000000  0.5754380000000 1.0
C      1  0.4357060000000  0.5236060000000  0.4954550000000 1.0
C      1  0.4463220000000  0.5462810000000  0.4240280000000 1.0
C      1  0.5668570000000  0.4614680000000  0.4729160000000 1.0
C      1  0.6061490000000  0.5294270000000  0.4681040000000 1.0
C      1  0.6021100000000  0.4895350000000  0.5297000000000 1.0
C      1  0.5057330000000  0.4498200000000  0.4249050000000 1.0
C      1  0.5541340000000  0.4257190000000  0.5507890000000 1.0
C      1  0.5244170000000  0.4715250000000  0.5336550000000 1.0
C      1  0.6109180000000  0.4799840000000  0.4665340000000 1.0
C      1  0.4712080000000  0.5535490000000  0.4756550000000 1.0
C      1  0.5227450000000  0.5979110000000  0.4748160000000 1.0
C      1  0.4632220000000  0.5476500000000  0.5384070000000 1.0
C      1  0.4404480000000  0.4776250000000  0.5253100000000 1.0
C      1  0.4945640000000  0.4865620000000  0.5398900000000 1.0
C      1  0.5399160000000  0.4126380000000  0.5288130000000 1.0
C      1  0.5333150000000  0.4507540000000  0.6023700000000 1.0
C      1  0.5234090000000  0.5368040000000  0.5089840000000 1.0
C      1  0.5239090000000  0.3951830000000  0.5053940000000 1.0
C      1  0.4636160000000  0.4626070000000  0.4194380000000 1.0
C      1  0.5067290000000  0.5305320000000  0.5708720000000 1.0
C      1  0.4390450000000  0.5924010000000  0.5248800000000 1.0
C      1  0.4663660000000  0.5658870000000  0.4299760000000 1.0
C      1  0.5808140000000  0.4855320000000  0.4536630000000 1.0
C      1  0.5210140000000  0.5121070000000  0.3959250000000 1.0
C      1  0.5198940000000  0.4508310000000  0.5107240000000 1.0
C      1  0.5419250000000  0.4312660000000  0.5013910000000 1.0
C      1  0.5362840000000  0.5553110000000  0.4483970000000 1.0
C      1  0.5585400000000  0.4486120000000  0.4244100000000 1.0
C      1  0.5057290000000  0.4894850000000  0.4297500000000 1.0
C      1  0.4937510000000  0.4499090000000  0.3966170000000 1.0
C      1  0.5203960000000  0.6048670000000  0.5291040000000 1.0
C      1  0.5226760000000  0.5262030000000  0.5411500000000 1.0
C      1  0.4286880000000  0.5942510000000  0.5003760000000 1.0
C      1  0.5106310000000  0.5702310000000  0.5734480000000 1.0
C      1  0.5389860000000  0.5007020000000  0.5434460000000 1.0
C      1  0.5583490000000  0.5020880000000  0.4731260000000 1.0
C      1  0.5297720000000  0.5142890000000  0.4843130000000 1.0
C      1  0.4296060000000  0.5336830000000  0.4483490000000 1.0
C      1  0.5072380000000  0.4646020000000  0.5625540000000 1.0
C      1  0.5347320000000  0.4456600000000  0.5689920000000 1.0
C      1  0.5616850000000  0.5405900000000  0.4496410000000 1.0
C      1  0.4576410000000  0.4584720000000  0.4830610000000 1.0
C      1  0.3923870000000  0.4997770000000  0.5279220000000 1.0
C      1  0.5797160000000  0.5264930000000  0.5517440000000 1.0
C      1  0.3757250000000  0.5171990000000  0.5408970000000 1.0
C      1  0.5066490000000  0.4693880000000  0.4872600000000 1.0
C      1  0.5809700000000  0.4636990000000  0.4282920000000 1.0
C      1  0.4649210000000  0.4174720000000  0.4957130000000 1.0
C      1  0.4408640000000  0.5358250000000  0.5856920000000 1.0
END
