TITL C-3289330-4660-205 -0.011990482485547 125000 -475.20489438071 0 0 89 (C1) n - 1
REM
REM in /nfs/bkarasulu/CARBON/AIRSS/Generating-Clusters/AIREBO/with-SteepDescent/Higher-Symm/SD-CG/HFTN-CG
REM
REM
REM
REM
REM
REM ./C.cell (b20cbc046b6831c77cfcea5457e17084)
REM
REM compiler GCC version 9.2.1 20190827 (Red Hat 9.2.1-1)
REM options -cpp -mtune=generic -march=x86-64 -g -O0 -fpre-include=/usr/include/finclude/math-vector-fortran.h
REM seed -5493891 -321639475 1984836734 1926754789 200773655 1402943477 -1087362735 481317723 -862846281 -2109031639 -438541558 -1177897606 -1887048788 -1988118086 1121509825 877776898 -1747548895 -28830430 -1631589366 1628550416 -608066286 -604724509 -573679529 671503368 -1744519561 587161050 1381794307 -668735700 1248357315 990122102 -1624912312 514700639 1572681372
REM
CELL 1.54180   50.00000   50.00000   50.00000   90.00000   90.00000   90.00000
LATT -1
SFAC C  
C      1  0.4748030000000  0.5697980000000  0.5439900000000 1.0
C      1  0.4405050000000  0.5830790000000  0.4763760000000 1.0
C      1  0.4948080000000  0.5744530000000  0.4701150000000 1.0
C      1  0.5317870000000  0.5774290000000  0.4850590000000 1.0
C      1  0.5258090000000  0.5782110000000  0.5244450000000 1.0
C      1  0.4782890000000  0.4380020000000  0.5418560000000 1.0
C      1  0.4394740000000  0.4251010000000  0.4935420000000 1.0
C      1  0.4924080000000  0.4260300000000  0.4696890000000 1.0
C      1  0.5357870000000  0.4260800000000  0.4717940000000 1.0
C      1  0.5285590000000  0.4311800000000  0.5249840000000 1.0
C      1  0.5430270000000  0.5075080000000  0.5574610000000 1.0
C      1  0.4565100000000  0.5213730000000  0.5588110000000 1.0
C      1  0.4357080000000  0.5088890000000  0.4789270000000 1.0
C      1  0.4921810000000  0.5179240000000  0.4224160000000 1.0
C      1  0.5774270000000  0.5149640000000  0.4704030000000 1.0
C      1  0.5538290000000  0.4763570000000  0.5663860000000 1.0
C      1  0.4520190000000  0.4933580000000  0.5628570000000 1.0
C      1  0.4219410000000  0.4782830000000  0.4798560000000 1.0
C      1  0.4923010000000  0.4865170000000  0.4189220000000 1.0
C      1  0.5720250000000  0.4813080000000  0.4665610000000 1.0
C      1  0.5456520000000  0.4439550000000  0.4470440000000 1.0
C      1  0.5602630000000  0.4422910000000  0.5283560000000 1.0
C      1  0.4864520000000  0.4547900000000  0.5667380000000 1.0
C      1  0.4342140000000  0.4453020000000  0.5114150000000 1.0
C      1  0.4763060000000  0.4426970000000  0.4448040000000 1.0
C      1  0.5546110000000  0.5570060000000  0.4691700000000 1.0
C      1  0.5470700000000  0.5571150000000  0.5415420000000 1.0
C      1  0.4864480000000  0.5597530000000  0.5735130000000 1.0
C      1  0.4387710000000  0.5578390000000  0.4946620000000 1.0
C      1  0.4872270000000  0.5585840000000  0.4407700000000 1.0
C      1  0.4490650000000  0.5579780000000  0.5270940000000 1.0
C      1  0.4628270000000  0.5649320000000  0.4635840000000 1.0
C      1  0.5217180000000  0.5562940000000  0.4605920000000 1.0
C      1  0.5458260000000  0.5562180000000  0.5079640000000 1.0
C      1  0.5080750000000  0.5621530000000  0.5475530000000 1.0
C      1  0.4594200000000  0.4566560000000  0.5261810000000 1.0
C      1  0.4587060000000  0.4328440000000  0.4707070000000 1.0
C      1  0.5145250000000  0.4330840000000  0.4448180000000 1.0
C      1  0.5484840000000  0.4393520000000  0.4977860000000 1.0
C      1  0.5114610000000  0.4395530000000  0.5491870000000 1.0
C      1  0.4495470000000  0.5165020000000  0.4416960000000 1.0
C      1  0.5392620000000  0.5191650000000  0.4302760000000 1.0
C      1  0.5814970000000  0.5171180000000  0.5171450000000 1.0
C      1  0.5096310000000  0.5148220000000  0.5786900000000 1.0
C      1  0.4217030000000  0.5153410000000  0.5261880000000 1.0
C      1  0.4490850000000  0.4870810000000  0.4389660000000 1.0
C      1  0.5385720000000  0.4878300000000  0.4238770000000 1.0
C      1  0.5848680000000  0.4876400000000  0.5183780000000 1.0
C      1  0.5058090000000  0.4846950000000  0.5844680000000 1.0
C      1  0.4191730000000  0.4870700000000  0.5280610000000 1.0
C      1  0.5212930000000  0.4823870000000  0.4742630000000 1.0
C      1  0.5445560000000  0.4894280000000  0.5168230000000 1.0
C      1  0.5111920000000  0.4872030000000  0.5230290000000 1.0
C      1  0.4846370000000  0.4714420000000  0.5087910000000 1.0
C      1  0.4870600000000  0.4830380000000  0.4769020000000 1.0
C      1  0.5228710000000  0.5147630000000  0.4810070000000 1.0
C      1  0.5302430000000  0.5196520000000  0.5106750000000 1.0
C      1  0.5034820000000  0.5206060000000  0.5293710000000 1.0
C      1  0.4754480000000  0.5228210000000  0.5102420000000 1.0
C      1  0.4889510000000  0.5165340000000  0.4794660000000 1.0
C      1  0.5461850000000  0.4730770000000  0.4528610000000 1.0
C      1  0.5622520000000  0.4711190000000  0.5358090000000 1.0
C      1  0.4815410000000  0.4852800000000  0.5624140000000 1.0
C      1  0.4162760000000  0.4674320000000  0.5068810000000 1.0
C      1  0.4780810000000  0.4726060000000  0.4457910000000 1.0
C      1  0.5461140000000  0.5249040000000  0.4618700000000 1.0
C      1  0.5540430000000  0.5253020000000  0.5317160000000 1.0
C      1  0.4876630000000  0.5294340000000  0.5581680000000 1.0
C      1  0.4428910000000  0.5254940000000  0.5047770000000 1.0
C      1  0.4793840000000  0.5274180000000  0.4518690000000 1.0
C      1  0.5251950000000  0.4588050000000  0.5739160000000 1.0
C      1  0.4400360000000  0.4764790000000  0.5440090000000 1.0
C      1  0.4423710000000  0.4601000000000  0.4586050000000 1.0
C      1  0.5156520000000  0.4632500000000  0.4290940000000 1.0
C      1  0.5698190000000  0.4658050000000  0.4967430000000 1.0
C      1  0.5271320000000  0.5363000000000  0.5589790000000 1.0
C      1  0.4376100000000  0.5345810000000  0.5432190000000 1.0
C      1  0.4441020000000  0.5373470000000  0.4671400000000 1.0
C      1  0.5145030000000  0.5385540000000  0.4366980000000 1.0
C      1  0.5666870000000  0.5370830000000  0.4939360000000 1.0
C      1  0.5123670000000  0.4927670000000  0.4456490000000 1.0
C      1  0.5578110000000  0.4983120000000  0.4910830000000 1.0
C      1  0.4550080000000  0.4835430000000  0.4782420000000 1.0
C      1  0.5245270000000  0.4813610000000  0.5498800000000 1.0
C      1  0.4749080000000  0.4956050000000  0.5306500000000 1.0
C      1  0.5024370000000  0.5707760000000  0.5008930000000 1.0
C      1  0.5131790000000  0.4210670000000  0.4962610000000 1.0
C      1  0.4988140000000  0.4463140000000  0.5031550000000 1.0
C      1  0.4811210000000  0.5560340000000  0.5148250000000 1.0
END
