TITL C-3289329-2751-492 -0.00218044857870737 125000 -633.631853602026 0 0 123 (C1) n - 1
REM
REM in /nfs/bkarasulu/CARBON/AIRSS/Generating-Clusters/AIREBO/with-SteepDescent/Higher-Symm/SD-CG/HFTN-CG
REM
REM
REM
REM
REM
REM ./C.cell (b20cbc046b6831c77cfcea5457e17084)
REM
REM compiler GCC version 9.2.1 20190827 (Red Hat 9.2.1-1)
REM options -cpp -mtune=generic -march=x86-64 -g -O0 -fpre-include=/usr/include/finclude/math-vector-fortran.h
REM seed 354169728 1828371611 -1300753717 -1454526376 1112267935 1338663022 1197087182 429383973 138214453 -75558591 646146287 -928682650 -1433940739 415979027 1515244971 1023365694 -229764438 370277527 -1363466040 1748934664 -773007554 1012787717 -853597099 1474592881 122992905 1195858899 -1187058130 -874302165 576060121 1210235062 763062410 1958827991 1225112886
REM
CELL 1.54180   50.00000   50.00000   50.00000   90.00000   90.00000   90.00000
LATT -1
SFAC C  
C      1  0.4394490000000  0.5733950000000  0.5615010000000 1.0
C      1  0.4297800000000  0.5720090000000  0.4313480000000 1.0
C      1  0.4764400000000  0.5059960000000  0.5510440000000 1.0
C      1  0.4931380000000  0.4972010000000  0.4488020000000 1.0
C      1  0.4904690000000  0.4426380000000  0.5850560000000 1.0
C      1  0.4829160000000  0.4422110000000  0.4106130000000 1.0
C      1  0.4722290000000  0.4523650000000  0.5138870000000 1.0
C      1  0.4732600000000  0.4416690000000  0.4816250000000 1.0
C      1  0.5089490000000  0.5571300000000  0.5484250000000 1.0
C      1  0.5338000000000  0.5571540000000  0.4480930000000 1.0
C      1  0.4483060000000  0.4972970000000  0.4726600000000 1.0
C      1  0.4453150000000  0.4996710000000  0.5269670000000 1.0
C      1  0.4179380000000  0.4625870000000  0.4881530000000 1.0
C      1  0.4128950000000  0.4677050000000  0.5162700000000 1.0
C      1  0.4675130000000  0.5637580000000  0.5469240000000 1.0
C      1  0.4706540000000  0.5544660000000  0.4548900000000 1.0
C      1  0.5149200000000  0.4402500000000  0.4181120000000 1.0
C      1  0.5220400000000  0.4416760000000  0.5736840000000 1.0
C      1  0.5529970000000  0.5117780000000  0.5524700000000 1.0
C      1  0.5579730000000  0.5103030000000  0.4523010000000 1.0
C      1  0.4343500000000  0.5149910000000  0.4085680000000 1.0
C      1  0.4419980000000  0.5235680000000  0.5787390000000 1.0
C      1  0.4450740000000  0.5393900000000  0.4479890000000 1.0
C      1  0.4568320000000  0.5316060000000  0.5498960000000 1.0
C      1  0.5283580000000  0.5176640000000  0.4168550000000 1.0
C      1  0.5332890000000  0.5146890000000  0.5874330000000 1.0
C      1  0.5722020000000  0.4428230000000  0.4644510000000 1.0
C      1  0.5425090000000  0.4221750000000  0.5265820000000 1.0
C      1  0.5660420000000  0.4603150000000  0.4290380000000 1.0
C      1  0.5757020000000  0.4583120000000  0.5682190000000 1.0
C      1  0.5663870000000  0.4825930000000  0.5464420000000 1.0
C      1  0.5523800000000  0.4787150000000  0.4520850000000 1.0
C      1  0.4955230000000  0.5381060000000  0.4713240000000 1.0
C      1  0.4980070000000  0.5243000000000  0.5321610000000 1.0
C      1  0.4441340000000  0.4903660000000  0.4147920000000 1.0
C      1  0.4476950000000  0.4942110000000  0.5865030000000 1.0
C      1  0.6007530000000  0.5251770000000  0.4746440000000 1.0
C      1  0.5992950000000  0.5237490000000  0.5371620000000 1.0
C      1  0.4721280000000  0.4749850000000  0.4383460000000 1.0
C      1  0.4623880000000  0.4750840000000  0.5534200000000 1.0
C      1  0.5928950000000  0.5486540000000  0.4907410000000 1.0
C      1  0.5807660000000  0.5431330000000  0.5185060000000 1.0
C      1  0.5245920000000  0.5250980000000  0.5132240000000 1.0
C      1  0.5224230000000  0.5307060000000  0.4879930000000 1.0
C      1  0.5643070000000  0.5698380000000  0.5256450000000 1.0
C      1  0.5805830000000  0.5691230000000  0.4771520000000 1.0
C      1  0.4411580000000  0.4203060000000  0.4921580000000 1.0
C      1  0.4442300000000  0.4262660000000  0.5249860000000 1.0
C      1  0.5251860000000  0.5066700000000  0.4551000000000 1.0
C      1  0.5224010000000  0.5077010000000  0.5490600000000 1.0
C      1  0.4328640000000  0.4915690000000  0.5570170000000 1.0
C      1  0.4406840000000  0.4781880000000  0.4463490000000 1.0
C      1  0.4931030000000  0.5610090000000  0.4302050000000 1.0
C      1  0.4863220000000  0.5559070000000  0.5741530000000 1.0
C      1  0.4217930000000  0.4648690000000  0.5443720000000 1.0
C      1  0.4222480000000  0.4561490000000  0.4573210000000 1.0
C      1  0.5156220000000  0.4695640000000  0.4696630000000 1.0
C      1  0.5067480000000  0.4854790000000  0.5339300000000 1.0
C      1  0.5216020000000  0.4898220000000  0.4130020000000 1.0
C      1  0.5309190000000  0.4869370000000  0.5850160000000 1.0
C      1  0.5218810000000  0.4107570000000  0.5127230000000 1.0
C      1  0.5216550000000  0.4196970000000  0.4799170000000 1.0
C      1  0.5187300000000  0.5871340000000  0.5199110000000 1.0
C      1  0.5299170000000  0.5942910000000  0.4692940000000 1.0
C      1  0.5403320000000  0.4417170000000  0.4616950000000 1.0
C      1  0.5376410000000  0.4527240000000  0.5301490000000 1.0
C      1  0.4383110000000  0.5774920000000  0.4580040000000 1.0
C      1  0.4333900000000  0.5991270000000  0.5677450000000 1.0
C      1  0.4252270000000  0.5324510000000  0.5373130000000 1.0
C      1  0.4243940000000  0.5370630000000  0.4669230000000 1.0
C      1  0.4950160000000  0.5636110000000  0.5180760000000 1.0
C      1  0.4914100000000  0.5685040000000  0.4859940000000 1.0
C      1  0.4703530000000  0.4077840000000  0.4819300000000 1.0
C      1  0.4741480000000  0.4184160000000  0.5138480000000 1.0
C      1  0.4732370000000  0.5139920000000  0.4801510000000 1.0
C      1  0.4696330000000  0.5195390000000  0.5140340000000 1.0
C      1  0.5319710000000  0.4625300000000  0.4308490000000 1.0
C      1  0.5418710000000  0.4646370000000  0.5617290000000 1.0
C      1  0.4978920000000  0.4273410000000  0.5549260000000 1.0
C      1  0.4924310000000  0.4268320000000  0.4397980000000 1.0
C      1  0.5054370000000  0.5935550000000  0.4752990000000 1.0
C      1  0.4894180000000  0.5903640000000  0.5381170000000 1.0
C      1  0.5059320000000  0.4552230000000  0.5181050000000 1.0
C      1  0.5049300000000  0.4461010000000  0.4870700000000 1.0
C      1  0.5479500000000  0.5668810000000  0.4774460000000 1.0
C      1  0.5434500000000  0.5776140000000  0.5095530000000 1.0
C      1  0.4263210000000  0.5155960000000  0.4843610000000 1.0
C      1  0.4245710000000  0.5183500000000  0.5114050000000 1.0
C      1  0.4575290000000  0.5665780000000  0.4838930000000 1.0
C      1  0.4634810000000  0.5530150000000  0.5148950000000 1.0
C      1  0.4708660000000  0.4703250000000  0.5861310000000 1.0
C      1  0.4706290000000  0.4708990000000  0.4058630000000 1.0
C      1  0.4997260000000  0.4937140000000  0.4804770000000 1.0
C      1  0.4900900000000  0.4927840000000  0.5093300000000 1.0
C      1  0.5103520000000  0.5791510000000  0.5739950000000 1.0
C      1  0.5234010000000  0.5517990000000  0.4161640000000 1.0
C      1  0.5496550000000  0.5329600000000  0.4755220000000 1.0
C      1  0.5516920000000  0.5260210000000  0.5238440000000 1.0
C      1  0.5911360000000  0.4567120000000  0.4754010000000 1.0
C      1  0.5875490000000  0.4586030000000  0.5227300000000 1.0
C      1  0.4980630000000  0.4105600000000  0.5290510000000 1.0
C      1  0.4960570000000  0.4100430000000  0.4637110000000 1.0
C      1  0.5468250000000  0.4681960000000  0.4820110000000 1.0
C      1  0.5560880000000  0.4661570000000  0.5115020000000 1.0
C      1  0.5840660000000  0.5152310000000  0.5611920000000 1.0
C      1  0.5888450000000  0.5156490000000  0.4501290000000 1.0
C      1  0.4934360000000  0.4921650000000  0.4091990000000 1.0
C      1  0.5033550000000  0.4798170000000  0.5862160000000 1.0
C      1  0.4954250000000  0.4572970000000  0.4485320000000 1.0
C      1  0.4916090000000  0.4588700000000  0.5487290000000 1.0
C      1  0.4466120000000  0.4722280000000  0.5140290000000 1.0
C      1  0.4513550000000  0.4656370000000  0.4826420000000 1.0
C      1  0.4882690000000  0.5056720000000  0.5802300000000 1.0
C      1  0.4833960000000  0.5169000000000  0.4243190000000 1.0
C      1  0.4446400000000  0.4464270000000  0.5444190000000 1.0
C      1  0.4249900000000  0.4279810000000  0.4699860000000 1.0
C      1  0.5088530000000  0.5307540000000  0.5700690000000 1.0
C      1  0.5090750000000  0.5327850000000  0.4404480000000 1.0
C      1  0.4350430000000  0.5411180000000  0.4198480000000 1.0
C      1  0.4245730000000  0.5486860000000  0.5653710000000 1.0
C      1  0.5740140000000  0.5134740000000  0.4892400000000 1.0
C      1  0.5769620000000  0.5033750000000  0.5215930000000 1.0
C      1  0.5833180000000  0.4805980000000  0.4971330000000 1.0
END
