TITL C-3289320-4661-241 0.0011757510532971 125000 -342.85747269614 0 0 62 (C1) n - 1
REM
REM in /nfs/bkarasulu/CARBON/AIRSS/Generating-Clusters/AIREBO/with-SteepDescent/Higher-Symm/SD-CG/HFTN-CG
REM
REM
REM
REM
REM
REM ./C.cell (b20cbc046b6831c77cfcea5457e17084)
REM
REM compiler GCC version 9.2.1 20190827 (Red Hat 9.2.1-1)
REM options -cpp -mtune=generic -march=x86-64 -g -O0 -fpre-include=/usr/include/finclude/math-vector-fortran.h
REM seed 726609316 769087914 -1103495169 -870298421 -1025818499 -124672739 1106472181 2026106402 -1518341113 327914339 2026479792 -1490300669 1691243049 1423809149 585531288 310980526 12480292 -861989182 -1363798931 1720151392 -1920971935 1062739858 -1018533323 1944767284 1067880761 393853410 -1603559541 -1110735565 1432472549 1186094193 -588343164 1801578362 413460241
REM
CELL 1.54180   50.00000   50.00000   50.00000   90.00000   90.00000   90.00000
LATT -1
SFAC C  
C      1  0.5506580000000  0.4014300000000  0.5218870000000 1.0
C      1  0.4446800000000  0.5814890000000  0.5089460000000 1.0
C      1  0.5221780000000  0.5067160000000  0.5052660000000 1.0
C      1  0.4760340000000  0.4804940000000  0.4784940000000 1.0
C      1  0.5644300000000  0.5628320000000  0.4779750000000 1.0
C      1  0.4446620000000  0.4596910000000  0.5241670000000 1.0
C      1  0.4535760000000  0.4583430000000  0.5571800000000 1.0
C      1  0.5435220000000  0.5525280000000  0.4572450000000 1.0
C      1  0.5558740000000  0.5361940000000  0.5228380000000 1.0
C      1  0.4326100000000  0.4611460000000  0.4757160000000 1.0
C      1  0.4614830000000  0.5384000000000  0.5268680000000 1.0
C      1  0.5427820000000  0.4775260000000  0.4791960000000 1.0
C      1  0.5320150000000  0.4746960000000  0.5111060000000 1.0
C      1  0.4572890000000  0.5088770000000  0.4787900000000 1.0
C      1  0.5205980000000  0.4646750000000  0.4582450000000 1.0
C      1  0.4871070000000  0.5430330000000  0.5487320000000 1.0
C      1  0.5220440000000  0.5751010000000  0.4608200000000 1.0
C      1  0.4728360000000  0.4312940000000  0.5498520000000 1.0
C      1  0.5792420000000  0.4509960000000  0.5065970000000 1.0
C      1  0.4234370000000  0.5472150000000  0.4636680000000 1.0
C      1  0.5070310000000  0.5217570000000  0.5472730000000 1.0
C      1  0.4958920000000  0.4817760000000  0.4539570000000 1.0
C      1  0.4719720000000  0.4468920000000  0.5240330000000 1.0
C      1  0.5482520000000  0.5891250000000  0.4717220000000 1.0
C      1  0.5024090000000  0.4606920000000  0.5180640000000 1.0
C      1  0.4847770000000  0.5269950000000  0.4817920000000 1.0
C      1  0.4431040000000  0.5397780000000  0.4789780000000 1.0
C      1  0.5527600000000  0.4485790000000  0.5128090000000 1.0
C      1  0.4607180000000  0.4899540000000  0.5487080000000 1.0
C      1  0.5434520000000  0.5237810000000  0.4493050000000 1.0
C      1  0.4800820000000  0.5541360000000  0.4837090000000 1.0
C      1  0.5143020000000  0.4317510000000  0.5300920000000 1.0
C      1  0.4786300000000  0.4834430000000  0.5095080000000 1.0
C      1  0.5092960000000  0.5153660000000  0.4832820000000 1.0
C      1  0.4747280000000  0.4955590000000  0.4340120000000 1.0
C      1  0.5262240000000  0.4965720000000  0.5578750000000 1.0
C      1  0.5648900000000  0.5072070000000  0.5280290000000 1.0
C      1  0.4274190000000  0.4798580000000  0.4534380000000 1.0
C      1  0.5453740000000  0.4895920000000  0.5378120000000 1.0
C      1  0.4495650000000  0.4986580000000  0.4479630000000 1.0
C      1  0.5074670000000  0.4804490000000  0.5734020000000 1.0
C      1  0.4927550000000  0.5122770000000  0.4174930000000 1.0
C      1  0.5699860000000  0.5467880000000  0.4991300000000 1.0
C      1  0.4312010000000  0.4709120000000  0.5028660000000 1.0
C      1  0.4987740000000  0.4210720000000  0.5511350000000 1.0
C      1  0.4958420000000  0.5706320000000  0.4681910000000 1.0
C      1  0.6024770000000  0.5068070000000  0.4913010000000 1.0
C      1  0.4084580000000  0.5163880000000  0.5039070000000 1.0
C      1  0.5181460000000  0.5155890000000  0.4277230000000 1.0
C      1  0.4819580000000  0.4732240000000  0.5693230000000 1.0
C      1  0.4582470000000  0.5083920000000  0.5215440000000 1.0
C      1  0.5551150000000  0.5043790000000  0.4741280000000 1.0
C      1  0.5286210000000  0.5251360000000  0.5254390000000 1.0
C      1  0.4602330000000  0.4537110000000  0.4712140000000 1.0
C      1  0.4584290000000  0.5530330000000  0.5575620000000 1.0
C      1  0.5480520000000  0.4494920000000  0.4603180000000 1.0
C      1  0.4920470000000  0.4954840000000  0.5377750000000 1.0
C      1  0.5182560000000  0.5044600000000  0.4580050000000 1.0
C      1  0.4561030000000  0.5567930000000  0.5031930000000 1.0
C      1  0.5398660000000  0.4260260000000  0.5218390000000 1.0
C      1  0.4341980000000  0.5007050000000  0.5023790000000 1.0
C      1  0.5758320000000  0.5141030000000  0.4961840000000 1.0
END
