TITL C-3289335-9438-696 0.00190071653482466 125000 -571.168130561427 0 0 105 (C1) n - 1
REM
REM in /nfs/bkarasulu/CARBON/AIRSS/Generating-Clusters/AIREBO/with-SteepDescent/Higher-Symm/SD-CG/HFTN-CG
REM
REM
REM
REM
REM
REM ./C.cell (b20cbc046b6831c77cfcea5457e17084)
REM
REM compiler GCC version 9.2.1 20190827 (Red Hat 9.2.1-1)
REM options -cpp -mtune=generic -march=x86-64 -g -O0 -fpre-include=/usr/include/finclude/math-vector-fortran.h
REM seed -1704191335 -533779371 -81175365 684914484 902396448 1122750572 -1298618550 1372065824 -775717805 1627318531 -1428274814 1954749290 -1289698179 1003555621 1112336266 -600424758 -2054859237 1218058105 377246462 2093130431 1235265310 -422558766 845768502 280990678 -1691742448 -2029860640 -422697880 -1193263331 35671996 -1209270099 -602312785 2073117037 -205931602
REM
CELL 1.54180   50.00000   50.00000   50.00000   90.00000   90.00000   90.00000
LATT -1
SFAC C  
C      1  0.5171280000000  0.4489140000000  0.4319470000000 1.0
C      1  0.5711650000000  0.5610100000000  0.5232880000000 1.0
C      1  0.4814430000000  0.4425960000000  0.5748040000000 1.0
C      1  0.4263090000000  0.5593380000000  0.4843980000000 1.0
C      1  0.5836580000000  0.5194880000000  0.4600890000000 1.0
C      1  0.5476750000000  0.4823220000000  0.5785900000000 1.0
C      1  0.4234320000000  0.5185560000000  0.5436530000000 1.0
C      1  0.4478150000000  0.4888300000000  0.4199420000000 1.0
C      1  0.5089120000000  0.5040320000000  0.5414880000000 1.0
C      1  0.4517020000000  0.4927970000000  0.5070420000000 1.0
C      1  0.4970560000000  0.4953980000000  0.4582290000000 1.0
C      1  0.5399310000000  0.4896220000000  0.4892640000000 1.0
C      1  0.5434700000000  0.5497300000000  0.4418160000000 1.0
C      1  0.5627090000000  0.4495490000000  0.5399030000000 1.0
C      1  0.4641800000000  0.5475450000000  0.5545840000000 1.0
C      1  0.4365710000000  0.4492960000000  0.4602890000000 1.0
C      1  0.4969660000000  0.5445230000000  0.4381490000000 1.0
C      1  0.5728790000000  0.4625400000000  0.4984150000000 1.0
C      1  0.4972740000000  0.5383430000000  0.5579260000000 1.0
C      1  0.4341840000000  0.4563200000000  0.4934740000000 1.0
C      1  0.4293320000000  0.5581650000000  0.4505380000000 1.0
C      1  0.5500500000000  0.4505460000000  0.4233530000000 1.0
C      1  0.5752910000000  0.5532220000000  0.5545410000000 1.0
C      1  0.4478580000000  0.4429700000000  0.5692930000000 1.0
C      1  0.4833510000000  0.4507550000000  0.4271900000000 1.0
C      1  0.5656680000000  0.5678590000000  0.4907740000000 1.0
C      1  0.5145140000000  0.4402440000000  0.5776610000000 1.0
C      1  0.4342820000000  0.5560840000000  0.5168000000000 1.0
C      1  0.5239440000000  0.4523170000000  0.5308230000000 1.0
C      1  0.4784560000000  0.5330000000000  0.5087850000000 1.0
C      1  0.4817590000000  0.4551670000000  0.4844050000000 1.0
C      1  0.5372810000000  0.5400200000000  0.4872180000000 1.0
C      1  0.5137210000000  0.5137580000000  0.5730510000000 1.0
C      1  0.4196410000000  0.4819040000000  0.5039540000000 1.0
C      1  0.4868600000000  0.5147610000000  0.4314760000000 1.0
C      1  0.5737850000000  0.4894590000000  0.4845430000000 1.0
C      1  0.5042220000000  0.4976900000000  0.4084280000000 1.0
C      1  0.5898430000000  0.5090970000000  0.5009590000000 1.0
C      1  0.4982940000000  0.4982920000000  0.5936490000000 1.0
C      1  0.4022730000000  0.5018010000000  0.4901750000000 1.0
C      1  0.5036850000000  0.4091910000000  0.5153350000000 1.0
C      1  0.4836470000000  0.5835840000000  0.4994240000000 1.0
C      1  0.4935050000000  0.4097510000000  0.4898250000000 1.0
C      1  0.5054320000000  0.5861950000000  0.4882080000000 1.0
C      1  0.5310020000000  0.5009830000000  0.4053680000000 1.0
C      1  0.6016250000000  0.4976610000000  0.5262120000000 1.0
C      1  0.4750070000000  0.5130470000000  0.6052580000000 1.0
C      1  0.4038940000000  0.4978780000000  0.4613010000000 1.0
C      1  0.4867460000000  0.5652090000000  0.5727850000000 1.0
C      1  0.4159610000000  0.4320900000000  0.4779400000000 1.0
C      1  0.5194390000000  0.5603620000000  0.4319990000000 1.0
C      1  0.5713790000000  0.4342390000000  0.5144850000000 1.0
C      1  0.4707220000000  0.4694600000000  0.5330500000000 1.0
C      1  0.4719470000000  0.5217710000000  0.4803730000000 1.0
C      1  0.5371970000000  0.4596660000000  0.4734130000000 1.0
C      1  0.5327500000000  0.5435210000000  0.5188920000000 1.0
C      1  0.4551530000000  0.4588800000000  0.4334070000000 1.0
C      1  0.5644610000000  0.5442780000000  0.4670200000000 1.0
C      1  0.5377790000000  0.4563390000000  0.5616950000000 1.0
C      1  0.4368720000000  0.5419340000000  0.5403030000000 1.0
C      1  0.5570830000000  0.4784310000000  0.5342040000000 1.0
C      1  0.4648140000000  0.5158860000000  0.5521420000000 1.0
C      1  0.4495230000000  0.4796710000000  0.4587870000000 1.0
C      1  0.5397610000000  0.5207910000000  0.4462910000000 1.0
C      1  0.5394330000000  0.6007990000000  0.5379980000000 1.0
C      1  0.4561420000000  0.4182570000000  0.5374590000000 1.0
C      1  0.4587240000000  0.5991910000000  0.4619560000000 1.0
C      1  0.5361830000000  0.4106760000000  0.4585890000000 1.0
C      1  0.5035920000000  0.4310620000000  0.5309540000000 1.0
C      1  0.4621090000000  0.5600040000000  0.5021470000000 1.0
C      1  0.4952520000000  0.4336920000000  0.4752790000000 1.0
C      1  0.5321210000000  0.5734120000000  0.4911110000000 1.0
C      1  0.5007340000000  0.4774710000000  0.4322000000000 1.0
C      1  0.5764240000000  0.5321170000000  0.5084510000000 1.0
C      1  0.4903280000000  0.4728850000000  0.5851960000000 1.0
C      1  0.4153410000000  0.5281400000000  0.4876080000000 1.0
C      1  0.4370730000000  0.4683350000000  0.5544930000000 1.0
C      1  0.4433280000000  0.5350430000000  0.4381930000000 1.0
C      1  0.5776720000000  0.4647130000000  0.4374800000000 1.0
C      1  0.5594000000000  0.5289880000000  0.5648670000000 1.0
C      1  0.4518280000000  0.5790030000000  0.4758680000000 1.0
C      1  0.5207640000000  0.4371670000000  0.4602680000000 1.0
C      1  0.5422110000000  0.5758770000000  0.5219610000000 1.0
C      1  0.4778800000000  0.4392780000000  0.5432800000000 1.0
C      1  0.4299540000000  0.4895010000000  0.5334250000000 1.0
C      1  0.4571930000000  0.5139220000000  0.4256260000000 1.0
C      1  0.5832470000000  0.4899800000000  0.4545290000000 1.0
C      1  0.5432450000000  0.5097420000000  0.5775350000000 1.0
C      1  0.5546900000000  0.5264180000000  0.5332830000000 1.0
C      1  0.4662070000000  0.4778720000000  0.5644500000000 1.0
C      1  0.4441720000000  0.5268230000000  0.4700440000000 1.0
C      1  0.5474660000000  0.4742500000000  0.4463240000000 1.0
C      1  0.5428350000000  0.4510830000000  0.5053090000000 1.0
C      1  0.5049010000000  0.5339580000000  0.5268600000000 1.0
C      1  0.4615260000000  0.4541500000000  0.5060860000000 1.0
C      1  0.4961630000000  0.5343630000000  0.4663030000000 1.0
C      1  0.5269790000000  0.4845120000000  0.5203030000000 1.0
C      1  0.4793030000000  0.5013750000000  0.5249730000000 1.0
C      1  0.4727840000000  0.4877790000000  0.4808080000000 1.0
C      1  0.5222630000000  0.5134010000000  0.4723130000000 1.0
C      1  0.5436390000000  0.4996040000000  0.4302710000000 1.0
C      1  0.5728470000000  0.5003570000000  0.5359730000000 1.0
C      1  0.4615270000000  0.5052690000000  0.5796920000000 1.0
C      1  0.4301350000000  0.5014390000000  0.4544590000000 1.0
C      1  0.4999290000000  0.4865420000000  0.5012480000000 1.0
END
