TITL C-3289324-3781-729 -0.00176751194413054 125000 -960.724517689942 0 0 174 (C1) n - 1
REM
REM in /nfs/bkarasulu/CARBON/AIRSS/Generating-Clusters/AIREBO/with-SteepDescent/Higher-Symm/SD-CG/HFTN-CG
REM
REM
REM
REM
REM
REM ./C.cell (b20cbc046b6831c77cfcea5457e17084)
REM
REM compiler GCC version 9.2.1 20190827 (Red Hat 9.2.1-1)
REM options -cpp -mtune=generic -march=x86-64 -g -O0 -fpre-include=/usr/include/finclude/math-vector-fortran.h
REM seed -316518048 -170460017 -1358531527 -972671993 1507014821 1040528283 2017274592 -1360327368 1979735985 -864549617 -812291674 -1166146178 336645915 -577517854 1719800490 1223546783 52640213 -1493688389 438331768 1640545733 -1567339591 250336479 118616306 849719108 -514955291 1929352736 -396635657 1707119810 -1752292796 -432428098 -1437529554 1367553754 1571657206
REM
CELL 1.54180   50.00000   50.00000   50.00000   90.00000   90.00000   90.00000
LATT -1
SFAC C  
C      1  0.4818480000000  0.5441170000000  0.4608070000000 1.0
C      1  0.5141150000000  0.4460820000000  0.4605930000000 1.0
C      1  0.5140870000000  0.5516480000000  0.4643940000000 1.0
C      1  0.4810200000000  0.4536830000000  0.4627970000000 1.0
C      1  0.5216810000000  0.4491750000000  0.5905140000000 1.0
C      1  0.4896320000000  0.5610710000000  0.5903310000000 1.0
C      1  0.4928540000000  0.4420650000000  0.5880320000000 1.0
C      1  0.5201240000000  0.5587900000000  0.5929240000000 1.0
C      1  0.4660420000000  0.4859960000000  0.4003910000000 1.0
C      1  0.5381440000000  0.5196210000000  0.3980750000000 1.0
C      1  0.5385000000000  0.4926420000000  0.4029770000000 1.0
C      1  0.4667750000000  0.5089080000000  0.3860080000000 1.0
C      1  0.5221980000000  0.5742630000000  0.5310660000000 1.0
C      1  0.4708810000000  0.4250670000000  0.5425760000000 1.0
C      1  0.4693090000000  0.5784430000000  0.5386190000000 1.0
C      1  0.5278840000000  0.4159850000000  0.5359810000000 1.0
C      1  0.4106990000000  0.5514640000000  0.5076220000000 1.0
C      1  0.5768890000000  0.4445600000000  0.5114080000000 1.0
C      1  0.5844340000000  0.5495130000000  0.5241490000000 1.0
C      1  0.4169230000000  0.4479370000000  0.5152250000000 1.0
C      1  0.6104790000000  0.4768530000000  0.4960200000000 1.0
C      1  0.3834900000000  0.5156240000000  0.4860250000000 1.0
C      1  0.3985230000000  0.4856460000000  0.4858110000000 1.0
C      1  0.6061000000000  0.5069000000000  0.4987060000000 1.0
C      1  0.4185660000000  0.5306720000000  0.5564660000000 1.0
C      1  0.5819470000000  0.4522150000000  0.5652030000000 1.0
C      1  0.5743630000000  0.5520700000000  0.5544270000000 1.0
C      1  0.4146220000000  0.4698650000000  0.5591150000000 1.0
C      1  0.5969530000000  0.5346040000000  0.4836480000000 1.0
C      1  0.4017160000000  0.4531700000000  0.4762290000000 1.0
C      1  0.3885530000000  0.5472880000000  0.4747000000000 1.0
C      1  0.5992810000000  0.4551890000000  0.4780230000000 1.0
C      1  0.4846730000000  0.5827230000000  0.5660790000000 1.0
C      1  0.5111880000000  0.4040420000000  0.5598740000000 1.0
C      1  0.5087730000000  0.5933090000000  0.5558310000000 1.0
C      1  0.4886830000000  0.4182670000000  0.5672470000000 1.0
C      1  0.4387070000000  0.5752880000000  0.5442410000000 1.0
C      1  0.5583760000000  0.4139410000000  0.5423960000000 1.0
C      1  0.5534820000000  0.5867410000000  0.5326480000000 1.0
C      1  0.4407890000000  0.4256010000000  0.5479340000000 1.0
C      1  0.4694970000000  0.5186820000000  0.4791180000000 1.0
C      1  0.5240830000000  0.4772870000000  0.4697100000000 1.0
C      1  0.5281480000000  0.5217820000000  0.4710170000000 1.0
C      1  0.4747520000000  0.4860290000000  0.4711900000000 1.0
C      1  0.4681160000000  0.5992170000000  0.4913980000000 1.0
C      1  0.5302530000000  0.4069760000000  0.4835590000000 1.0
C      1  0.5172480000000  0.6029140000000  0.4880790000000 1.0
C      1  0.4742100000000  0.4033150000000  0.4851050000000 1.0
C      1  0.5758180000000  0.5133890000000  0.5100140000000 1.0
C      1  0.4301230000000  0.4960810000000  0.4927640000000 1.0
C      1  0.4352030000000  0.5290540000000  0.5002930000000 1.0
C      1  0.5638430000000  0.4880780000000  0.4976990000000 1.0
C      1  0.5367990000000  0.4506380000000  0.4356470000000 1.0
C      1  0.4617770000000  0.5516940000000  0.4344090000000 1.0
C      1  0.4632130000000  0.4509680000000  0.4339530000000 1.0
C      1  0.5319340000000  0.5629290000000  0.4230920000000 1.0
C      1  0.4313600000000  0.5411570000000  0.4233860000000 1.0
C      1  0.5687260000000  0.4490320000000  0.4238750000000 1.0
C      1  0.5797960000000  0.5275540000000  0.4148530000000 1.0
C      1  0.4336810000000  0.4591040000000  0.4191490000000 1.0
C      1  0.4834450000000  0.4558880000000  0.5439500000000 1.0
C      1  0.5215080000000  0.5436070000000  0.5460780000000 1.0
C      1  0.5236020000000  0.4497850000000  0.5385250000000 1.0
C      1  0.4764570000000  0.5453590000000  0.5352560000000 1.0
C      1  0.4801920000000  0.5974580000000  0.5159270000000 1.0
C      1  0.5192450000000  0.4017270000000  0.5092130000000 1.0
C      1  0.5077410000000  0.5992170000000  0.5134220000000 1.0
C      1  0.4908070000000  0.3933480000000  0.5076270000000 1.0
C      1  0.4211100000000  0.4235830000000  0.5283460000000 1.0
C      1  0.5756280000000  0.5804210000000  0.5178030000000 1.0
C      1  0.5752520000000  0.4183140000000  0.5208640000000 1.0
C      1  0.4180880000000  0.5742440000000  0.5270920000000 1.0
C      1  0.4882760000000  0.4683660000000  0.3972800000000 1.0
C      1  0.5179760000000  0.5350580000000  0.3862270000000 1.0
C      1  0.5126250000000  0.4794540000000  0.4033670000000 1.0
C      1  0.4874620000000  0.5288940000000  0.3955240000000 1.0
C      1  0.5718720000000  0.4374960000000  0.4673380000000 1.0
C      1  0.4183020000000  0.5613250000000  0.4780380000000 1.0
C      1  0.4265410000000  0.4414580000000  0.4772050000000 1.0
C      1  0.5695470000000  0.5513100000000  0.4718640000000 1.0
C      1  0.3954590000000  0.5133200000000  0.5388120000000 1.0
C      1  0.5976690000000  0.4739240000000  0.5450850000000 1.0
C      1  0.6122720000000  0.5043270000000  0.5466500000000 1.0
C      1  0.3967660000000  0.4814820000000  0.5402930000000 1.0
C      1  0.5802870000000  0.5096120000000  0.5427360000000 1.0
C      1  0.4391460000000  0.4826180000000  0.5218590000000 1.0
C      1  0.4274610000000  0.5125910000000  0.5290170000000 1.0
C      1  0.5675590000000  0.4808180000000  0.5308420000000 1.0
C      1  0.5088130000000  0.5851780000000  0.4623800000000 1.0
C      1  0.4809880000000  0.4074960000000  0.4571260000000 1.0
C      1  0.4779550000000  0.5923230000000  0.4630490000000 1.0
C      1  0.5122020000000  0.4125500000000  0.4552820000000 1.0
C      1  0.5346000000000  0.5796580000000  0.4446080000000 1.0
C      1  0.4587300000000  0.4203820000000  0.4450210000000 1.0
C      1  0.4579080000000  0.5813590000000  0.4464580000000 1.0
C      1  0.5421300000000  0.4074220000000  0.4409670000000 1.0
C      1  0.4771040000000  0.4846930000000  0.5539830000000 1.0
C      1  0.5333350000000  0.5132270000000  0.5553140000000 1.0
C      1  0.5310900000000  0.4791230000000  0.5540540000000 1.0
C      1  0.4672300000000  0.5130030000000  0.5401700000000 1.0
C      1  0.3981450000000  0.4690200000000  0.5154740000000 1.0
C      1  0.6093490000000  0.5294950000000  0.5239080000000 1.0
C      1  0.5992310000000  0.4605150000000  0.5175160000000 1.0
C      1  0.3889780000000  0.5304090000000  0.5130600000000 1.0
C      1  0.4604180000000  0.5453410000000  0.5074980000000 1.0
C      1  0.5489870000000  0.4602890000000  0.5023290000000 1.0
C      1  0.5571090000000  0.5375910000000  0.5071950000000 1.0
C      1  0.4459740000000  0.4572840000000  0.5002120000000 1.0
C      1  0.4895820000000  0.5238490000000  0.4273500000000 1.0
C      1  0.5184490000000  0.4861390000000  0.4369390000000 1.0
C      1  0.5199540000000  0.5200270000000  0.4386550000000 1.0
C      1  0.4900080000000  0.4942760000000  0.4440970000000 1.0
C      1  0.5549330000000  0.4863960000000  0.4648890000000 1.0
C      1  0.4388550000000  0.5264700000000  0.4665800000000 1.0
C      1  0.4419020000000  0.4869080000000  0.4624660000000 1.0
C      1  0.5564710000000  0.5180880000000  0.4542640000000 1.0
C      1  0.5633830000000  0.4789110000000  0.5645990000000 1.0
C      1  0.4442320000000  0.5149360000000  0.5651500000000 1.0
C      1  0.4445820000000  0.4836830000000  0.5551560000000 1.0
C      1  0.5634490000000  0.5249890000000  0.5628640000000 1.0
C      1  0.5295060000000  0.5176830000000  0.5029170000000 1.0
C      1  0.4739330000000  0.4764370000000  0.5032800000000 1.0
C      1  0.4798710000000  0.5095130000000  0.5087960000000 1.0
C      1  0.5245250000000  0.4840520000000  0.5022050000000 1.0
C      1  0.5170620000000  0.4877810000000  0.5813740000000 1.0
C      1  0.4842430000000  0.5211900000000  0.5864360000000 1.0
C      1  0.4861390000000  0.4882090000000  0.5821150000000 1.0
C      1  0.5160480000000  0.5202800000000  0.5834170000000 1.0
C      1  0.5793760000000  0.4678130000000  0.4572900000000 1.0
C      1  0.4078100000000  0.5166690000000  0.4623630000000 1.0
C      1  0.4106210000000  0.4851190000000  0.4539470000000 1.0
C      1  0.5865070000000  0.5277950000000  0.4540690000000 1.0
C      1  0.5551720000000  0.4893910000000  0.5930440000000 1.0
C      1  0.4524840000000  0.5153180000000  0.5971000000000 1.0
C      1  0.4472090000000  0.4835160000000  0.5895590000000 1.0
C      1  0.5549010000000  0.5173840000000  0.5924230000000 1.0
C      1  0.5562800000000  0.5732790000000  0.5586730000000 1.0
C      1  0.4339130000000  0.4469380000000  0.5665600000000 1.0
C      1  0.4390810000000  0.5543410000000  0.5635840000000 1.0
C      1  0.5627580000000  0.4314070000000  0.5647230000000 1.0
C      1  0.4352060000000  0.4205590000000  0.4608580000000 1.0
C      1  0.5580450000000  0.5778440000000  0.4582430000000 1.0
C      1  0.5647910000000  0.4227270000000  0.4407040000000 1.0
C      1  0.4297800000000  0.5843150000000  0.4572480000000 1.0
C      1  0.4482860000000  0.5758070000000  0.4847610000000 1.0
C      1  0.5447210000000  0.4354270000000  0.4840110000000 1.0
C      1  0.5393270000000  0.5563790000000  0.4867330000000 1.0
C      1  0.4697810000000  0.4369360000000  0.4871930000000 1.0
C      1  0.4603490000000  0.4848700000000  0.4339060000000 1.0
C      1  0.5481090000000  0.5339830000000  0.4253860000000 1.0
C      1  0.5497680000000  0.4818100000000  0.4315880000000 1.0
C      1  0.4588210000000  0.5183890000000  0.4406700000000 1.0
C      1  0.5126680000000  0.4409480000000  0.4941870000000 1.0
C      1  0.4787360000000  0.5609160000000  0.4877480000000 1.0
C      1  0.4883800000000  0.4267150000000  0.5137580000000 1.0
C      1  0.5093870000000  0.5608420000000  0.5025640000000 1.0
C      1  0.5338800000000  0.5352080000000  0.6054720000000 1.0
C      1  0.4718210000000  0.4648000000000  0.6015820000000 1.0
C      1  0.4707720000000  0.5411680000000  0.6104390000000 1.0
C      1  0.5328320000000  0.4727270000000  0.6052840000000 1.0
C      1  0.4192390000000  0.4831900000000  0.4235650000000 1.0
C      1  0.5940260000000  0.5054120000000  0.4292260000000 1.0
C      1  0.5889310000000  0.4762220000000  0.4290500000000 1.0
C      1  0.4187830000000  0.5165380000000  0.4306750000000 1.0
C      1  0.4862290000000  0.4455940000000  0.4130930000000 1.0
C      1  0.5111670000000  0.5596920000000  0.4038780000000 1.0
C      1  0.5107640000000  0.4364680000000  0.4210880000000 1.0
C      1  0.4806380000000  0.5582690000000  0.4095580000000 1.0
C      1  0.5364340000000  0.4421850000000  0.5683740000000 1.0
C      1  0.4691980000000  0.5459130000000  0.5682930000000 1.0
C      1  0.4639600000000  0.4514770000000  0.5716340000000 1.0
C      1  0.5320150000000  0.5634500000000  0.5682920000000 1.0
C      1  0.5035570000000  0.5320160000000  0.5196270000000 1.0
C      1  0.5019050000000  0.4641330000000  0.5166130000000 1.0
END
