TITL C-3289329-2751-55 0.00409566169318818 125000 -755.264431809157 0 0 139 (C1) n - 1
REM
REM in /nfs/bkarasulu/CARBON/AIRSS/Generating-Clusters/AIREBO/with-SteepDescent/Higher-Symm/SD-CG/HFTN-CG
REM
REM
REM
REM
REM
REM ./C.cell (b20cbc046b6831c77cfcea5457e17084)
REM
REM compiler GCC version 9.2.1 20190827 (Red Hat 9.2.1-1)
REM options -cpp -mtune=generic -march=x86-64 -g -O0 -fpre-include=/usr/include/finclude/math-vector-fortran.h
REM seed -1333652275 1463894497 -1075873858 1710733472 -1498778300 -1083850903 -983539339 695431441 -1724495621 1550533505 690502733 -678181486 -469872727 580928925 720673088 -1100420993 -1142127048 -169945080 -884364897 375642583 230243563 -1248516061 -107804847 -1655325936 -669408781 102755333 995244312 -47050976 2044717422 -2002938398 -412393130 1107086578 187035749
REM
CELL 1.54180   50.00000   50.00000   50.00000   90.00000   90.00000   90.00000
LATT -1
SFAC C  
C      1  0.5572530000000  0.4963010000000  0.4394010000000 1.0
C      1  0.5552380000000  0.4376080000000  0.4662680000000 1.0
C      1  0.5535850000000  0.4299820000000  0.5420160000000 1.0
C      1  0.5513710000000  0.5014510000000  0.5649710000000 1.0
C      1  0.5523610000000  0.5620650000000  0.5345620000000 1.0
C      1  0.5572050000000  0.5510550000000  0.4458240000000 1.0
C      1  0.4911730000000  0.4724250000000  0.5124600000000 1.0
C      1  0.4780880000000  0.4934540000000  0.5359210000000 1.0
C      1  0.4881010000000  0.5219280000000  0.5202660000000 1.0
C      1  0.4909880000000  0.5288000000000  0.4915090000000 1.0
C      1  0.4739480000000  0.5104230000000  0.4702920000000 1.0
C      1  0.4889850000000  0.4821590000000  0.4818100000000 1.0
C      1  0.4940820000000  0.4272570000000  0.4487360000000 1.0
C      1  0.4897550000000  0.4216810000000  0.5378970000000 1.0
C      1  0.4794360000000  0.4887800000000  0.5917910000000 1.0
C      1  0.4921260000000  0.5802760000000  0.5536490000000 1.0
C      1  0.4966200000000  0.5762340000000  0.4645840000000 1.0
C      1  0.4757680000000  0.5103670000000  0.4046540000000 1.0
C      1  0.5306900000000  0.5264460000000  0.5883490000000 1.0
C      1  0.5276340000000  0.5887720000000  0.5229970000000 1.0
C      1  0.5308570000000  0.5587200000000  0.4316140000000 1.0
C      1  0.5330260000000  0.4770830000000  0.4141190000000 1.0
C      1  0.5346470000000  0.4047340000000  0.4755020000000 1.0
C      1  0.5300730000000  0.4339110000000  0.5650880000000 1.0
C      1  0.4069350000000  0.4865310000000  0.4463950000000 1.0
C      1  0.4218910000000  0.4413010000000  0.4876750000000 1.0
C      1  0.4140510000000  0.4567500000000  0.5479080000000 1.0
C      1  0.4145460000000  0.5188380000000  0.5542860000000 1.0
C      1  0.4227670000000  0.5661540000000  0.5086440000000 1.0
C      1  0.4174110000000  0.5471610000000  0.4488960000000 1.0
C      1  0.5226090000000  0.5312380000000  0.4163640000000 1.0
C      1  0.5211480000000  0.4490740000000  0.4293020000000 1.0
C      1  0.5279820000000  0.4066130000000  0.5041280000000 1.0
C      1  0.5216860000000  0.4601660000000  0.5827300000000 1.0
C      1  0.5233740000000  0.5505720000000  0.5790340000000 1.0
C      1  0.5229460000000  0.5930930000000  0.4894000000000 1.0
C      1  0.5211430000000  0.4594470000000  0.5029880000000 1.0
C      1  0.5305260000000  0.4723080000000  0.5313560000000 1.0
C      1  0.5158210000000  0.5155730000000  0.5357680000000 1.0
C      1  0.5193150000000  0.5416120000000  0.4965780000000 1.0
C      1  0.5235610000000  0.5230960000000  0.4683710000000 1.0
C      1  0.5178320000000  0.4833320000000  0.4667410000000 1.0
C      1  0.4479350000000  0.4723120000000  0.4424770000000 1.0
C      1  0.4607220000000  0.4507230000000  0.4861820000000 1.0
C      1  0.4653940000000  0.4656860000000  0.5498750000000 1.0
C      1  0.4539940000000  0.5246770000000  0.5568130000000 1.0
C      1  0.4609000000000  0.5507650000000  0.5161880000000 1.0
C      1  0.4673800000000  0.5343040000000  0.4469410000000 1.0
C      1  0.5928180000000  0.5033860000000  0.5264350000000 1.0
C      1  0.5613920000000  0.5128870000000  0.5175970000000 1.0
C      1  0.5778460000000  0.5226290000000  0.4894480000000 1.0
C      1  0.5919070000000  0.4989670000000  0.4722060000000 1.0
C      1  0.5630090000000  0.4860140000000  0.4845840000000 1.0
C      1  0.5779940000000  0.4769560000000  0.5126600000000 1.0
C      1  0.5835240000000  0.5554730000000  0.4907490000000 1.0
C      1  0.5880350000000  0.5220060000000  0.4472650000000 1.0
C      1  0.5870540000000  0.4683640000000  0.4581630000000 1.0
C      1  0.5908090000000  0.4473310000000  0.5069170000000 1.0
C      1  0.5962480000000  0.4801710000000  0.5480590000000 1.0
C      1  0.5871310000000  0.5336640000000  0.5399720000000 1.0
C      1  0.4586700000000  0.4901720000000  0.4085740000000 1.0
C      1  0.4653540000000  0.4177050000000  0.4643580000000 1.0
C      1  0.4631260000000  0.4264870000000  0.5573150000000 1.0
C      1  0.4589500000000  0.5086370000000  0.5926440000000 1.0
C      1  0.4630830000000  0.5831230000000  0.5392530000000 1.0
C      1  0.4709890000000  0.5738060000000  0.4423050000000 1.0
C      1  0.4779820000000  0.5797390000000  0.5111730000000 1.0
C      1  0.4897100000000  0.5507880000000  0.4278400000000 1.0
C      1  0.4723300000000  0.4645240000000  0.4208870000000 1.0
C      1  0.4768170000000  0.4217230000000  0.4936780000000 1.0
C      1  0.4866840000000  0.4473190000000  0.5683960000000 1.0
C      1  0.4735800000000  0.5363950000000  0.5820150000000 1.0
C      1  0.4089350000000  0.4898190000000  0.5413160000000 1.0
C      1  0.4095730000000  0.5447760000000  0.5323230000000 1.0
C      1  0.4141060000000  0.5480690000000  0.4811630000000 1.0
C      1  0.4130270000000  0.5146490000000  0.4578660000000 1.0
C      1  0.4132000000000  0.4657160000000  0.4654520000000 1.0
C      1  0.4128140000000  0.4604280000000  0.5145650000000 1.0
C      1  0.4333190000000  0.4985240000000  0.4276220000000 1.0
C      1  0.4386020000000  0.4280200000000  0.4618360000000 1.0
C      1  0.4392780000000  0.4362390000000  0.5428310000000 1.0
C      1  0.4359250000000  0.4998780000000  0.5715870000000 1.0
C      1  0.4367680000000  0.5730930000000  0.5388520000000 1.0
C      1  0.4448330000000  0.5661470000000  0.4555770000000 1.0
C      1  0.4418490000000  0.5071110000000  0.4744130000000 1.0
C      1  0.4433290000000  0.4741280000000  0.4761290000000 1.0
C      1  0.4364030000000  0.4837270000000  0.5080090000000 1.0
C      1  0.4457900000000  0.5032430000000  0.5317020000000 1.0
C      1  0.4383920000000  0.5314170000000  0.5206290000000 1.0
C      1  0.4266610000000  0.5255370000000  0.4935780000000 1.0
C      1  0.5522070000000  0.5363630000000  0.4749550000000 1.0
C      1  0.5438800000000  0.4975320000000  0.4650280000000 1.0
C      1  0.5515300000000  0.4571060000000  0.4903480000000 1.0
C      1  0.5550660000000  0.4543990000000  0.5233740000000 1.0
C      1  0.5407940000000  0.5004720000000  0.5363460000000 1.0
C      1  0.5489560000000  0.5415590000000  0.5091350000000 1.0
C      1  0.5834980000000  0.4285640000000  0.5343100000000 1.0
C      1  0.5825370000000  0.4900590000000  0.5702510000000 1.0
C      1  0.5810530000000  0.5650400000000  0.5525700000000 1.0
C      1  0.5638720000000  0.5740080000000  0.4696690000000 1.0
C      1  0.5743620000000  0.5150890000000  0.4169090000000 1.0
C      1  0.5824380000000  0.4369430000000  0.4458720000000 1.0
C      1  0.6007580000000  0.4551240000000  0.5385900000000 1.0
C      1  0.5773540000000  0.5214490000000  0.5676800000000 1.0
C      1  0.5829140000000  0.5601400000000  0.5190570000000 1.0
C      1  0.5879850000000  0.5516070000000  0.4576320000000 1.0
C      1  0.5906090000000  0.4903150000000  0.4335960000000 1.0
C      1  0.5872220000000  0.4421610000000  0.4791290000000 1.0
C      1  0.4740050000000  0.4468470000000  0.5247780000000 1.0
C      1  0.4971920000000  0.4942980000000  0.5640580000000 1.0
C      1  0.4858290000000  0.5503290000000  0.5388330000000 1.0
C      1  0.4765790000000  0.5501600000000  0.4737580000000 1.0
C      1  0.4887630000000  0.5007520000000  0.4414140000000 1.0
C      1  0.4863510000000  0.4513710000000  0.4687040000000 1.0
C      1  0.5076660000000  0.5684740000000  0.5058150000000 1.0
C      1  0.5062860000000  0.5259940000000  0.4444440000000 1.0
C      1  0.4977940000000  0.4699120000000  0.4427690000000 1.0
C      1  0.5067190000000  0.4327490000000  0.5035570000000 1.0
C      1  0.5099010000000  0.4654670000000  0.5512800000000 1.0
C      1  0.4947490000000  0.5266120000000  0.5592390000000 1.0
C      1  0.4389530000000  0.4722510000000  0.5609370000000 1.0
C      1  0.4306990000000  0.5484600000000  0.5585150000000 1.0
C      1  0.4495950000000  0.5647740000000  0.4876520000000 1.0
C      1  0.4410210000000  0.5287970000000  0.4345520000000 1.0
C      1  0.4342520000000  0.4435010000000  0.4395950000000 1.0
C      1  0.4451840000000  0.4374210000000  0.5121390000000 1.0
C      1  0.5276160000000  0.4268740000000  0.4545100000000 1.0
C      1  0.5230880000000  0.4168310000000  0.5362840000000 1.0
C      1  0.5265540000000  0.4938030000000  0.5815690000000 1.0
C      1  0.5241670000000  0.5688810000000  0.5503950000000 1.0
C      1  0.5306020000000  0.5762790000000  0.4608300000000 1.0
C      1  0.5413670000000  0.5074900000000  0.4124250000000 1.0
C      1  0.4904390000000  0.4386620000000  0.4190680000000 1.0
C      1  0.4954620000000  0.4009990000000  0.5124470000000 1.0
C      1  0.4911940000000  0.4622270000000  0.5963980000000 1.0
C      1  0.4949260000000  0.5606320000000  0.5798530000000 1.0
C      1  0.4894140000000  0.5982830000000  0.4871950000000 1.0
C      1  0.4929410000000  0.5306050000000  0.4022760000000 1.0
C      1  0.4037340000000  0.4930360000000  0.5094910000000 1.0
END
