TITL C-3289323-3850-658 4.6394673563417e-05 125000 -442.688232317317 0 0 78 (C1) n - 1
REM
REM in /nfs/bkarasulu/CARBON/AIRSS/Generating-Clusters/AIREBO/with-SteepDescent/Higher-Symm/SD-CG/HFTN-CG
REM
REM
REM
REM
REM
REM ./C.cell (b20cbc046b6831c77cfcea5457e17084)
REM
REM compiler GCC version 9.2.1 20190827 (Red Hat 9.2.1-1)
REM options -cpp -mtune=generic -march=x86-64 -g -O0 -fpre-include=/usr/include/finclude/math-vector-fortran.h
REM seed -1289332185 -1382005258 2047547971 -524251965 -628177179 30809800 1177137335 21935549 496578606 1803577120 1219373620 -1503386181 556494007 -241454696 239743347 1183178072 -1235738079 2088505268 -1662343348 1481660559 1080988261 -1459898388 1129688649 -663333439 -990640545 355603015 -963788855 -1966774933 -210804597 -257574252 -1561145134 25430770 -1360012686
REM
CELL 1.54180   50.00000   50.00000   50.00000   90.00000   90.00000   90.00000
LATT -1
SFAC C  
C      1  0.5831520000000  0.5338820000000  0.4610540000000 1.0
C      1  0.6011370000000  0.4745160000000  0.4576610000000 1.0
C      1  0.5722890000000  0.4421590000000  0.5084720000000 1.0
C      1  0.5801340000000  0.4841750000000  0.5568120000000 1.0
C      1  0.5761980000000  0.5583710000000  0.5205810000000 1.0
C      1  0.5588610000000  0.5429920000000  0.4495720000000 1.0
C      1  0.5877820000000  0.4759760000000  0.4338990000000 1.0
C      1  0.5457130000000  0.4319460000000  0.5092650000000 1.0
C      1  0.5557850000000  0.4875690000000  0.5706260000000 1.0
C      1  0.5512480000000  0.5675020000000  0.5274930000000 1.0
C      1  0.5240940000000  0.5537200000000  0.5238260000000 1.0
C      1  0.5271050000000  0.5307720000000  0.4495550000000 1.0
C      1  0.5642750000000  0.4886220000000  0.4280490000000 1.0
C      1  0.5191950000000  0.4423550000000  0.4988370000000 1.0
C      1  0.5275120000000  0.4916960000000  0.5572930000000 1.0
C      1  0.5236730000000  0.4373840000000  0.4691010000000 1.0
C      1  0.5398020000000  0.4734210000000  0.5369220000000 1.0
C      1  0.5397920000000  0.5323310000000  0.5422750000000 1.0
C      1  0.5297360000000  0.5501170000000  0.4758380000000 1.0
C      1  0.5401640000000  0.4925060000000  0.4422230000000 1.0
C      1  0.4384630000000  0.4898500000000  0.5253990000000 1.0
C      1  0.4298390000000  0.5422420000000  0.5178180000000 1.0
C      1  0.4327750000000  0.5189860000000  0.4693990000000 1.0
C      1  0.4345510000000  0.4885390000000  0.4757560000000 1.0
C      1  0.4376500000000  0.4626000000000  0.5186020000000 1.0
C      1  0.5436750000000  0.4997160000000  0.4701430000000 1.0
C      1  0.5495630000000  0.4518780000000  0.4748210000000 1.0
C      1  0.5459500000000  0.4878510000000  0.5142460000000 1.0
C      1  0.5323340000000  0.5154870000000  0.5155630000000 1.0
C      1  0.5373580000000  0.5223760000000  0.4867340000000 1.0
C      1  0.4894620000000  0.4845000000000  0.4361050000000 1.0
C      1  0.4825700000000  0.4255940000000  0.4835380000000 1.0
C      1  0.4733600000000  0.4579020000000  0.5724730000000 1.0
C      1  0.4711040000000  0.5539650000000  0.5651450000000 1.0
C      1  0.4725340000000  0.5698970000000  0.4625340000000 1.0
C      1  0.4504700000000  0.5284600000000  0.4496510000000 1.0
C      1  0.4529210000000  0.4717030000000  0.4643990000000 1.0
C      1  0.4559250000000  0.4411720000000  0.5206120000000 1.0
C      1  0.4524370000000  0.4953080000000  0.5492570000000 1.0
C      1  0.4509630000000  0.5608830000000  0.5218080000000 1.0
C      1  0.4634410000000  0.4235340000000  0.4637650000000 1.0
C      1  0.4649380000000  0.4321990000000  0.5679250000000 1.0
C      1  0.4554920000000  0.5365470000000  0.5793680000000 1.0
C      1  0.4606390000000  0.5873240000000  0.4796840000000 1.0
C      1  0.4712110000000  0.4961670000000  0.4179890000000 1.0
C      1  0.5007850000000  0.4819380000000  0.5386160000000 1.0
C      1  0.4969260000000  0.5397790000000  0.5230280000000 1.0
C      1  0.4998480000000  0.5244490000000  0.4689810000000 1.0
C      1  0.4941950000000  0.4956040000000  0.4866660000000 1.0
C      1  0.4990430000000  0.4684410000000  0.5073720000000 1.0
C      1  0.4527340000000  0.5156950000000  0.4244230000000 1.0
C      1  0.4489900000000  0.4453760000000  0.4554220000000 1.0
C      1  0.4550150000000  0.4245820000000  0.5434090000000 1.0
C      1  0.4448530000000  0.5138070000000  0.5687310000000 1.0
C      1  0.4524060000000  0.5836700000000  0.5054030000000 1.0
C      1  0.5466260000000  0.4487720000000  0.5456750000000 1.0
C      1  0.5561960000000  0.5420530000000  0.5615710000000 1.0
C      1  0.5310740000000  0.5763530000000  0.4711430000000 1.0
C      1  0.5167910000000  0.4801200000000  0.4330310000000 1.0
C      1  0.5132880000000  0.4253220000000  0.4480520000000 1.0
C      1  0.5947350000000  0.4849390000000  0.5318460000000 1.0
C      1  0.5912140000000  0.5370900000000  0.5127760000000 1.0
C      1  0.5932270000000  0.5173190000000  0.4867790000000 1.0
C      1  0.5891190000000  0.4853960000000  0.4838790000000 1.0
C      1  0.5877370000000  0.4666240000000  0.5104190000000 1.0
C      1  0.4738070000000  0.5425860000000  0.4577030000000 1.0
C      1  0.4792410000000  0.4816470000000  0.4621170000000 1.0
C      1  0.4798160000000  0.4425820000000  0.5055920000000 1.0
C      1  0.4756870000000  0.4796960000000  0.5550690000000 1.0
C      1  0.4738490000000  0.5539230000000  0.5374280000000 1.0
C      1  0.5582830000000  0.4794270000000  0.4866400000000 1.0
C      1  0.3954260000000  0.5054440000000  0.5028720000000 1.0
C      1  0.6033590000000  0.5097500000000  0.5208580000000 1.0
C      1  0.4830980000000  0.5330570000000  0.4952460000000 1.0
C      1  0.4271930000000  0.5121230000000  0.5022530000000 1.0
C      1  0.5021310000000  0.5065670000000  0.5178760000000 1.0
C      1  0.4600900000000  0.5198270000000  0.4984560000000 1.0
C      1  0.3704730000000  0.5001390000000  0.5033970000000 1.0
END
