TITL C-3289326-3776-342 -0.00351718292275085 125000 -892.856276817885 0 0 162 (C1) n - 1
REM
REM in /nfs/bkarasulu/CARBON/AIRSS/Generating-Clusters/AIREBO/with-SteepDescent/Higher-Symm/SD-CG/HFTN-CG
REM
REM
REM
REM
REM
REM ./C.cell (b20cbc046b6831c77cfcea5457e17084)
REM
REM compiler GCC version 9.2.1 20190827 (Red Hat 9.2.1-1)
REM options -cpp -mtune=generic -march=x86-64 -g -O0 -fpre-include=/usr/include/finclude/math-vector-fortran.h
REM seed -1054950122 438929943 -1374790923 -1160289793 850531787 1241756648 -34804577 682770853 -779985939 1722283567 -843498166 -1130039831 -1908243463 1824528500 2081491473 -1818189325 -35209130 1426808906 1078328010 -429991101 1909166783 736655014 -862570902 452415284 -88446611 -1235265484 -345756278 1821887525 496491267 675453128 -1127624552 1372935921 2052033451
REM
CELL 1.54180   50.00000   50.00000   50.00000   90.00000   90.00000   90.00000
LATT -1
SFAC C  
C      1  0.5411940000000  0.4769570000000  0.4517790000000 1.0
C      1  0.4385040000000  0.4857550000000  0.4905550000000 1.0
C      1  0.5231430000000  0.4736610000000  0.5575520000000 1.0
C      1  0.4905730000000  0.4347040000000  0.5848800000000 1.0
C      1  0.5718700000000  0.4392600000000  0.4674210000000 1.0
C      1  0.4186750000000  0.4441290000000  0.4603550000000 1.0
C      1  0.4156660000000  0.4712550000000  0.4506360000000 1.0
C      1  0.4881450000000  0.4624610000000  0.5919740000000 1.0
C      1  0.5780300000000  0.4650920000000  0.4610370000000 1.0
C      1  0.4923390000000  0.5390080000000  0.5180450000000 1.0
C      1  0.5207210000000  0.5273410000000  0.5039520000000 1.0
C      1  0.4978520000000  0.5508660000000  0.4805020000000 1.0
C      1  0.5424780000000  0.4341210000000  0.4176970000000 1.0
C      1  0.4289170000000  0.4390750000000  0.5170950000000 1.0
C      1  0.5555630000000  0.4407580000000  0.5697230000000 1.0
C      1  0.5417680000000  0.4324130000000  0.5968430000000 1.0
C      1  0.5638400000000  0.4170630000000  0.4233350000000 1.0
C      1  0.4066020000000  0.4202170000000  0.5018350000000 1.0
C      1  0.4533920000000  0.5311310000000  0.4055040000000 1.0
C      1  0.4534420000000  0.5247760000000  0.5850910000000 1.0
C      1  0.5987110000000  0.5296880000000  0.4942160000000 1.0
C      1  0.5272010000000  0.4437410000000  0.5230470000000 1.0
C      1  0.4964100000000  0.4471980000000  0.4684050000000 1.0
C      1  0.4791490000000  0.4438790000000  0.4960630000000 1.0
C      1  0.5537070000000  0.5467610000000  0.4808110000000 1.0
C      1  0.4592210000000  0.5365310000000  0.4576800000000 1.0
C      1  0.4888130000000  0.5378160000000  0.5578530000000 1.0
C      1  0.4861450000000  0.4286520000000  0.5524990000000 1.0
C      1  0.5479270000000  0.4341880000000  0.4902330000000 1.0
C      1  0.4489590000000  0.4391010000000  0.4702970000000 1.0
C      1  0.5608630000000  0.4902490000000  0.4761620000000 1.0
C      1  0.4423640000000  0.4912690000000  0.4571820000000 1.0
C      1  0.4927290000000  0.4850520000000  0.5669780000000 1.0
C      1  0.4781710000000  0.4298670000000  0.4050160000000 1.0
C      1  0.4278170000000  0.4381900000000  0.5640690000000 1.0
C      1  0.5909750000000  0.4443440000000  0.5217380000000 1.0
C      1  0.4571320000000  0.4731460000000  0.4324060000000 1.0
C      1  0.4646040000000  0.4714470000000  0.5549400000000 1.0
C      1  0.5839360000000  0.4784880000000  0.4982010000000 1.0
C      1  0.6033140000000  0.5243940000000  0.5232760000000 1.0
C      1  0.4731760000000  0.5128280000000  0.3961420000000 1.0
C      1  0.4243930000000  0.5122010000000  0.5737310000000 1.0
C      1  0.4711840000000  0.5104250000000  0.5598820000000 1.0
C      1  0.5577150000000  0.5153340000000  0.4948040000000 1.0
C      1  0.4634720000000  0.5116710000000  0.4399360000000 1.0
C      1  0.5406670000000  0.5636170000000  0.5784200000000 1.0
C      1  0.5453600000000  0.5631540000000  0.4198740000000 1.0
C      1  0.4196240000000  0.5675830000000  0.5071350000000 1.0
C      1  0.5233930000000  0.4992150000000  0.4007010000000 1.0
C      1  0.4063820000000  0.4997240000000  0.5226160000000 1.0
C      1  0.5672610000000  0.5009150000000  0.5688600000000 1.0
C      1  0.5721430000000  0.5435250000000  0.5071810000000 1.0
C      1  0.4636160000000  0.5574080000000  0.4037620000000 1.0
C      1  0.4341880000000  0.5505510000000  0.5777490000000 1.0
C      1  0.5667890000000  0.4136640000000  0.4509780000000 1.0
C      1  0.4160860000000  0.4173110000000  0.4755530000000 1.0
C      1  0.5164080000000  0.4199390000000  0.5926190000000 1.0
C      1  0.4296480000000  0.5478440000000  0.4556700000000 1.0
C      1  0.5003690000000  0.5403590000000  0.5958890000000 1.0
C      1  0.5766190000000  0.5361070000000  0.4499620000000 1.0
C      1  0.4617220000000  0.4176980000000  0.5378460000000 1.0
C      1  0.5493900000000  0.4187800000000  0.5166680000000 1.0
C      1  0.4661030000000  0.4149530000000  0.4536240000000 1.0
C      1  0.4096480000000  0.5022350000000  0.4371990000000 1.0
C      1  0.4856000000000  0.4936670000000  0.6052350000000 1.0
C      1  0.5905990000000  0.4949170000000  0.4499440000000 1.0
C      1  0.4623610000000  0.5896360000000  0.4637300000000 1.0
C      1  0.4868860000000  0.5877620000000  0.5618730000000 1.0
C      1  0.5626640000000  0.5953460000000  0.4564840000000 1.0
C      1  0.5968430000000  0.5235410000000  0.4672540000000 1.0
C      1  0.4332030000000  0.5240780000000  0.4306250000000 1.0
C      1  0.4776900000000  0.5240150000000  0.6038190000000 1.0
C      1  0.4852830000000  0.4660750000000  0.4427110000000 1.0
C      1  0.4709240000000  0.4625000000000  0.5227990000000 1.0
C      1  0.5433530000000  0.4682150000000  0.5160400000000 1.0
C      1  0.3969250000000  0.5165040000000  0.4994620000000 1.0
C      1  0.5488850000000  0.5116610000000  0.5899440000000 1.0
C      1  0.5494090000000  0.5127460000000  0.4015520000000 1.0
C      1  0.5153090000000  0.4226190000000  0.4554080000000 1.0
C      1  0.4577670000000  0.4239650000000  0.5071330000000 1.0
C      1  0.5374530000000  0.4238220000000  0.5478610000000 1.0
C      1  0.4336520000000  0.4633070000000  0.5489670000000 1.0
C      1  0.5727410000000  0.4698220000000  0.5276800000000 1.0
C      1  0.4966130000000  0.4551070000000  0.4160730000000 1.0
C      1  0.5389320000000  0.6094880000000  0.4573960000000 1.0
C      1  0.4608960000000  0.6020560000000  0.4901520000000 1.0
C      1  0.5027480000000  0.6089400000000  0.5531980000000 1.0
C      1  0.4663580000000  0.5909730000000  0.5134750000000 1.0
C      1  0.5254060000000  0.6048150000000  0.5356680000000 1.0
C      1  0.5144650000000  0.5972650000000  0.4619360000000 1.0
C      1  0.4613380000000  0.5782950000000  0.5443250000000 1.0
C      1  0.5514220000000  0.5990260000000  0.5469150000000 1.0
C      1  0.4893320000000  0.5825700000000  0.4483300000000 1.0
C      1  0.5495200000000  0.5418590000000  0.4034340000000 1.0
C      1  0.3982780000000  0.5501260000000  0.5043640000000 1.0
C      1  0.5500880000000  0.5441010000000  0.5949640000000 1.0
C      1  0.5570070000000  0.4704240000000  0.5578460000000 1.0
C      1  0.5421260000000  0.4621480000000  0.4239930000000 1.0
C      1  0.4243600000000  0.4713000000000  0.5171250000000 1.0
C      1  0.4627330000000  0.5478120000000  0.5293280000000 1.0
C      1  0.5347440000000  0.5476050000000  0.5242730000000 1.0
C      1  0.4948570000000  0.5491700000000  0.4450550000000 1.0
C      1  0.4357090000000  0.4159900000000  0.5490410000000 1.0
C      1  0.5774360000000  0.4214600000000  0.5301940000000 1.0
C      1  0.4887350000000  0.4215370000000  0.4362430000000 1.0
C      1  0.4439830000000  0.5159380000000  0.4984670000000 1.0
C      1  0.5302810000000  0.5036700000000  0.5502400000000 1.0
C      1  0.5288680000000  0.5086320000000  0.4492160000000 1.0
C      1  0.4148410000000  0.4083940000000  0.5294110000000 1.0
C      1  0.5759790000000  0.4191820000000  0.5574040000000 1.0
C      1  0.5155200000000  0.4260360000000  0.4157810000000 1.0
C      1  0.4235610000000  0.5186860000000  0.5415720000000 1.0
C      1  0.5779810000000  0.5211310000000  0.5436550000000 1.0
C      1  0.4993090000000  0.5120830000000  0.4076220000000 1.0
C      1  0.4713730000000  0.5309140000000  0.4849680000000 1.0
C      1  0.5044420000000  0.5180300000000  0.5391070000000 1.0
C      1  0.5245640000000  0.5316140000000  0.4720180000000 1.0
C      1  0.5179370000000  0.5926020000000  0.5112420000000 1.0
C      1  0.5109400000000  0.5803480000000  0.4851100000000 1.0
C      1  0.4916500000000  0.5730200000000  0.5190090000000 1.0
C      1  0.4071080000000  0.4835060000000  0.5503210000000 1.0
C      1  0.5925290000000  0.4842440000000  0.5569250000000 1.0
C      1  0.5217650000000  0.4724550000000  0.4073420000000 1.0
C      1  0.4230340000000  0.5491870000000  0.5523710000000 1.0
C      1  0.5629110000000  0.5502270000000  0.5369490000000 1.0
C      1  0.4876200000000  0.5620380000000  0.4144130000000 1.0
C      1  0.4735640000000  0.4933830000000  0.5141660000000 1.0
C      1  0.5266380000000  0.4959040000000  0.5106970000000 1.0
C      1  0.4952880000000  0.4901370000000  0.4605950000000 1.0
C      1  0.5007800000000  0.4561970000000  0.5387910000000 1.0
C      1  0.5285280000000  0.4551660000000  0.4746120000000 1.0
C      1  0.4624610000000  0.4662020000000  0.4803480000000 1.0
C      1  0.5007520000000  0.4884580000000  0.5280430000000 1.0
C      1  0.5165740000000  0.4839220000000  0.4821240000000 1.0
C      1  0.4760070000000  0.4972570000000  0.4835590000000 1.0
C      1  0.5076440000000  0.5625660000000  0.5711830000000 1.0
C      1  0.5595310000000  0.5639760000000  0.4518830000000 1.0
C      1  0.4392340000000  0.5702340000000  0.4794150000000 1.0
C      1  0.4639130000000  0.4217100000000  0.3855160000000 1.0
C      1  0.4166400000000  0.4377090000000  0.5889510000000 1.0
C      1  0.6170200000000  0.4468840000000  0.5140540000000 1.0
C      1  0.5396500000000  0.4160280000000  0.4653180000000 1.0
C      1  0.4477770000000  0.4065540000000  0.4802500000000 1.0
C      1  0.5133810000000  0.4129260000000  0.5623650000000 1.0
C      1  0.5752370000000  0.5002030000000  0.4197790000000 1.0
C      1  0.3980050000000  0.5090940000000  0.4662000000000 1.0
C      1  0.5182850000000  0.5011100000000  0.6014580000000 1.0
C      1  0.5259540000000  0.5599550000000  0.4535840000000 1.0
C      1  0.4565560000000  0.5546360000000  0.5001730000000 1.0
C      1  0.5152880000000  0.5638400000000  0.5386770000000 1.0
C      1  0.5153780000000  0.5777460000000  0.4266080000000 1.0
C      1  0.4300760000000  0.5700360000000  0.5336950000000 1.0
C      1  0.5569390000000  0.5727220000000  0.5570360000000 1.0
C      1  0.4296050000000  0.4797650000000  0.4212940000000 1.0
C      1  0.4594990000000  0.4802420000000  0.5876160000000 1.0
C      1  0.6053580000000  0.4865780000000  0.4794290000000 1.0
C      1  0.5588150000000  0.5167690000000  0.4399420000000 1.0
C      1  0.4211900000000  0.5286160000000  0.4798650000000 1.0
C      1  0.5213230000000  0.5235950000000  0.5762930000000 1.0
C      1  0.5527860000000  0.5092170000000  0.5278920000000 1.0
C      1  0.4972240000000  0.5157930000000  0.4389610000000 1.0
C      1  0.4540320000000  0.5155800000000  0.5309540000000 1.0
END
