TITL C-3289326-3776-400 0.000158166806214669 125000 -439.617172939378 0 0 78 (C1) n - 1
REM
REM in /nfs/bkarasulu/CARBON/AIRSS/Generating-Clusters/AIREBO/with-SteepDescent/Higher-Symm/SD-CG/HFTN-CG
REM
REM
REM
REM
REM
REM ./C.cell (b20cbc046b6831c77cfcea5457e17084)
REM
REM compiler GCC version 9.2.1 20190827 (Red Hat 9.2.1-1)
REM options -cpp -mtune=generic -march=x86-64 -g -O0 -fpre-include=/usr/include/finclude/math-vector-fortran.h
REM seed -776504511 -1686244833 -106908203 -1180175227 640196093 -1629206658 -336073570 1129364063 -2142859303 2079884004 -1510256027 1601432878 -470549146 -694776206 1945857627 -2076915799 -892095560 -1858709266 1237241545 2118096895 -1484214727 -736005968 1370983755 597158473 2068558737 1636460249 -486846687 -1892558471 -73092301 36526079 -1297490839 1911697416 -934334664
REM
CELL 1.54180   50.00000   50.00000   50.00000   90.00000   90.00000   90.00000
LATT -1
SFAC C  
C      1  0.5633490000000  0.5149290000000  0.4492580000000 1.0
C      1  0.5633030000000  0.4674720000000  0.4653660000000 1.0
C      1  0.5627860000000  0.4524010000000  0.5160220000000 1.0
C      1  0.5775760000000  0.4876060000000  0.5554760000000 1.0
C      1  0.5689020000000  0.5375050000000  0.5430040000000 1.0
C      1  0.5735650000000  0.5528990000000  0.4906670000000 1.0
C      1  0.5752370000000  0.4880690000000  0.4482580000000 1.0
C      1  0.5664430000000  0.5375280000000  0.4667200000000 1.0
C      1  0.5614510000000  0.5492680000000  0.5171150000000 1.0
C      1  0.5633960000000  0.5118660000000  0.5558800000000 1.0
C      1  0.5688460000000  0.4641160000000  0.5432910000000 1.0
C      1  0.5710720000000  0.4498610000000  0.4876990000000 1.0
C      1  0.4602570000000  0.4160580000000  0.5140100000000 1.0
C      1  0.4533560000000  0.4903810000000  0.5828560000000 1.0
C      1  0.4723190000000  0.5647790000000  0.5591040000000 1.0
C      1  0.4606560000000  0.5876120000000  0.4852600000000 1.0
C      1  0.4357170000000  0.5224800000000  0.4199160000000 1.0
C      1  0.4698060000000  0.4351740000000  0.4434640000000 1.0
C      1  0.4568200000000  0.5754500000000  0.5103440000000 1.0
C      1  0.4689160000000  0.5343890000000  0.5734010000000 1.0
C      1  0.4581950000000  0.4348260000000  0.5587120000000 1.0
C      1  0.4644160000000  0.4049680000000  0.4892840000000 1.0
C      1  0.4648250000000  0.4838590000000  0.4152310000000 1.0
C      1  0.4699330000000  0.5580910000000  0.4473110000000 1.0
C      1  0.5016890000000  0.5161150000000  0.4338320000000 1.0
C      1  0.4990930000000  0.4609650000000  0.4544880000000 1.0
C      1  0.4983830000000  0.4335200000000  0.5209790000000 1.0
C      1  0.4944990000000  0.4793920000000  0.5504580000000 1.0
C      1  0.5002460000000  0.5385460000000  0.5404880000000 1.0
C      1  0.5057050000000  0.5631490000000  0.4813420000000 1.0
C      1  0.5103220000000  0.4836080000000  0.4317240000000 1.0
C      1  0.4986600000000  0.5346650000000  0.4622800000000 1.0
C      1  0.4972650000000  0.5594570000000  0.5148490000000 1.0
C      1  0.5079080000000  0.5262210000000  0.5708950000000 1.0
C      1  0.5055070000000  0.4474300000000  0.5495550000000 1.0
C      1  0.5137940000000  0.4341870000000  0.4678900000000 1.0
C      1  0.5374170000000  0.4452620000000  0.4862010000000 1.0
C      1  0.5377540000000  0.4577880000000  0.5462310000000 1.0
C      1  0.5328900000000  0.5086700000000  0.5620940000000 1.0
C      1  0.5288910000000  0.5559260000000  0.5165670000000 1.0
C      1  0.5325340000000  0.5346560000000  0.4653310000000 1.0
C      1  0.5429660000000  0.4837760000000  0.4351080000000 1.0
C      1  0.5392510000000  0.5595070000000  0.4855420000000 1.0
C      1  0.5336280000000  0.5342900000000  0.5413730000000 1.0
C      1  0.5220640000000  0.4835470000000  0.5522500000000 1.0
C      1  0.5288480000000  0.4445690000000  0.5173010000000 1.0
C      1  0.5306080000000  0.4690630000000  0.4628770000000 1.0
C      1  0.5333420000000  0.5161760000000  0.4368010000000 1.0
C      1  0.4680710000000  0.4628970000000  0.4591250000000 1.0
C      1  0.4682670000000  0.4472200000000  0.5145120000000 1.0
C      1  0.4649310000000  0.4835790000000  0.5516150000000 1.0
C      1  0.4680960000000  0.5378220000000  0.5349450000000 1.0
C      1  0.4513030000000  0.5336490000000  0.4890790000000 1.0
C      1  0.4481270000000  0.5112870000000  0.4455960000000 1.0
C      1  0.4649160000000  0.5301360000000  0.4619700000000 1.0
C      1  0.4541170000000  0.5477300000000  0.5114830000000 1.0
C      1  0.4573560000000  0.5133860000000  0.5513080000000 1.0
C      1  0.4548400000000  0.4580550000000  0.5402430000000 1.0
C      1  0.4611630000000  0.4617340000000  0.4887440000000 1.0
C      1  0.4550530000000  0.4842020000000  0.4426120000000 1.0
C      1  0.4770450000000  0.5546430000000  0.4202230000000 1.0
C      1  0.4883780000000  0.4682430000000  0.4138870000000 1.0
C      1  0.4979010000000  0.4105590000000  0.4761770000000 1.0
C      1  0.4822650000000  0.4476170000000  0.5714350000000 1.0
C      1  0.5069810000000  0.5502970000000  0.5901830000000 1.0
C      1  0.5009230000000  0.5991420000000  0.5179630000000 1.0
C      1  0.4832170000000  0.4406500000000  0.4187680000000 1.0
C      1  0.4834140000000  0.5278750000000  0.4132000000000 1.0
C      1  0.5097430000000  0.5941450000000  0.4947420000000 1.0
C      1  0.4882320000000  0.5669840000000  0.5862040000000 1.0
C      1  0.4797410000000  0.4711820000000  0.5866180000000 1.0
C      1  0.4997490000000  0.4077840000000  0.5073780000000 1.0
C      1  0.4840820000000  0.5046000000000  0.5796890000000 1.0
C      1  0.4551800000000  0.4109810000000  0.5423440000000 1.0
C      1  0.4782570000000  0.5809860000000  0.5325840000000 1.0
C      1  0.4707960000000  0.4129970000000  0.4595470000000 1.0
C      1  0.4612910000000  0.5114960000000  0.4069490000000 1.0
C      1  0.4786450000000  0.5760490000000  0.4667730000000 1.0
END
