TITL C-3289325-7307-465 -539.871755979124 125000 -714.561051277512 0 0 127 (C1) n - 1
REM
REM in /nfs/bkarasulu/CARBON/AIRSS/Generating-Clusters/AIREBO/with-SteepDescent/Higher-Symm/SD-CG/HFTN-CG
REM
REM
REM
REM
REM
REM ./C.cell (b20cbc046b6831c77cfcea5457e17084)
REM
REM compiler GCC version 9.2.1 20190827 (Red Hat 9.2.1-1)
REM options -cpp -mtune=generic -march=x86-64 -g -O0 -fpre-include=/usr/include/finclude/math-vector-fortran.h
REM seed 2121334869 -1825864241 796074845 -1679111053 889867441 1188358602 -1664621987 145091205 1349332333 924120061 -51456267 631483809 389309863 -1358923685 -661715280 -1701305251 -483252935 -2088081985 -506403851 -967870697 -1378569373 -713311072 2137146579 669706697 -608132278 707663208 691055076 -1885196855 -1719083242 770896836 -1147516685 81649428 -516654595
REM
CELL 1.54180   50.00000   50.00000   50.00000   90.00000   90.00000   90.00000
LATT -1
SFAC C  
C      1  0.5544020000000  0.4963690000000  0.4828840000000 1.0
C      1  0.5293780000000  0.5494210000000  0.4843360000000 1.0
C      1  0.4585090000000  0.5624740000000  0.4993190000000 1.0
C      1  0.4395390000000  0.4993040000000  0.4916140000000 1.0
C      1  0.4667590000000  0.4462440000000  0.5066500000000 1.0
C      1  0.5348460000000  0.4530430000000  0.4924010000000 1.0
C      1  0.4520060000000  0.5864060000000  0.5208230000000 1.0
C      1  0.4049900000000  0.5073500000000  0.5287410000000 1.0
C      1  0.4501120000000  0.4229400000000  0.5249970000000 1.0
C      1  0.5475520000000  0.4232160000000  0.5279030000000 1.0
C      1  0.5834310000000  0.5008140000000  0.5239400000000 1.0
C      1  0.5404330000000  0.5719210000000  0.5211270000000 1.0
C      1  0.4232830000000  0.4558260000000  0.4455890000000 1.0
C      1  0.5010760000000  0.4159030000000  0.4414610000000 1.0
C      1  0.5694660000000  0.4548730000000  0.4397080000000 1.0
C      1  0.5705990000000  0.5359930000000  0.4350910000000 1.0
C      1  0.4984610000000  0.5796740000000  0.4341780000000 1.0
C      1  0.4354220000000  0.5357520000000  0.4329490000000 1.0
C      1  0.4713000000000  0.4895390000000  0.4460930000000 1.0
C      1  0.4905890000000  0.4663710000000  0.4384090000000 1.0
C      1  0.5210090000000  0.4722310000000  0.4471280000000 1.0
C      1  0.5346110000000  0.5037560000000  0.4482380000000 1.0
C      1  0.5090440000000  0.5223100000000  0.4393830000000 1.0
C      1  0.4826320000000  0.5182690000000  0.4534770000000 1.0
C      1  0.4437170000000  0.4977330000000  0.5645470000000 1.0
C      1  0.4740440000000  0.4256890000000  0.5695170000000 1.0
C      1  0.5370880000000  0.4507310000000  0.5721290000000 1.0
C      1  0.5728540000000  0.5119160000000  0.5677140000000 1.0
C      1  0.5167390000000  0.5525780000000  0.5600640000000 1.0
C      1  0.4468550000000  0.5682120000000  0.5664780000000 1.0
C      1  0.4215460000000  0.5181370000000  0.4487990000000 1.0
C      1  0.4484260000000  0.4448570000000  0.4597930000000 1.0
C      1  0.5298400000000  0.4206500000000  0.4547740000000 1.0
C      1  0.5780120000000  0.4773870000000  0.4535050000000 1.0
C      1  0.5574710000000  0.5576050000000  0.4469290000000 1.0
C      1  0.4740280000000  0.5689240000000  0.4512320000000 1.0
C      1  0.4224160000000  0.5246590000000  0.4810350000000 1.0
C      1  0.4516860000000  0.4616940000000  0.4854240000000 1.0
C      1  0.5196150000000  0.4290040000000  0.4851920000000 1.0
C      1  0.5806010000000  0.4751110000000  0.4871140000000 1.0
C      1  0.5597550000000  0.5599820000000  0.4807700000000 1.0
C      1  0.4818450000000  0.5688130000000  0.4818600000000 1.0
C      1  0.4657700000000  0.5416920000000  0.4412630000000 1.0
C      1  0.4199770000000  0.4845020000000  0.4433290000000 1.0
C      1  0.4791740000000  0.4387960000000  0.4474610000000 1.0
C      1  0.5389800000000  0.4465310000000  0.4382320000000 1.0
C      1  0.5681010000000  0.5094780000000  0.4467080000000 1.0
C      1  0.5262930000000  0.5694710000000  0.4394210000000 1.0
C      1  0.4966930000000  0.5394190000000  0.5252410000000 1.0
C      1  0.4704370000000  0.5121740000000  0.5128520000000 1.0
C      1  0.4701510000000  0.4895120000000  0.5358150000000 1.0
C      1  0.5083080000000  0.4788860000000  0.5303830000000 1.0
C      1  0.5411780000000  0.4731140000000  0.5357550000000 1.0
C      1  0.5302210000000  0.5216850000000  0.5128930000000 1.0
C      1  0.4989540000000  0.5759700000000  0.5609450000000 1.0
C      1  0.4314360000000  0.5487170000000  0.5661630000000 1.0
C      1  0.4408750000000  0.4700970000000  0.5655040000000 1.0
C      1  0.4979260000000  0.4197840000000  0.5681320000000 1.0
C      1  0.5632660000000  0.4600950000000  0.5730870000000 1.0
C      1  0.5682330000000  0.5361030000000  0.5640380000000 1.0
C      1  0.5096550000000  0.4116430000000  0.5312250000000 1.0
C      1  0.5928460000000  0.4635230000000  0.5348750000000 1.0
C      1  0.5819400000000  0.5562300000000  0.5297060000000 1.0
C      1  0.4914240000000  0.5912990000000  0.5249830000000 1.0
C      1  0.4132530000000  0.5374610000000  0.5283710000000 1.0
C      1  0.4334660000000  0.4512830000000  0.5281770000000 1.0
C      1  0.4995730000000  0.4237730000000  0.5075170000000 1.0
C      1  0.5800640000000  0.4580550000000  0.5102640000000 1.0
C      1  0.5767230000000  0.5451140000000  0.4995560000000 1.0
C      1  0.4987480000000  0.5917610000000  0.4944730000000 1.0
C      1  0.4210830000000  0.5487140000000  0.5006440000000 1.0
C      1  0.4219930000000  0.4647030000000  0.5004900000000 1.0
C      1  0.4920390000000  0.4830440000000  0.6614620000000 1.0
C      1  0.4766050000000  0.4681270000000  0.6437830000000 1.0
C      1  0.4866030000000  0.4621000000000  0.6185850000000 1.0
C      1  0.5087460000000  0.4756340000000  0.6074780000000 1.0
C      1  0.5243410000000  0.4894900000000  0.6264850000000 1.0
C      1  0.5147780000000  0.4957960000000  0.6517870000000 1.0
C      1  0.4460160000000  0.4935760000000  0.4277890000000 1.0
C      1  0.4874610000000  0.4680170000000  0.4079760000000 1.0
C      1  0.5341980000000  0.4562720000000  0.4079600000000 1.0
C      1  0.5424080000000  0.5048380000000  0.4151540000000 1.0
C      1  0.5157950000000  0.5460230000000  0.4204330000000 1.0
C      1  0.4682050000000  0.5378070000000  0.4102670000000 1.0
C      1  0.4942590000000  0.4805560000000  0.5584580000000 1.0
C      1  0.5162080000000  0.4732780000000  0.5793360000000 1.0
C      1  0.5320040000000  0.4948760000000  0.5583490000000 1.0
C      1  0.5253750000000  0.5222740000000  0.5470030000000 1.0
C      1  0.4940490000000  0.5286480000000  0.5573830000000 1.0
C      1  0.4748220000000  0.5071150000000  0.5631420000000 1.0
C      1  0.5514660000000  0.4514630000000  0.5167560000000 1.0
C      1  0.5559910000000  0.5352380000000  0.5237050000000 1.0
C      1  0.5103160000000  0.5675080000000  0.5236110000000 1.0
C      1  0.4505260000000  0.5337060000000  0.5086630000000 1.0
C      1  0.4453190000000  0.4813790000000  0.5199560000000 1.0
C      1  0.4956030000000  0.4572330000000  0.5122100000000 1.0
C      1  0.5701300000000  0.4837010000000  0.5501500000000 1.0
C      1  0.5471830000000  0.5556240000000  0.5492330000000 1.0
C      1  0.4681850000000  0.5798130000000  0.5469850000000 1.0
C      1  0.4240410000000  0.5190050000000  0.5548120000000 1.0
C      1  0.4512430000000  0.4401960000000  0.5545860000000 1.0
C      1  0.5283580000000  0.4258070000000  0.5558530000000 1.0
C      1  0.5784280000000  0.5132460000000  0.4989530000000 1.0
C      1  0.5285360000000  0.5827230000000  0.4911430000000 1.0
C      1  0.4310560000000  0.5799120000000  0.4947000000000 1.0
C      1  0.4075670000000  0.4939580000000  0.5017470000000 1.0
C      1  0.4696460000000  0.4147700000000  0.4983900000000 1.0
C      1  0.5528650000000  0.4037270000000  0.5086080000000 1.0
C      1  0.5086110000000  0.4537850000000  0.3962260000000 1.0
C      1  0.5478270000000  0.4804200000000  0.4029770000000 1.0
C      1  0.5382340000000  0.5298330000000  0.4053360000000 1.0
C      1  0.4911220000000  0.5498470000000  0.4015800000000 1.0
C      1  0.4564170000000  0.5140670000000  0.4027850000000 1.0
C      1  0.4663550000000  0.4841510000000  0.4015980000000 1.0
C      1  0.5413150000000  0.4056840000000  0.4834620000000 1.0
C      1  0.5914650000000  0.5033610000000  0.4702670000000 1.0
C      1  0.5445210000000  0.5849720000000  0.4624030000000 1.0
C      1  0.4484100000000  0.5843150000000  0.4664650000000 1.0
C      1  0.4022670000000  0.4989470000000  0.4685120000000 1.0
C      1  0.4639850000000  0.4167300000000  0.4686740000000 1.0
C      1  0.4691840000000  0.4899940000000  0.4783720000000 1.0
C      1  0.4982620000000  0.4761340000000  0.4878600000000 1.0
C      1  0.5274780000000  0.4779590000000  0.4778460000000 1.0
C      1  0.5305370000000  0.5175910000000  0.4790600000000 1.0
C      1  0.4998360000000  0.5452780000000  0.4921210000000 1.0
C      1  0.4852250000000  0.5192990000000  0.4850270000000 1.0
C      1  0.5021310000000  0.5064500000000  0.5189010000000 1.0
END
