TITL C-3289324-3781-694 694.496839639146 125000 -1077.34293553178 0 0 198 (C1) n - 1
REM
REM in /nfs/bkarasulu/CARBON/AIRSS/Generating-Clusters/AIREBO/with-SteepDescent/Higher-Symm/SD-CG/HFTN-CG
REM
REM
REM
REM
REM
REM ./C.cell (b20cbc046b6831c77cfcea5457e17084)
REM
REM compiler GCC version 9.2.1 20190827 (Red Hat 9.2.1-1)
REM options -cpp -mtune=generic -march=x86-64 -g -O0 -fpre-include=/usr/include/finclude/math-vector-fortran.h
REM seed 1130832867 -303546459 131053692 1425352672 -265355499 229864312 47759533 621879515 -1280173714 530541495 -1501280905 -1481076166 -892474236 -1845184054 -472129603 909220638 -172024313 2023042844 -40013639 1507860830 88885224 489267863 -916124964 649593331 -1379021853 967147425 2080391233 576608115 1665373221 1433997242 1990114210 119886407 1789439198
REM
CELL 1.54180   50.00000   50.00000   50.00000   90.00000   90.00000   90.00000
LATT -1
SFAC C  
C      1  0.4807420000000  0.5735660000000  0.4264720000000 1.0
C      1  0.5797430000000  0.5764780000000  0.4790280000000 1.0
C      1  0.5467680000000  0.5749630000000  0.5547430000000 1.0
C      1  0.4640540000000  0.5683000000000  0.5651730000000 1.0
C      1  0.4199850000000  0.5728190000000  0.4715050000000 1.0
C      1  0.4622390000000  0.5104420000000  0.3837150000000 1.0
C      1  0.5902490000000  0.5246400000000  0.4148220000000 1.0
C      1  0.6123120000000  0.5150270000000  0.5652700000000 1.0
C      1  0.4828320000000  0.5198170000000  0.6240260000000 1.0
C      1  0.3741850000000  0.5115030000000  0.5158580000000 1.0
C      1  0.4251420000000  0.5398310000000  0.5494040000000 1.0
C      1  0.4362810000000  0.5263770000000  0.4510750000000 1.0
C      1  0.5293930000000  0.5599310000000  0.4208720000000 1.0
C      1  0.5989180000000  0.5418280000000  0.5103650000000 1.0
C      1  0.5157570000000  0.5361160000000  0.5751100000000 1.0
C      1  0.6215160000000  0.5316560000000  0.5411300000000 1.0
C      1  0.5109070000000  0.5282960000000  0.6149480000000 1.0
C      1  0.3861670000000  0.5328100000000  0.5349430000000 1.0
C      1  0.4332190000000  0.5174590000000  0.3999870000000 1.0
C      1  0.5624680000000  0.5349030000000  0.4053130000000 1.0
C      1  0.5802020000000  0.4484660000000  0.4215160000000 1.0
C      1  0.5917550000000  0.4473450000000  0.5588470000000 1.0
C      1  0.4716300000000  0.4585270000000  0.6103640000000 1.0
C      1  0.3933520000000  0.4597050000000  0.5089840000000 1.0
C      1  0.4531020000000  0.4564780000000  0.3979870000000 1.0
C      1  0.5184460000000  0.5005650000000  0.4244530000000 1.0
C      1  0.5786470000000  0.4910930000000  0.4946410000000 1.0
C      1  0.5303510000000  0.4995640000000  0.5679900000000 1.0
C      1  0.4433680000000  0.5005420000000  0.5483040000000 1.0
C      1  0.4346070000000  0.4900920000000  0.4675810000000 1.0
C      1  0.3887460000000  0.4426320000000  0.5308780000000 1.0
C      1  0.4312190000000  0.4395140000000  0.3992330000000 1.0
C      1  0.5540240000000  0.4390600000000  0.4077850000000 1.0
C      1  0.6116550000000  0.4370130000000  0.5397800000000 1.0
C      1  0.4852750000000  0.4377540000000  0.6234900000000 1.0
C      1  0.4199450000000  0.4746440000000  0.5795920000000 1.0
C      1  0.3975430000000  0.4765940000000  0.4392760000000 1.0
C      1  0.5146170000000  0.4817550000000  0.3902420000000 1.0
C      1  0.6122080000000  0.4722770000000  0.4841480000000 1.0
C      1  0.5617510000000  0.4735790000000  0.5955960000000 1.0
C      1  0.4753820000000  0.6189380000000  0.5215580000000 1.0
C      1  0.4814020000000  0.6126460000000  0.4940730000000 1.0
C      1  0.5083020000000  0.6220720000000  0.4891430000000 1.0
C      1  0.5238050000000  0.6184040000000  0.5173020000000 1.0
C      1  0.5034770000000  0.6226950000000  0.5368080000000 1.0
C      1  0.5964210000000  0.5546000000000  0.5417760000000 1.0
C      1  0.4990330000000  0.5541330000000  0.5962660000000 1.0
C      1  0.3984850000000  0.5526720000000  0.5133750000000 1.0
C      1  0.4452510000000  0.5473650000000  0.4102890000000 1.0
C      1  0.5602820000000  0.5568590000000  0.4311950000000 1.0
C      1  0.5392180000000  0.5566370000000  0.5270910000000 1.0
C      1  0.4807570000000  0.5557220000000  0.5392470000000 1.0
C      1  0.4507630000000  0.5631140000000  0.4827320000000 1.0
C      1  0.4825910000000  0.5624350000000  0.4585620000000 1.0
C      1  0.5491900000000  0.5688060000000  0.4903480000000 1.0
C      1  0.5835490000000  0.4287930000000  0.5022200000000 1.0
C      1  0.5248500000000  0.4377070000000  0.5887660000000 1.0
C      1  0.4313520000000  0.4275300000000  0.5502640000000 1.0
C      1  0.4304790000000  0.4286870000000  0.4461540000000 1.0
C      1  0.5289610000000  0.4158110000000  0.4523990000000 1.0
C      1  0.4187960000000  0.5084540000000  0.4280720000000 1.0
C      1  0.5460290000000  0.5150100000000  0.3953820000000 1.0
C      1  0.6195320000000  0.5162560000000  0.5121520000000 1.0
C      1  0.5295970000000  0.5081420000000  0.6116420000000 1.0
C      1  0.4012710000000  0.5185030000000  0.5597980000000 1.0
C      1  0.5405440000000  0.4655660000000  0.4459500000000 1.0
C      1  0.5641510000000  0.4774210000000  0.5414120000000 1.0
C      1  0.4837210000000  0.4644020000000  0.5696290000000 1.0
C      1  0.4325050000000  0.4660650000000  0.5137660000000 1.0
C      1  0.4634440000000  0.4758560000000  0.4331130000000 1.0
C      1  0.5157210000000  0.4038510000000  0.5330140000000 1.0
C      1  0.4691100000000  0.4199340000000  0.5111110000000 1.0
C      1  0.4824620000000  0.4134850000000  0.4812280000000 1.0
C      1  0.5139490000000  0.4085940000000  0.4820540000000 1.0
C      1  0.5217220000000  0.4193820000000  0.5102160000000 1.0
C      1  0.4087130000000  0.4843940000000  0.5205750000000 1.0
C      1  0.4442900000000  0.4860630000000  0.4069320000000 1.0
C      1  0.5634760000000  0.4744070000000  0.4238250000000 1.0
C      1  0.5981900000000  0.4746260000000  0.5416860000000 1.0
C      1  0.4910370000000  0.4794890000000  0.5981930000000 1.0
C      1  0.4293800000000  0.5164560000000  0.4806980000000 1.0
C      1  0.4882410000000  0.5338690000000  0.4409860000000 1.0
C      1  0.5503010000000  0.5270230000000  0.4690560000000 1.0
C      1  0.5517280000000  0.5275960000000  0.5395950000000 1.0
C      1  0.4794120000000  0.5275430000000  0.5570700000000 1.0
C      1  0.6073690000000  0.4518490000000  0.5102030000000 1.0
C      1  0.5363690000000  0.4612030000000  0.6055560000000 1.0
C      1  0.4098680000000  0.4535880000000  0.5548700000000 1.0
C      1  0.4110050000000  0.4482140000000  0.4262440000000 1.0
C      1  0.5358180000000  0.4598260000000  0.3990990000000 1.0
C      1  0.5534950000000  0.4883430000000  0.3961020000000 1.0
C      1  0.6167520000000  0.4846540000000  0.5150230000000 1.0
C      1  0.5185430000000  0.4817180000000  0.6118760000000 1.0
C      1  0.4056470000000  0.4880600000000  0.5526880000000 1.0
C      1  0.4132450000000  0.4786930000000  0.4108670000000 1.0
C      1  0.3932340000000  0.5553430000000  0.4647230000000 1.0
C      1  0.5021030000000  0.5619550000000  0.4105680000000 1.0
C      1  0.5959210000000  0.5513990000000  0.4809760000000 1.0
C      1  0.5452770000000  0.5488380000000  0.5728680000000 1.0
C      1  0.4416600000000  0.5527120000000  0.5718840000000 1.0
C      1  0.4463000000000  0.4534350000000  0.5384770000000 1.0
C      1  0.4495520000000  0.4550010000000  0.4561610000000 1.0
C      1  0.5146290000000  0.4463460000000  0.4513980000000 1.0
C      1  0.5549210000000  0.4441360000000  0.4929030000000 1.0
C      1  0.5132640000000  0.4538950000000  0.5611900000000 1.0
C      1  0.5290110000000  0.6020890000000  0.4815610000000 1.0
C      1  0.5326820000000  0.5861060000000  0.5114120000000 1.0
C      1  0.4858680000000  0.5951410000000  0.5435460000000 1.0
C      1  0.4684870000000  0.5798070000000  0.5186030000000 1.0
C      1  0.4762750000000  0.5823160000000  0.4854400000000 1.0
C      1  0.5123710000000  0.5562140000000  0.5479830000000 1.0
C      1  0.4369100000000  0.5516930000000  0.5241660000000 1.0
C      1  0.4494280000000  0.5533130000000  0.4530410000000 1.0
C      1  0.5153910000000  0.5672400000000  0.4494760000000 1.0
C      1  0.5699990000000  0.5561760000000  0.5119520000000 1.0
C      1  0.4175600000000  0.4652280000000  0.4615930000000 1.0
C      1  0.4938740000000  0.4781650000000  0.4173140000000 1.0
C      1  0.5808940000000  0.4609610000000  0.4787210000000 1.0
C      1  0.5435800000000  0.4682620000000  0.5668900000000 1.0
C      1  0.4504090000000  0.4714460000000  0.5644280000000 1.0
C      1  0.4017000000000  0.4523090000000  0.4844860000000 1.0
C      1  0.4787770000000  0.4503670000000  0.4067440000000 1.0
C      1  0.5819620000000  0.4429450000000  0.4498980000000 1.0
C      1  0.5642790000000  0.4416470000000  0.5590920000000 1.0
C      1  0.4530930000000  0.4506890000000  0.5912330000000 1.0
C      1  0.5437010000000  0.3961480000000  0.4862660000000 1.0
C      1  0.5338360000000  0.4002770000000  0.5542210000000 1.0
C      1  0.4885950000000  0.3982520000000  0.5383200000000 1.0
C      1  0.4443570000000  0.4093190000000  0.4923030000000 1.0
C      1  0.4868750000000  0.3896710000000  0.4595060000000 1.0
C      1  0.5001900000000  0.4570080000000  0.5299180000000 1.0
C      1  0.4703880000000  0.4537760000000  0.5131900000000 1.0
C      1  0.4785980000000  0.4410430000000  0.4670300000000 1.0
C      1  0.5042950000000  0.4583090000000  0.4815450000000 1.0
C      1  0.5256060000000  0.4530690000000  0.5076690000000 1.0
C      1  0.5491160000000  0.4497450000000  0.5320070000000 1.0
C      1  0.4666530000000  0.4350780000000  0.5673150000000 1.0
C      1  0.4459600000000  0.4577410000000  0.4898640000000 1.0
C      1  0.4872700000000  0.4427250000000  0.4342370000000 1.0
C      1  0.5522590000000  0.4386140000000  0.4623080000000 1.0
C      1  0.5770810000000  0.5796470000000  0.5431290000000 1.0
C      1  0.4891130000000  0.5769010000000  0.5790050000000 1.0
C      1  0.4121270000000  0.5745500000000  0.5030630000000 1.0
C      1  0.4525730000000  0.5729410000000  0.4185230000000 1.0
C      1  0.5616150000000  0.5794560000000  0.4528880000000 1.0
C      1  0.5356170000000  0.5890310000000  0.4586790000000 1.0
C      1  0.5768510000000  0.5894540000000  0.5105520000000 1.0
C      1  0.5149100000000  0.5873880000000  0.5594730000000 1.0
C      1  0.4357750000000  0.5827890000000  0.5201510000000 1.0
C      1  0.4341810000000  0.5815780000000  0.4418680000000 1.0
C      1  0.6046750000000  0.5054170000000  0.4830430000000 1.0
C      1  0.5542500000000  0.5049060000000  0.5899510000000 1.0
C      1  0.4302870000000  0.5069770000000  0.5776280000000 1.0
C      1  0.3947940000000  0.5078390000000  0.4514420000000 1.0
C      1  0.5146700000000  0.5153860000000  0.3953300000000 1.0
C      1  0.5412890000000  0.4139660000000  0.5765490000000 1.0
C      1  0.4621000000000  0.4161960000000  0.5427410000000 1.0
C      1  0.4337530000000  0.4097010000000  0.4700790000000 1.0
C      1  0.5074330000000  0.3909550000000  0.4443480000000 1.0
C      1  0.5660130000000  0.4059220000000  0.4890030000000 1.0
C      1  0.6042900000000  0.4142260000000  0.5227780000000 1.0
C      1  0.5048710000000  0.4246930000000  0.6095530000000 1.0
C      1  0.4028880000000  0.4180420000000  0.5384180000000 1.0
C      1  0.4322600000000  0.4159560000000  0.4165990000000 1.0
C      1  0.5422800000000  0.4165100000000  0.4211170000000 1.0
C      1  0.4808990000000  0.5364290000000  0.5116980000000 1.0
C      1  0.4528020000000  0.5404470000000  0.5021940000000 1.0
C      1  0.5025770000000  0.5439680000000  0.4789570000000 1.0
C      1  0.5339200000000  0.5512690000000  0.4730950000000 1.0
C      1  0.5199530000000  0.5310630000000  0.5156310000000 1.0
C      1  0.4698940000000  0.5249920000000  0.4137630000000 1.0
C      1  0.5713370000000  0.5271030000000  0.4433840000000 1.0
C      1  0.5832550000000  0.5242170000000  0.5495210000000 1.0
C      1  0.4788990000000  0.5272260000000  0.5910670000000 1.0
C      1  0.4031350000000  0.5214750000000  0.5006660000000 1.0
C      1  0.4740500000000  0.5020560000000  0.5421590000000 1.0
C      1  0.4596280000000  0.5089340000000  0.4920060000000 1.0
C      1  0.5059150000000  0.5097600000000  0.4526610000000 1.0
C      1  0.5501640000000  0.4991290000000  0.4861070000000 1.0
C      1  0.5279700000000  0.5038270000000  0.5344300000000 1.0
C      1  0.5815660000000  0.4996210000000  0.5260890000000 1.0
C      1  0.5031730000000  0.5052530000000  0.5818550000000 1.0
C      1  0.4233590000000  0.5142550000000  0.5270330000000 1.0
C      1  0.4572250000000  0.5063010000000  0.4389180000000 1.0
C      1  0.5504690000000  0.5021270000000  0.4335130000000 1.0
C      1  0.5006830000000  0.4865610000000  0.5399540000000 1.0
C      1  0.4707470000000  0.4877840000000  0.5137810000000 1.0
C      1  0.4769410000000  0.5030010000000  0.4636410000000 1.0
C      1  0.5331330000000  0.4924340000000  0.4604120000000 1.0
C      1  0.5355740000000  0.4855580000000  0.5089740000000 1.0
C      1  0.4953100000000  0.5377040000000  0.3978470000000 1.0
C      1  0.5961800000000  0.5284990000000  0.4652240000000 1.0
C      1  0.5653430000000  0.5294430000000  0.5772830000000 1.0
C      1  0.4464740000000  0.5301630000000  0.5891600000000 1.0
C      1  0.3910460000000  0.5284190000000  0.4698290000000 1.0
C      1  0.4918040000000  0.4855760000000  0.4884180000000 1.0
C      1  0.5046890000000  0.5603920000000  0.5076520000000 1.0
C      1  0.4988660000000  0.5155420000000  0.4945960000000 1.0
END
