TITL C-3289331-6719-1 0.00120681701678168 125000 -534.921520913281 0 0 98 (C1) n - 1
REM
REM in /nfs/bkarasulu/CARBON/AIRSS/Generating-Clusters/AIREBO/with-SteepDescent/Higher-Symm/SD-CG/HFTN-CG
REM
REM
REM
REM
REM
REM ./C.cell (b20cbc046b6831c77cfcea5457e17084)
REM
REM compiler GCC version 9.2.1 20190827 (Red Hat 9.2.1-1)
REM options -cpp -mtune=generic -march=x86-64 -g -O0 -fpre-include=/usr/include/finclude/math-vector-fortran.h
REM seed 1518200 -1885091107 -1628605852 -640539106 -100173519 402745405 -1331898523 499292713 214715454 1613234090 -527748726 1639778626 1892716863 989441189 -953971912 1351145812 -1641842057 -2027464332 -912808257 -1847484951 2128251325 478017185 -958467125 -1392102064 -256813315 38248725 -428474094 1499350008 -1331786219 -1566908285 -1397404403 -360692228 153406145
REM
CELL 1.54180   50.00000   50.00000   50.00000   90.00000   90.00000   90.00000
LATT -1
SFAC C  
C      1  0.4320820000000  0.4480960000000  0.5214360000000 1.0
C      1  0.5695160000000  0.5523220000000  0.5213820000000 1.0
C      1  0.4308410000000  0.5502120000000  0.4780110000000 1.0
C      1  0.5703220000000  0.4451420000000  0.4828140000000 1.0
C      1  0.4493750000000  0.4293500000000  0.5210030000000 1.0
C      1  0.5540880000000  0.5724690000000  0.5191910000000 1.0
C      1  0.5510840000000  0.4283470000000  0.4812660000000 1.0
C      1  0.4475870000000  0.5695440000000  0.4787380000000 1.0
C      1  0.5289000000000  0.4871540000000  0.5873320000000 1.0
C      1  0.4733010000000  0.5199440000000  0.5846320000000 1.0
C      1  0.5247760000000  0.5120020000000  0.4156900000000 1.0
C      1  0.4689660000000  0.4844310000000  0.4110660000000 1.0
C      1  0.4968290000000  0.5326340000000  0.5911400000000 1.0
C      1  0.5077390000000  0.4710670000000  0.5936090000000 1.0
C      1  0.5028240000000  0.5279010000000  0.4054730000000 1.0
C      1  0.4885620000000  0.4698600000000  0.4026540000000 1.0
C      1  0.5712150000000  0.5014880000000  0.4587280000000 1.0
C      1  0.4274550000000  0.4938490000000  0.4573130000000 1.0
C      1  0.5779480000000  0.4975930000000  0.5425370000000 1.0
C      1  0.4228140000000  0.5008480000000  0.5398230000000 1.0
C      1  0.4976800000000  0.5794880000000  0.4520410000000 1.0
C      1  0.4958920000000  0.4296060000000  0.4541450000000 1.0
C      1  0.5003710000000  0.5767890000000  0.5392610000000 1.0
C      1  0.5006740000000  0.4187080000000  0.5386770000000 1.0
C      1  0.5129160000000  0.4651190000000  0.5142920000000 1.0
C      1  0.4907700000000  0.5341090000000  0.5078730000000 1.0
C      1  0.5183660000000  0.5387450000000  0.4915700000000 1.0
C      1  0.4867050000000  0.4603190000000  0.4942360000000 1.0
C      1  0.4697360000000  0.5133090000000  0.5096160000000 1.0
C      1  0.5335670000000  0.4856070000000  0.5125230000000 1.0
C      1  0.5349190000000  0.5100710000000  0.4889450000000 1.0
C      1  0.4702240000000  0.4860060000000  0.4893590000000 1.0
C      1  0.4179090000000  0.5041110000000  0.5116280000000 1.0
C      1  0.5832570000000  0.4948680000000  0.5144800000000 1.0
C      1  0.4206950000000  0.4912970000000  0.4840730000000 1.0
C      1  0.5809110000000  0.5053090000000  0.4856940000000 1.0
C      1  0.5035680000000  0.4142190000000  0.5100540000000 1.0
C      1  0.4960880000000  0.5841490000000  0.5113020000000 1.0
C      1  0.4943830000000  0.4185480000000  0.4793140000000 1.0
C      1  0.5056780000000  0.5845310000000  0.4813960000000 1.0
C      1  0.5609810000000  0.5262450000000  0.5036260000000 1.0
C      1  0.4420330000000  0.4733810000000  0.5035770000000 1.0
C      1  0.5622160000000  0.4728150000000  0.4993930000000 1.0
C      1  0.4405490000000  0.5239080000000  0.4957470000000 1.0
C      1  0.5309530000000  0.5697100000000  0.4986630000000 1.0
C      1  0.4697570000000  0.4314510000000  0.4980390000000 1.0
C      1  0.4757850000000  0.5619800000000  0.4954070000000 1.0
C      1  0.5242440000000  0.4376610000000  0.4977240000000 1.0
C      1  0.5140620000000  0.4614480000000  0.4745380000000 1.0
C      1  0.4825420000000  0.5411450000000  0.4693830000000 1.0
C      1  0.5147950000000  0.5309760000000  0.5305440000000 1.0
C      1  0.4854570000000  0.4690910000000  0.5332350000000 1.0
C      1  0.4639440000000  0.5135610000000  0.4704520000000 1.0
C      1  0.5409880000000  0.4801020000000  0.4738250000000 1.0
C      1  0.5393250000000  0.5133000000000  0.5282100000000 1.0
C      1  0.4622890000000  0.4878160000000  0.5283120000000 1.0
C      1  0.5163190000000  0.5537580000000  0.5530490000000 1.0
C      1  0.4822750000000  0.4391790000000  0.5492300000000 1.0
C      1  0.5149810000000  0.4349380000000  0.4353240000000 1.0
C      1  0.4822860000000  0.5564500000000  0.4406860000000 1.0
C      1  0.5723850000000  0.5176440000000  0.5626770000000 1.0
C      1  0.4306640000000  0.4814260000000  0.5594560000000 1.0
C      1  0.4307280000000  0.5136800000000  0.4378810000000 1.0
C      1  0.5539530000000  0.4812040000000  0.4440130000000 1.0
C      1  0.4433910000000  0.4686160000000  0.4493620000000 1.0
C      1  0.5585910000000  0.5260050000000  0.4529980000000 1.0
C      1  0.4344960000000  0.5271840000000  0.5468190000000 1.0
C      1  0.5612620000000  0.4745250000000  0.5491650000000 1.0
C      1  0.4695060000000  0.4470190000000  0.4465660000000 1.0
C      1  0.5285600000000  0.5741610000000  0.4502900000000 1.0
C      1  0.5226110000000  0.4369880000000  0.5477640000000 1.0
C      1  0.4769470000000  0.5588340000000  0.5449520000000 1.0
C      1  0.5207210000000  0.5396570000000  0.5771980000000 1.0
C      1  0.4833710000000  0.4634920000000  0.5726900000000 1.0
C      1  0.5126710000000  0.4642660000000  0.4223180000000 1.0
C      1  0.4790090000000  0.5381340000000  0.4191720000000 1.0
C      1  0.5417690000000  0.5169470000000  0.5752720000000 1.0
C      1  0.4572920000000  0.4785980000000  0.5722600000000 1.0
C      1  0.4583700000000  0.5180980000000  0.4238480000000 1.0
C      1  0.5351370000000  0.4846030000000  0.4221990000000 1.0
C      1  0.5412550000000  0.4375400000000  0.5271640000000 1.0
C      1  0.4583070000000  0.5613400000000  0.5242820000000 1.0
C      1  0.5462800000000  0.5660930000000  0.4724390000000 1.0
C      1  0.4563800000000  0.4251500000000  0.4691370000000 1.0
C      1  0.4386340000000  0.5426500000000  0.5240500000000 1.0
C      1  0.5605800000000  0.4563910000000  0.5281920000000 1.0
C      1  0.5610990000000  0.5433360000000  0.4742170000000 1.0
C      1  0.4439830000000  0.4529750000000  0.4764480000000 1.0
C      1  0.4670170000000  0.4921930000000  0.4441220000000 1.0
C      1  0.5304690000000  0.5236140000000  0.4440380000000 1.0
C      1  0.4602440000000  0.5080670000000  0.5555580000000 1.0
C      1  0.5331810000000  0.4918890000000  0.5539200000000 1.0
C      1  0.4933560000000  0.4713270000000  0.4494030000000 1.0
C      1  0.5150880000000  0.5444670000000  0.4599300000000 1.0
C      1  0.5119030000000  0.4653470000000  0.5542730000000 1.0
C      1  0.4851500000000  0.5296340000000  0.5471460000000 1.0
C      1  0.5056150000000  0.5015170000000  0.4488680000000 1.0
C      1  0.5037070000000  0.5073170000000  0.5609730000000 1.0
END
