TITL C-3289327-5623-581 -0.00200623746233123 125000 -404.935900965003 0 0 72 (C1) n - 1
REM
REM in /nfs/bkarasulu/CARBON/AIRSS/Generating-Clusters/AIREBO/with-SteepDescent/Higher-Symm/SD-CG/HFTN-CG
REM
REM
REM
REM
REM
REM ./C.cell (b20cbc046b6831c77cfcea5457e17084)
REM
REM compiler GCC version 9.2.1 20190827 (Red Hat 9.2.1-1)
REM options -cpp -mtune=generic -march=x86-64 -g -O0 -fpre-include=/usr/include/finclude/math-vector-fortran.h
REM seed -144306631 -2046666937 1585788446 -980513231 1940122767 -31553174 -128139245 2124180646 1880986984 -325267123 -2090582530 404765406 1251269177 -434577064 506542011 -342852594 -1930048536 -736635708 1060847628 -2115754451 -1345570483 -1268014145 1232489734 -1376392809 -561717714 -450043698 978538953 99202198 168217408 -331687641 856625090 2046342635 2033668381
REM
CELL 1.54180   50.00000   50.00000   50.00000   90.00000   90.00000   90.00000
LATT -1
SFAC C  
C      1  0.4480340000000  0.5176180000000  0.5393460000000 1.0
C      1  0.4554150000000  0.4892850000000  0.5408860000000 1.0
C      1  0.5541930000000  0.4595120000000  0.4624470000000 1.0
C      1  0.5546090000000  0.5480110000000  0.4539320000000 1.0
C      1  0.4664060000000  0.5447070000000  0.4310990000000 1.0
C      1  0.4761590000000  0.4670040000000  0.4169960000000 1.0
C      1  0.4413850000000  0.4613140000000  0.5285470000000 1.0
C      1  0.4621160000000  0.5331200000000  0.5125510000000 1.0
C      1  0.5336450000000  0.4881010000000  0.4921070000000 1.0
C      1  0.5454800000000  0.5199830000000  0.5185480000000 1.0
C      1  0.4920920000000  0.5575620000000  0.4864430000000 1.0
C      1  0.4898570000000  0.4389400000000  0.4811550000000 1.0
C      1  0.5803980000000  0.4794250000000  0.4727050000000 1.0
C      1  0.5806110000000  0.5126410000000  0.4801910000000 1.0
C      1  0.5092280000000  0.4394690000000  0.4612680000000 1.0
C      1  0.5089050000000  0.5576250000000  0.4644390000000 1.0
C      1  0.4559270000000  0.4847500000000  0.4275230000000 1.0
C      1  0.4551220000000  0.5126080000000  0.4308750000000 1.0
C      1  0.4294800000000  0.5238490000000  0.5025900000000 1.0
C      1  0.4311320000000  0.4675660000000  0.4997450000000 1.0
C      1  0.4708330000000  0.5612550000000  0.5395580000000 1.0
C      1  0.4849060000000  0.4342930000000  0.5383110000000 1.0
C      1  0.4562460000000  0.5101070000000  0.4882150000000 1.0
C      1  0.4609360000000  0.4805100000000  0.4891310000000 1.0
C      1  0.5144610000000  0.5155430000000  0.5239330000000 1.0
C      1  0.5113670000000  0.4850940000000  0.5130770000000 1.0
C      1  0.4540830000000  0.4702440000000  0.4574420000000 1.0
C      1  0.4621130000000  0.5209270000000  0.4623290000000 1.0
C      1  0.5044200000000  0.4203190000000  0.5615930000000 1.0
C      1  0.4962770000000  0.5723640000000  0.5404980000000 1.0
C      1  0.5542840000000  0.5432660000000  0.5417130000000 1.0
C      1  0.5512490000000  0.4569000000000  0.5407120000000 1.0
C      1  0.5636190000000  0.5220910000000  0.4566500000000 1.0
C      1  0.5505410000000  0.4928790000000  0.4634950000000 1.0
C      1  0.5224570000000  0.4438330000000  0.5472450000000 1.0
C      1  0.5256690000000  0.5588950000000  0.5498080000000 1.0
C      1  0.5411920000000  0.5640370000000  0.4980820000000 1.0
C      1  0.5350040000000  0.4387000000000  0.5003380000000 1.0
C      1  0.4858550000000  0.4874450000000  0.5532300000000 1.0
C      1  0.4884610000000  0.5188250000000  0.5620690000000 1.0
C      1  0.4055490000000  0.4839710000000  0.4965430000000 1.0
C      1  0.4063170000000  0.5109940000000  0.5011620000000 1.0
C      1  0.5565750000000  0.4525240000000  0.5132730000000 1.0
C      1  0.5640590000000  0.5542540000000  0.5116010000000 1.0
C      1  0.5730860000000  0.5250870000000  0.5036380000000 1.0
C      1  0.5604550000000  0.4760180000000  0.4982930000000 1.0
C      1  0.4680880000000  0.5354940000000  0.5519700000000 1.0
C      1  0.4675700000000  0.4588810000000  0.5508190000000 1.0
C      1  0.5357880000000  0.5607820000000  0.4706240000000 1.0
C      1  0.5350190000000  0.4417210000000  0.4720410000000 1.0
C      1  0.5012500000000  0.4558620000000  0.4371150000000 1.0
C      1  0.4981270000000  0.5424910000000  0.4401280000000 1.0
C      1  0.5168870000000  0.4832690000000  0.5791730000000 1.0
C      1  0.5198890000000  0.5082100000000  0.5843980000000 1.0
C      1  0.4914030000000  0.5124350000000  0.4532610000000 1.0
C      1  0.4859710000000  0.4807300000000  0.4531920000000 1.0
C      1  0.5522100000000  0.5128770000000  0.5569450000000 1.0
C      1  0.5508890000000  0.4859880000000  0.5492370000000 1.0
C      1  0.4547320000000  0.5524980000000  0.4612730000000 1.0
C      1  0.4426320000000  0.4472730000000  0.4774900000000 1.0
C      1  0.4539000000000  0.5661060000000  0.5133310000000 1.0
C      1  0.4595720000000  0.4355020000000  0.5195680000000 1.0
C      1  0.4648900000000  0.5650180000000  0.4845990000000 1.0
C      1  0.4628960000000  0.4329460000000  0.4915570000000 1.0
C      1  0.4875450000000  0.4668210000000  0.5004990000000 1.0
C      1  0.4959580000000  0.5373180000000  0.5114880000000 1.0
C      1  0.5174590000000  0.4774280000000  0.5456740000000 1.0
C      1  0.5209560000000  0.5262120000000  0.5555670000000 1.0
C      1  0.5087360000000  0.4875690000000  0.4276050000000 1.0
C      1  0.5114250000000  0.5153540000000  0.4245460000000 1.0
C      1  0.5176790000000  0.5629880000000  0.5165790000000 1.0
C      1  0.5083200000000  0.4447660000000  0.5159890000000 1.0
END
