TITL C-3289333-7213-654 -0.000504601568802229 125000 -410.242688463962 0 0 80 (C1) n - 1
REM
REM in /nfs/bkarasulu/CARBON/AIRSS/Generating-Clusters/AIREBO/with-SteepDescent/Higher-Symm/SD-CG/HFTN-CG
REM
REM
REM
REM
REM
REM ./C.cell (b20cbc046b6831c77cfcea5457e17084)
REM
REM compiler GCC version 9.2.1 20190827 (Red Hat 9.2.1-1)
REM options -cpp -mtune=generic -march=x86-64 -g -O0 -fpre-include=/usr/include/finclude/math-vector-fortran.h
REM seed -1233155688 -1934570710 2144125089 -1216617306 1183054694 -1390404035 -482309591 -582915207 1213398387 386331712 -1459267955 789870311 -2004265292 1588191326 -1651374317 129399571 1183823006 -1763933008 -564696235 -87438996 -1364568799 1338143349 -1319222815 1955557978 -691979962 -1829691955 1870867931 669131858 1860267925 -2115104595 1821222273 -620375770 69120317
REM
CELL 1.54180   50.00000   50.00000   50.00000   90.00000   90.00000   90.00000
LATT -1
SFAC C  
C      1  0.4317850000000  0.5292290000000  0.4750230000000 1.0
C      1  0.4276240000000  0.5325910000000  0.5083700000000 1.0
C      1  0.4990920000000  0.5355100000000  0.4517830000000 1.0
C      1  0.5063880000000  0.5364480000000  0.5488940000000 1.0
C      1  0.4968520000000  0.4784530000000  0.5154740000000 1.0
C      1  0.4916940000000  0.4877370000000  0.4831740000000 1.0
C      1  0.5427210000000  0.4467440000000  0.5567340000000 1.0
C      1  0.5278040000000  0.4450060000000  0.4529610000000 1.0
C      1  0.4929700000000  0.5665410000000  0.4642790000000 1.0
C      1  0.4948180000000  0.5664530000000  0.5378500000000 1.0
C      1  0.4780560000000  0.4476080000000  0.4248820000000 1.0
C      1  0.4870540000000  0.4482010000000  0.5822970000000 1.0
C      1  0.5891510000000  0.5158930000000  0.4865440000000 1.0
C      1  0.5770990000000  0.5048490000000  0.5113040000000 1.0
C      1  0.4153390000000  0.4801840000000  0.4619290000000 1.0
C      1  0.4216450000000  0.4783160000000  0.5289590000000 1.0
C      1  0.5696280000000  0.4782100000000  0.5159790000000 1.0
C      1  0.5557040000000  0.4657900000000  0.4923970000000 1.0
C      1  0.5110390000000  0.4316730000000  0.5119240000000 1.0
C      1  0.5198230000000  0.4284490000000  0.4796200000000 1.0
C      1  0.4373900000000  0.5644390000000  0.5183720000000 1.0
C      1  0.4409770000000  0.5615650000000  0.4844260000000 1.0
C      1  0.5006430000000  0.4796960000000  0.4319470000000 1.0
C      1  0.5067380000000  0.4758380000000  0.5616980000000 1.0
C      1  0.4561180000000  0.5012970000000  0.4167750000000 1.0
C      1  0.4703060000000  0.5039700000000  0.5820600000000 1.0
C      1  0.4635790000000  0.4956930000000  0.5500270000000 1.0
C      1  0.4529560000000  0.4986670000000  0.4505420000000 1.0
C      1  0.5240260000000  0.4773810000000  0.4870860000000 1.0
C      1  0.5291550000000  0.4772080000000  0.5199000000000 1.0
C      1  0.5054890000000  0.5790380000000  0.4851810000000 1.0
C      1  0.5091750000000  0.5783610000000  0.5173060000000 1.0
C      1  0.4850690000000  0.4666540000000  0.4592190000000 1.0
C      1  0.4862510000000  0.4643450000000  0.5402780000000 1.0
C      1  0.4665920000000  0.5289770000000  0.4432940000000 1.0
C      1  0.4732670000000  0.5282880000000  0.5508090000000 1.0
C      1  0.4631900000000  0.4480710000000  0.4774640000000 1.0
C      1  0.4612060000000  0.4424020000000  0.5069830000000 1.0
C      1  0.4981400000000  0.4992110000000  0.5833550000000 1.0
C      1  0.4832680000000  0.4994560000000  0.4106280000000 1.0
C      1  0.5454850000000  0.4996610000000  0.5395560000000 1.0
C      1  0.5401840000000  0.4978230000000  0.4660910000000 1.0
C      1  0.5121520000000  0.5280140000000  0.5172670000000 1.0
C      1  0.5272730000000  0.5176370000000  0.4905500000000 1.0
C      1  0.5072240000000  0.5108960000000  0.4297710000000 1.0
C      1  0.5162680000000  0.5054630000000  0.5559590000000 1.0
C      1  0.5466840000000  0.4345760000000  0.4976940000000 1.0
C      1  0.5361450000000  0.4477280000000  0.5264660000000 1.0
C      1  0.5498690000000  0.5534420000000  0.5336280000000 1.0
C      1  0.5462460000000  0.5541960000000  0.4726500000000 1.0
C      1  0.5336120000000  0.5172300000000  0.4433990000000 1.0
C      1  0.5519920000000  0.5202910000000  0.5658110000000 1.0
C      1  0.5320300000000  0.5458810000000  0.4508300000000 1.0
C      1  0.5379890000000  0.5443920000000  0.5583240000000 1.0
C      1  0.5544310000000  0.5261920000000  0.5201930000000 1.0
C      1  0.5585440000000  0.5305990000000  0.4873230000000 1.0
C      1  0.4855800000000  0.4404120000000  0.5202510000000 1.0
C      1  0.4918110000000  0.4337820000000  0.4659200000000 1.0
C      1  0.4569580000000  0.4924980000000  0.5168110000000 1.0
C      1  0.4582930000000  0.4894960000000  0.4829480000000 1.0
C      1  0.4630010000000  0.5594770000000  0.5419680000000 1.0
C      1  0.4622900000000  0.5598290000000  0.4569250000000 1.0
C      1  0.4818530000000  0.5154570000000  0.5136760000000 1.0
C      1  0.4944730000000  0.5213110000000  0.4823420000000 1.0
C      1  0.4206280000000  0.5079290000000  0.4555780000000 1.0
C      1  0.4257930000000  0.5054880000000  0.5195530000000 1.0
C      1  0.5088880000000  0.4489690000000  0.4324990000000 1.0
C      1  0.5198770000000  0.4508020000000  0.5738040000000 1.0
C      1  0.4684280000000  0.4669420000000  0.5676220000000 1.0
C      1  0.4588310000000  0.4677400000000  0.4376220000000 1.0
C      1  0.5406000000000  0.5753150000000  0.5190010000000 1.0
C      1  0.5360760000000  0.5749260000000  0.4882330000000 1.0
C      1  0.4642270000000  0.5368710000000  0.4819380000000 1.0
C      1  0.4603270000000  0.5396310000000  0.5144870000000 1.0
C      1  0.5856490000000  0.4747960000000  0.5655080000000 1.0
C      1  0.5750440000000  0.4634300000000  0.4420050000000 1.0
C      1  0.5501190000000  0.4660620000000  0.4591140000000 1.0
C      1  0.5635910000000  0.4723060000000  0.5485290000000 1.0
C      1  0.4443100000000  0.4604320000000  0.5194460000000 1.0
C      1  0.4374050000000  0.4676350000000  0.4709830000000 1.0
END
