TITL C-3289320-4661-84 1.14494404049569e-07 125000 -86.1915209922962 0 0 18 (C1) n - 1
REM
REM in /nfs/bkarasulu/CARBON/AIRSS/Generating-Clusters/AIREBO/with-SteepDescent/Higher-Symm/SD-CG/HFTN-CG
REM
REM
REM
REM
REM
REM ./C.cell (b20cbc046b6831c77cfcea5457e17084)
REM
REM compiler GCC version 9.2.1 20190827 (Red Hat 9.2.1-1)
REM options -cpp -mtune=generic -march=x86-64 -g -O0 -fpre-include=/usr/include/finclude/math-vector-fortran.h
REM seed 1927236351 915932373 -1359476726 553797361 2060572576 -1878938699 1850631335 -222903110 -770456429 1851932307 -1653212757 1652831502 316257968 -1899731550 1289664000 1791822571 -287767870 -1571265392 -1434396273 -343961058 -1966897143 964275113 2083605939 1753815680 -422469478 -1487213988 156202008 1223725486 -1123934980 -165775958 1435193806 1456085027 -653963131
REM
CELL 1.54180   50.00000   50.00000   50.00000   90.00000   90.00000   90.00000
LATT -1
SFAC C  
C      1  0.5081380000000  0.4684780000000  0.4704030000000 1.0
C      1  0.5838870000000  0.5007470000000  0.5098690000000 1.0
C      1  0.4413660000000  0.5210610000000  0.4772260000000 1.0
C      1  0.4606470000000  0.4586330000000  0.5017670000000 1.0
C      1  0.4920660000000  0.5299660000000  0.4720350000000 1.0
C      1  0.4657200000000  0.5050430000000  0.5441620000000 1.0
C      1  0.5234880000000  0.4501910000000  0.5186230000000 1.0
C      1  0.5647000000000  0.5165010000000  0.5017190000000 1.0
C      1  0.4556410000000  0.4981460000000  0.4704100000000 1.0
C      1  0.4437040000000  0.5260480000000  0.5045910000000 1.0
C      1  0.5352700000000  0.5207470000000  0.4890380000000 1.0
C      1  0.5141950000000  0.4760410000000  0.5178040000000 1.0
C      1  0.5560200000000  0.5454680000000  0.4904000000000 1.0
C      1  0.4598040000000  0.5063470000000  0.5175570000000 1.0
C      1  0.5008100000000  0.4855060000000  0.4921810000000 1.0
C      1  0.5095520000000  0.5139840000000  0.4860300000000 1.0
C      1  0.4702220000000  0.4846910000000  0.4963350000000 1.0
C      1  0.5147710000000  0.4924030000000  0.5398510000000 1.0
END
