TITL C-3289323-3850-173 -0.00556184598626 125000 -970.788997191049 0 0 179 (C1) n - 1
REM
REM in /nfs/bkarasulu/CARBON/AIRSS/Generating-Clusters/AIREBO/with-SteepDescent/Higher-Symm/SD-CG/HFTN-CG
REM
REM
REM
REM
REM
REM ./C.cell (b20cbc046b6831c77cfcea5457e17084)
REM
REM compiler GCC version 9.2.1 20190827 (Red Hat 9.2.1-1)
REM options -cpp -mtune=generic -march=x86-64 -g -O0 -fpre-include=/usr/include/finclude/math-vector-fortran.h
REM seed 136862768 -275753095 593516607 -2112913350 445566633 287807941 -645625475 -2124990323 2134251482 571287376 676002573 1299681909 -1519310444 741367117 1691845547 -11378533 913550908 1166198181 -817457054 1764517458 -59146046 -1235834491 1216640251 -875877109 1279564343 -312522443 -1315549311 1643267089 274888682 -525812469 845815328 -1951100872 -370832398
REM
CELL 1.54180   50.00000   50.00000   50.00000   90.00000   90.00000   90.00000
LATT -1
SFAC C  
C      1  0.5530530000000  0.4079600000000  0.5052080000000 1.0
C      1  0.3974860000000  0.5141180000000  0.5386190000000 1.0
C      1  0.5264530000000  0.5243550000000  0.4131180000000 1.0
C      1  0.5255390000000  0.5986910000000  0.4734810000000 1.0
C      1  0.4601310000000  0.4010270000000  0.4972300000000 1.0
C      1  0.4565280000000  0.5997400000000  0.5138120000000 1.0
C      1  0.4039550000000  0.4834890000000  0.4471240000000 1.0
C      1  0.6101050000000  0.5239570000000  0.4733340000000 1.0
C      1  0.5924620000000  0.4892560000000  0.5478600000000 1.0
C      1  0.5185810000000  0.4505870000000  0.5938470000000 1.0
C      1  0.4778890000000  0.5302830000000  0.5965050000000 1.0
C      1  0.4861500000000  0.4636050000000  0.4137660000000 1.0
C      1  0.5896300000000  0.4512900000000  0.5367850000000 1.0
C      1  0.4365250000000  0.5435930000000  0.5687200000000 1.0
C      1  0.5339220000000  0.5660400000000  0.4392180000000 1.0
C      1  0.5746370000000  0.5671160000000  0.4592980000000 1.0
C      1  0.4136810000000  0.4465210000000  0.4573780000000 1.0
C      1  0.4130070000000  0.5484220000000  0.5254740000000 1.0
C      1  0.4465470000000  0.4685450000000  0.4124030000000 1.0
C      1  0.5719810000000  0.5374170000000  0.4242300000000 1.0
C      1  0.5525080000000  0.4668980000000  0.5815140000000 1.0
C      1  0.5385050000000  0.4219890000000  0.5483310000000 1.0
C      1  0.4652640000000  0.5780770000000  0.5462560000000 1.0
C      1  0.4522720000000  0.4247370000000  0.4356300000000 1.0
C      1  0.4482730000000  0.5732100000000  0.4638300000000 1.0
C      1  0.5805690000000  0.4688860000000  0.4521520000000 1.0
C      1  0.4619230000000  0.4483670000000  0.5709880000000 1.0
C      1  0.4381120000000  0.4144980000000  0.5421960000000 1.0
C      1  0.5678330000000  0.5603870000000  0.5198760000000 1.0
C      1  0.5601220000000  0.4066610000000  0.4560760000000 1.0
C      1  0.5678310000000  0.5324510000000  0.5480200000000 1.0
C      1  0.4305030000000  0.4702970000000  0.5418480000000 1.0
C      1  0.4272530000000  0.5280770000000  0.4470580000000 1.0
C      1  0.4761730000000  0.5610900000000  0.4302240000000 1.0
C      1  0.5535170000000  0.4228370000000  0.4081000000000 1.0
C      1  0.5335150000000  0.5592190000000  0.5729230000000 1.0
C      1  0.5565200000000  0.5939230000000  0.5374740000000 1.0
C      1  0.6013690000000  0.5274650000000  0.5443130000000 1.0
C      1  0.5446110000000  0.5403460000000  0.6145480000000 1.0
C      1  0.5346400000000  0.3935930000000  0.4612880000000 1.0
C      1  0.4442770000000  0.6053510000000  0.4595370000000 1.0
C      1  0.4578180000000  0.3970370000000  0.5492850000000 1.0
C      1  0.5875950000000  0.4402940000000  0.4351600000000 1.0
C      1  0.3996230000000  0.5476220000000  0.4437140000000 1.0
C      1  0.4120310000000  0.4608060000000  0.5687720000000 1.0
C      1  0.5369970000000  0.4501260000000  0.3976230000000 1.0
C      1  0.4477210000000  0.5613370000000  0.4123310000000 1.0
C      1  0.4666720000000  0.4545120000000  0.5975160000000 1.0
C      1  0.4699960000000  0.5360230000000  0.4079700000000 1.0
C      1  0.5131490000000  0.4012070000000  0.4788820000000 1.0
C      1  0.4131900000000  0.4756610000000  0.5130070000000 1.0
C      1  0.4683410000000  0.4839040000000  0.6084920000000 1.0
C      1  0.5298590000000  0.5298700000000  0.5898670000000 1.0
C      1  0.5373960000000  0.4766500000000  0.4060610000000 1.0
C      1  0.5306390000000  0.6039300000000  0.5386930000000 1.0
C      1  0.4856310000000  0.4050840000000  0.5349450000000 1.0
C      1  0.4768730000000  0.5880770000000  0.4747350000000 1.0
C      1  0.4015150000000  0.5239250000000  0.4689060000000 1.0
C      1  0.5958160000000  0.4740190000000  0.4813840000000 1.0
C      1  0.6117100000000  0.5359400000000  0.5200450000000 1.0
C      1  0.5100920000000  0.4214300000000  0.4326260000000 1.0
C      1  0.4281730000000  0.4452200000000  0.5107220000000 1.0
C      1  0.4412710000000  0.5218440000000  0.4103090000000 1.0
C      1  0.5185330000000  0.5951310000000  0.5646840000000 1.0
C      1  0.4879650000000  0.4195690000000  0.5624790000000 1.0
C      1  0.4784800000000  0.5893460000000  0.4431730000000 1.0
C      1  0.4038630000000  0.5551070000000  0.4822560000000 1.0
C      1  0.5822970000000  0.4426990000000  0.4819110000000 1.0
C      1  0.6001330000000  0.5611130000000  0.5139310000000 1.0
C      1  0.4434020000000  0.4862800000000  0.5910650000000 1.0
C      1  0.5529540000000  0.5098110000000  0.5764220000000 1.0
C      1  0.5568510000000  0.4793040000000  0.4301170000000 1.0
C      1  0.5685510000000  0.4943290000000  0.4804670000000 1.0
C      1  0.4848110000000  0.4856440000000  0.5627650000000 1.0
C      1  0.4756930000000  0.5577830000000  0.4901280000000 1.0
C      1  0.5634790000000  0.5063800000000  0.5118540000000 1.0
C      1  0.4389180000000  0.4978910000000  0.5126490000000 1.0
C      1  0.4385660000000  0.5099750000000  0.4807460000000 1.0
C      1  0.4899590000000  0.5182420000000  0.4374840000000 1.0
C      1  0.5067540000000  0.4808230000000  0.4578760000000 1.0
C      1  0.5131640000000  0.5214040000000  0.5614760000000 1.0
C      1  0.4764680000000  0.4253810000000  0.5129120000000 1.0
C      1  0.5257430000000  0.5720500000000  0.5140260000000 1.0
C      1  0.5160850000000  0.4327670000000  0.4843180000000 1.0
C      1  0.3898710000000  0.5764430000000  0.4853420000000 1.0
C      1  0.5875460000000  0.4690920000000  0.4192690000000 1.0
C      1  0.4899350000000  0.4154550000000  0.5878640000000 1.0
C      1  0.4370620000000  0.4190170000000  0.5146770000000 1.0
C      1  0.5853360000000  0.5895070000000  0.5240220000000 1.0
C      1  0.5727580000000  0.4153740000000  0.4808240000000 1.0
C      1  0.5848120000000  0.5116000000000  0.5688350000000 1.0
C      1  0.4175290000000  0.4748110000000  0.5916690000000 1.0
C      1  0.4128200000000  0.5206570000000  0.4171510000000 1.0
C      1  0.4826990000000  0.6114200000000  0.4299420000000 1.0
C      1  0.5218880000000  0.4239410000000  0.4080670000000 1.0
C      1  0.5263280000000  0.5867010000000  0.5916210000000 1.0
C      1  0.5220350000000  0.5254240000000  0.4462070000000 1.0
C      1  0.5441950000000  0.4377690000000  0.4971430000000 1.0
C      1  0.4238020000000  0.5095450000000  0.5407910000000 1.0
C      1  0.5142380000000  0.4689900000000  0.5666560000000 1.0
C      1  0.4821320000000  0.5321170000000  0.5646700000000 1.0
C      1  0.4836550000000  0.4651970000000  0.4455370000000 1.0
C      1  0.5400980000000  0.5717970000000  0.4831910000000 1.0
C      1  0.4589210000000  0.4323030000000  0.4839470000000 1.0
C      1  0.4522380000000  0.5757010000000  0.5035070000000 1.0
C      1  0.4351390000000  0.4857800000000  0.4606060000000 1.0
C      1  0.5807390000000  0.5217070000000  0.4644050000000 1.0
C      1  0.5662150000000  0.4833490000000  0.5324440000000 1.0
C      1  0.5182340000000  0.4459770000000  0.5419170000000 1.0
C      1  0.4402080000000  0.5470370000000  0.5091200000000 1.0
C      1  0.5547210000000  0.5165500000000  0.4431250000000 1.0
C      1  0.5190660000000  0.5513090000000  0.4660300000000 1.0
C      1  0.4714300000000  0.4364990000000  0.4562050000000 1.0
C      1  0.4874460000000  0.5563290000000  0.5440210000000 1.0
C      1  0.4386480000000  0.4573970000000  0.4745730000000 1.0
C      1  0.5569270000000  0.5431820000000  0.4757380000000 1.0
C      1  0.5658050000000  0.4564470000000  0.5156100000000 1.0
C      1  0.5425880000000  0.4790380000000  0.5532510000000 1.0
C      1  0.4536780000000  0.5204390000000  0.5528320000000 1.0
C      1  0.4575400000000  0.4820240000000  0.4385250000000 1.0
C      1  0.5012090000000  0.6030170000000  0.4867170000000 1.0
C      1  0.6119310000000  0.4747080000000  0.5289410000000 1.0
C      1  0.4871700000000  0.5061730000000  0.6092620000000 1.0
C      1  0.5355400000000  0.4008370000000  0.5265200000000 1.0
C      1  0.4790630000000  0.6026280000000  0.5311620000000 1.0
C      1  0.4932680000000  0.3923530000000  0.4978640000000 1.0
C      1  0.6168380000000  0.5155230000000  0.4998970000000 1.0
C      1  0.4014960000000  0.4715980000000  0.4768600000000 1.0
C      1  0.3911520000000  0.5258430000000  0.5124570000000 1.0
C      1  0.4728530000000  0.4855900000000  0.3991550000000 1.0
C      1  0.5211630000000  0.4988630000000  0.3999290000000 1.0
C      1  0.5288360000000  0.4796690000000  0.6023220000000 1.0
C      1  0.5409990000000  0.5118430000000  0.5444480000000 1.0
C      1  0.5156730000000  0.5675020000000  0.5450750000000 1.0
C      1  0.5528410000000  0.5385040000000  0.5085210000000 1.0
C      1  0.5371400000000  0.4901800000000  0.4554660000000 1.0
C      1  0.4572370000000  0.5132020000000  0.4384500000000 1.0
C      1  0.4525170000000  0.4876980000000  0.5613900000000 1.0
C      1  0.5013850000000  0.4309990000000  0.4555640000000 1.0
C      1  0.4867610000000  0.5532930000000  0.4582930000000 1.0
C      1  0.4851980000000  0.4499370000000  0.5474340000000 1.0
C      1  0.5571890000000  0.4648760000000  0.4849200000000 1.0
C      1  0.4353130000000  0.5435680000000  0.4764120000000 1.0
C      1  0.4510330000000  0.4675000000000  0.5030500000000 1.0
C      1  0.5894370000000  0.5544270000000  0.4384840000000 1.0
C      1  0.5425240000000  0.4344990000000  0.5789180000000 1.0
C      1  0.4325520000000  0.5733060000000  0.5380280000000 1.0
C      1  0.5773880000000  0.4521170000000  0.5685200000000 1.0
C      1  0.4115570000000  0.5460710000000  0.5580020000000 1.0
C      1  0.4184930000000  0.4540070000000  0.4245330000000 1.0
C      1  0.5436640000000  0.5470010000000  0.4197000000000 1.0
C      1  0.4529480000000  0.4370470000000  0.4113790000000 1.0
C      1  0.4506330000000  0.5665970000000  0.5729590000000 1.0
C      1  0.4271610000000  0.4199650000000  0.4454860000000 1.0
C      1  0.5542010000000  0.5844900000000  0.4480590000000 1.0
C      1  0.5695680000000  0.4274780000000  0.5503660000000 1.0
C      1  0.5092320000000  0.4517120000000  0.5098940000000 1.0
C      1  0.4597500000000  0.5239920000000  0.5190700000000 1.0
C      1  0.4901950000000  0.5239420000000  0.4702030000000 1.0
C      1  0.5202070000000  0.5418430000000  0.4994290000000 1.0
C      1  0.4772030000000  0.4569750000000  0.5089710000000 1.0
C      1  0.4899120000000  0.5391150000000  0.5148030000000 1.0
C      1  0.4689100000000  0.5106240000000  0.4894770000000 1.0
C      1  0.5404830000000  0.5135170000000  0.4800360000000 1.0
C      1  0.5313410000000  0.5053000000000  0.5122300000000 1.0
C      1  0.4947520000000  0.4800210000000  0.5338390000000 1.0
C      1  0.4986360000000  0.5124850000000  0.5340640000000 1.0
C      1  0.4953740000000  0.4936790000000  0.4827850000000 1.0
C      1  0.5060930000000  0.5996500000000  0.5174860000000 1.0
C      1  0.5097640000000  0.3895340000000  0.5237960000000 1.0
C      1  0.4001920000000  0.5001360000000  0.4932130000000 1.0
C      1  0.4897790000000  0.5112600000000  0.4047140000000 1.0
C      1  0.6138170000000  0.4866350000000  0.5033020000000 1.0
C      1  0.5151340000000  0.5031670000000  0.6049580000000 1.0
C      1  0.5684100000000  0.4202100000000  0.4322440000000 1.0
C      1  0.4350390000000  0.4403260000000  0.5575240000000 1.0
C      1  0.5586710000000  0.5633120000000  0.5524880000000 1.0
C      1  0.4309880000000  0.5608810000000  0.4389130000000 1.0
C      1  0.5096990000000  0.4854570000000  0.5067850000000 1.0
END
