TITL C-3289332-8317-102 0.000208412764055184 125000 -426.74508843445 0 0 79 (C1) n - 1
REM
REM in /nfs/bkarasulu/CARBON/AIRSS/Generating-Clusters/AIREBO/with-SteepDescent/Higher-Symm/SD-CG/HFTN-CG
REM
REM
REM
REM
REM
REM ./C.cell (b20cbc046b6831c77cfcea5457e17084)
REM
REM compiler GCC version 9.2.1 20190827 (Red Hat 9.2.1-1)
REM options -cpp -mtune=generic -march=x86-64 -g -O0 -fpre-include=/usr/include/finclude/math-vector-fortran.h
REM seed 528015126 -773518653 -538172337 -1854659381 7284714 -1729259319 891217097 -17665117 1623005536 1581593798 626513596 -1117323512 -390088484 -77647753 -1195809024 -982307009 -15703169 -1298474545 -2130411124 944539991 970641326 1939273381 -1315356298 -1403471826 -745420810 -2057937358 210708573 1015861524 696544037 -1074035061 -317680489 -2039434364 -234442952
REM
CELL 1.54180   50.00000   50.00000   50.00000   90.00000   90.00000   90.00000
LATT -1
SFAC C  
C      1  0.4163940000000  0.4927860000000  0.5504780000000 1.0
C      1  0.3966400000000  0.4979200000000  0.5010480000000 1.0
C      1  0.4125560000000  0.4963700000000  0.4398920000000 1.0
C      1  0.4668310000000  0.4935200000000  0.4097780000000 1.0
C      1  0.5278040000000  0.5208400000000  0.4187570000000 1.0
C      1  0.5766970000000  0.5246470000000  0.4470150000000 1.0
C      1  0.6005320000000  0.4982270000000  0.4845940000000 1.0
C      1  0.5716080000000  0.5154880000000  0.5373790000000 1.0
C      1  0.5519240000000  0.5053590000000  0.5785460000000 1.0
C      1  0.5035910000000  0.5069180000000  0.6042300000000 1.0
C      1  0.4473660000000  0.5231520000000  0.5665610000000 1.0
C      1  0.5548000000000  0.5782170000000  0.5045920000000 1.0
C      1  0.5437400000000  0.5700650000000  0.5339200000000 1.0
C      1  0.5171960000000  0.5817100000000  0.5458270000000 1.0
C      1  0.4868190000000  0.5767790000000  0.5490100000000 1.0
C      1  0.4599900000000  0.5686620000000  0.5357120000000 1.0
C      1  0.4523570000000  0.5719370000000  0.5080020000000 1.0
C      1  0.4596380000000  0.5812800000000  0.4803730000000 1.0
C      1  0.4771110000000  0.5750640000000  0.4562760000000 1.0
C      1  0.5075780000000  0.5811700000000  0.4505140000000 1.0
C      1  0.5362820000000  0.5680370000000  0.4528390000000 1.0
C      1  0.5555340000000  0.5679850000000  0.4744660000000 1.0
C      1  0.4722580000000  0.5217940000000  0.4510630000000 1.0
C      1  0.5021820000000  0.5322740000000  0.4470830000000 1.0
C      1  0.5295770000000  0.5173440000000  0.4584260000000 1.0
C      1  0.5538530000000  0.5158380000000  0.4808460000000 1.0
C      1  0.5496410000000  0.5294320000000  0.5071660000000 1.0
C      1  0.5323010000000  0.5183180000000  0.5329910000000 1.0
C      1  0.5109410000000  0.5332100000000  0.5495910000000 1.0
C      1  0.4813000000000  0.5246410000000  0.5460010000000 1.0
C      1  0.4533710000000  0.5181440000000  0.5274000000000 1.0
C      1  0.4415320000000  0.5182540000000  0.4972330000000 1.0
C      1  0.4492340000000  0.5337500000000  0.4712300000000 1.0
C      1  0.5051360000000  0.4425110000000  0.5779530000000 1.0
C      1  0.4497230000000  0.4527680000000  0.5755260000000 1.0
C      1  0.4405550000000  0.4387630000000  0.5211700000000 1.0
C      1  0.4231840000000  0.4380460000000  0.4998220000000 1.0
C      1  0.4385020000000  0.4397960000000  0.4476580000000 1.0
C      1  0.4939400000000  0.4524110000000  0.4586120000000 1.0
C      1  0.5149620000000  0.4516780000000  0.4402480000000 1.0
C      1  0.5764820000000  0.4636660000000  0.4248680000000 1.0
C      1  0.5599100000000  0.4459760000000  0.4858800000000 1.0
C      1  0.5564780000000  0.4456350000000  0.5131100000000 1.0
C      1  0.5300220000000  0.4467380000000  0.5677370000000 1.0
C      1  0.5674440000000  0.5506020000000  0.5084410000000 1.0
C      1  0.5527880000000  0.5429010000000  0.5444850000000 1.0
C      1  0.5194130000000  0.5557560000000  0.5621770000000 1.0
C      1  0.4799870000000  0.5521030000000  0.5660210000000 1.0
C      1  0.4467640000000  0.5446820000000  0.5456070000000 1.0
C      1  0.4339830000000  0.5486150000000  0.5079150000000 1.0
C      1  0.4399070000000  0.5597980000000  0.4701340000000 1.0
C      1  0.4648800000000  0.5530830000000  0.4399880000000 1.0
C      1  0.5036650000000  0.5563470000000  0.4329480000000 1.0
C      1  0.5403200000000  0.5423710000000  0.4380720000000 1.0
C      1  0.5703470000000  0.5433030000000  0.4694160000000 1.0
C      1  0.5730380000000  0.4929300000000  0.4888510000000 1.0
C      1  0.5662470000000  0.4919080000000  0.5203480000000 1.0
C      1  0.5289050000000  0.4987530000000  0.5588870000000 1.0
C      1  0.5017670000000  0.4994690000000  0.5750400000000 1.0
C      1  0.4708190000000  0.4987340000000  0.5633190000000 1.0
C      1  0.4392090000000  0.4929670000000  0.5373640000000 1.0
C      1  0.4226260000000  0.4959170000000  0.4907360000000 1.0
C      1  0.4248090000000  0.4864650000000  0.4605520000000 1.0
C      1  0.4813300000000  0.4958290000000  0.4342080000000 1.0
C      1  0.5135310000000  0.4973540000000  0.4278010000000 1.0
C      1  0.5567170000000  0.5063170000000  0.4422480000000 1.0
C      1  0.4747000000000  0.4716150000000  0.4534130000000 1.0
C      1  0.5287300000000  0.4751440000000  0.4345060000000 1.0
C      1  0.5587420000000  0.4755760000000  0.4429310000000 1.0
C      1  0.5633430000000  0.4688440000000  0.4722600000000 1.0
C      1  0.5523590000000  0.4688480000000  0.5282250000000 1.0
C      1  0.5314580000000  0.4701510000000  0.5481510000000 1.0
C      1  0.4972580000000  0.4689540000000  0.5613780000000 1.0
C      1  0.4656060000000  0.4686360000000  0.5547290000000 1.0
C      1  0.4519940000000  0.4668240000000  0.5261180000000 1.0
C      1  0.4374960000000  0.4662250000000  0.4923490000000 1.0
C      1  0.4467730000000  0.4636000000000  0.4601780000000 1.0
C      1  0.4936860000000  0.4359400000000  0.4807850000000 1.0
C      1  0.4921470000000  0.4185990000000  0.5003820000000 1.0
END
