TITL C-3289326-3776-430 -0.00676217288374804 125000 -346.625163001882 0 0 66 (C1) n - 1
REM
REM in /nfs/bkarasulu/CARBON/AIRSS/Generating-Clusters/AIREBO/with-SteepDescent/Higher-Symm/SD-CG/HFTN-CG
REM
REM
REM
REM
REM
REM ./C.cell (b20cbc046b6831c77cfcea5457e17084)
REM
REM compiler GCC version 9.2.1 20190827 (Red Hat 9.2.1-1)
REM options -cpp -mtune=generic -march=x86-64 -g -O0 -fpre-include=/usr/include/finclude/math-vector-fortran.h
REM seed 363901727 -1431098526 -1064773407 442805088 1324019148 112177780 -892991770 -1658293514 -1199833383 -178162832 -547126257 1246910514 -1267653141 336222740 -1940605397 768704213 1910684081 -908433713 -776769355 -1997644554 1882781056 1557398950 -302431029 1635868072 -1714232253 2145936351 651657888 1146864387 -2000227556 1077285477 -1955112257 -246159114 1397172998
REM
CELL 1.54180   50.00000   50.00000   50.00000   90.00000   90.00000   90.00000
LATT -1
SFAC C  
C      1  0.5208040000000  0.5404860000000  0.5476090000000 1.0
C      1  0.5313140000000  0.5384880000000  0.4560090000000 1.0
C      1  0.4462960000000  0.5369270000000  0.4903000000000 1.0
C      1  0.4709390000000  0.5675260000000  0.4610340000000 1.0
C      1  0.4774660000000  0.5649830000000  0.5444350000000 1.0
C      1  0.5492400000000  0.5659850000000  0.4978350000000 1.0
C      1  0.5285870000000  0.5319200000000  0.5007520000000 1.0
C      1  0.4875590000000  0.5341610000000  0.4755220000000 1.0
C      1  0.4834040000000  0.5311980000000  0.5238780000000 1.0
C      1  0.4525840000000  0.4468600000000  0.5253290000000 1.0
C      1  0.5453140000000  0.4470480000000  0.5290650000000 1.0
C      1  0.5013700000000  0.4456630000000  0.4471600000000 1.0
C      1  0.5188640000000  0.4934140000000  0.5004170000000 1.0
C      1  0.4876940000000  0.4946450000000  0.4757060000000 1.0
C      1  0.4902200000000  0.4929540000000  0.5154350000000 1.0
C      1  0.5580800000000  0.5124190000000  0.4072640000000 1.0
C      1  0.3901900000000  0.5117290000000  0.5006260000000 1.0
C      1  0.5547670000000  0.5140240000000  0.5948630000000 1.0
C      1  0.5198030000000  0.4319220000000  0.4676020000000 1.0
C      1  0.4611980000000  0.4322610000000  0.4996410000000 1.0
C      1  0.5187440000000  0.4328340000000  0.5355000000000 1.0
C      1  0.5759830000000  0.4839680000000  0.4708290000000 1.0
C      1  0.4372570000000  0.4873740000000  0.4505050000000 1.0
C      1  0.4868330000000  0.4838250000000  0.5815770000000 1.0
C      1  0.5782270000000  0.5082630000000  0.4822540000000 1.0
C      1  0.4473050000000  0.5119880000000  0.4470290000000 1.0
C      1  0.4753840000000  0.5077840000000  0.5775290000000 1.0
C      1  0.5473310000000  0.4864830000000  0.5036190000000 1.0
C      1  0.4780850000000  0.4861270000000  0.4496960000000 1.0
C      1  0.4736590000000  0.4865860000000  0.5388560000000 1.0
C      1  0.5074640000000  0.4154860000000  0.5183820000000 1.0
C      1  0.5111510000000  0.4148790000000  0.4864310000000 1.0
C      1  0.4817270000000  0.4149920000000  0.4991950000000 1.0
C      1  0.4894970000000  0.5613830000000  0.5171670000000 1.0
C      1  0.5193920000000  0.5619720000000  0.5008570000000 1.0
C      1  0.4904180000000  0.5646440000000  0.4837560000000 1.0
C      1  0.4761030000000  0.4570950000000  0.4492560000000 1.0
C      1  0.4700380000000  0.4581670000000  0.5437410000000 1.0
C      1  0.5525950000000  0.4579070000000  0.5045720000000 1.0
C      1  0.5065800000000  0.5488230000000  0.5665230000000 1.0
C      1  0.5530110000000  0.5498370000000  0.4614810000000 1.0
C      1  0.4384420000000  0.5453290000000  0.4681190000000 1.0
C      1  0.5582830000000  0.5171810000000  0.5083260000000 1.0
C      1  0.4803750000000  0.5197990000000  0.4455460000000 1.0
C      1  0.4632140000000  0.5165700000000  0.5470040000000 1.0
C      1  0.4145530000000  0.5062080000000  0.5097470000000 1.0
C      1  0.5503240000000  0.5079240000000  0.5693650000000 1.0
C      1  0.5373920000000  0.5068460000000  0.4230200000000 1.0
C      1  0.5083540000000  0.5148440000000  0.4321130000000 1.0
C      1  0.4366260000000  0.5119220000000  0.5312840000000 1.0
C      1  0.5573010000000  0.5133320000000  0.5391940000000 1.0
C      1  0.4448470000000  0.4924900000000  0.5043280000000 1.0
C      1  0.5305560000000  0.4933290000000  0.5463910000000 1.0
C      1  0.5253620000000  0.4918940000000  0.4506400000000 1.0
C      1  0.5152600000000  0.5144860000000  0.4739670000000 1.0
C      1  0.4703180000000  0.5139990000000  0.4976150000000 1.0
C      1  0.5137650000000  0.5149830000000  0.5262490000000 1.0
C      1  0.4482960000000  0.4634470000000  0.4632050000000 1.0
C      1  0.4935840000000  0.4624570000000  0.5634630000000 1.0
C      1  0.5576130000000  0.4617700000000  0.4741900000000 1.0
C      1  0.5699600000000  0.5412190000000  0.4872780000000 1.0
C      1  0.4572750000000  0.5443680000000  0.4411580000000 1.0
C      1  0.4756250000000  0.5406230000000  0.5676110000000 1.0
C      1  0.4479040000000  0.4632500000000  0.4952640000000 1.0
C      1  0.5223840000000  0.4640360000000  0.5485160000000 1.0
C      1  0.5299130000000  0.4626670000000  0.4571750000000 1.0
END
