TITL C-3289323-3850-162 370.052020184029 125000 -851.788047313609 0 0 155 (C1) n - 1
REM
REM in /nfs/bkarasulu/CARBON/AIRSS/Generating-Clusters/AIREBO/with-SteepDescent/Higher-Symm/SD-CG/HFTN-CG
REM
REM
REM
REM
REM
REM ./C.cell (b20cbc046b6831c77cfcea5457e17084)
REM
REM compiler GCC version 9.2.1 20190827 (Red Hat 9.2.1-1)
REM options -cpp -mtune=generic -march=x86-64 -g -O0 -fpre-include=/usr/include/finclude/math-vector-fortran.h
REM seed 158413180 2073674563 -1904051544 586729350 -1577754248 147508699 462613741 -1191149100 1842499427 -1925598816 -1924309935 -575016939 -1413328144 -1813193370 -1405678875 -574008521 -282956200 120711507 990940654 1131640314 -775880054 1888003369 -444768538 678952100 421528117 1984017718 -1175683524 718097121 -1280552410 -1047895852 -381128876 1927410827 -1705400411
REM
CELL 1.54180   50.00000   50.00000   50.00000   90.00000   90.00000   90.00000
LATT -1
SFAC C  
C      1  0.4964490000000  0.5227150000000  0.3884350000000 1.0
C      1  0.4254780000000  0.5187230000000  0.4096590000000 1.0
C      1  0.3877920000000  0.5274400000000  0.4692340000000 1.0
C      1  0.3997950000000  0.5148780000000  0.5385160000000 1.0
C      1  0.4621920000000  0.5174390000000  0.5961890000000 1.0
C      1  0.5379330000000  0.5224970000000  0.6050060000000 1.0
C      1  0.5986190000000  0.5243700000000  0.5547180000000 1.0
C      1  0.6137730000000  0.5205490000000  0.4844940000000 1.0
C      1  0.5661060000000  0.5182120000000  0.4146970000000 1.0
C      1  0.5174930000000  0.5993900000000  0.4701910000000 1.0
C      1  0.4894890000000  0.6075740000000  0.4661310000000 1.0
C      1  0.4713360000000  0.6196900000000  0.4832260000000 1.0
C      1  0.4633250000000  0.6059650000000  0.5059840000000 1.0
C      1  0.4752150000000  0.5948230000000  0.5307440000000 1.0
C      1  0.4976250000000  0.6074430000000  0.5418080000000 1.0
C      1  0.5227870000000  0.5973350000000  0.5353500000000 1.0
C      1  0.5403730000000  0.6038160000000  0.5121860000000 1.0
C      1  0.5359830000000  0.6128180000000  0.4862320000000 1.0
C      1  0.5253150000000  0.5289510000000  0.4781450000000 1.0
C      1  0.5240630000000  0.5389190000000  0.4454410000000 1.0
C      1  0.4837480000000  0.5114060000000  0.4747570000000 1.0
C      1  0.4602990000000  0.5320990000000  0.4813790000000 1.0
C      1  0.4710190000000  0.5221760000000  0.5109440000000 1.0
C      1  0.4760020000000  0.5300480000000  0.5425510000000 1.0
C      1  0.5093360000000  0.5251370000000  0.5473770000000 1.0
C      1  0.5377150000000  0.5339220000000  0.5322870000000 1.0
C      1  0.5431480000000  0.5183720000000  0.5042490000000 1.0
C      1  0.5288900000000  0.4730820000000  0.4144880000000 1.0
C      1  0.4672900000000  0.4748790000000  0.4166660000000 1.0
C      1  0.4156160000000  0.4680770000000  0.4557230000000 1.0
C      1  0.4130750000000  0.4759820000000  0.5153960000000 1.0
C      1  0.4392460000000  0.4651880000000  0.5758930000000 1.0
C      1  0.5024880000000  0.4714710000000  0.5908290000000 1.0
C      1  0.5628480000000  0.4727200000000  0.5709490000000 1.0
C      1  0.5889320000000  0.4769900000000  0.5147410000000 1.0
C      1  0.5722320000000  0.4752040000000  0.4557690000000 1.0
C      1  0.4777120000000  0.4975820000000  0.4506550000000 1.0
C      1  0.4423250000000  0.5047660000000  0.4832270000000 1.0
C      1  0.4577910000000  0.4952850000000  0.5186920000000 1.0
C      1  0.4677630000000  0.4974300000000  0.5482840000000 1.0
C      1  0.5104510000000  0.4939470000000  0.5587410000000 1.0
C      1  0.5582400000000  0.4999190000000  0.5280820000000 1.0
C      1  0.5579820000000  0.4916510000000  0.4893310000000 1.0
C      1  0.5247960000000  0.4964690000000  0.4681000000000 1.0
C      1  0.5037290000000  0.4959590000000  0.4342440000000 1.0
C      1  0.4138950000000  0.4490510000000  0.4938860000000 1.0
C      1  0.4341760000000  0.4405080000000  0.5540110000000 1.0
C      1  0.4871760000000  0.4409830000000  0.5907820000000 1.0
C      1  0.5458980000000  0.4442260000000  0.5771310000000 1.0
C      1  0.5859590000000  0.4471040000000  0.5263560000000 1.0
C      1  0.5808770000000  0.4463100000000  0.4714680000000 1.0
C      1  0.5406530000000  0.4430500000000  0.4227430000000 1.0
C      1  0.4848080000000  0.4453320000000  0.4134420000000 1.0
C      1  0.4302700000000  0.4424030000000  0.4413180000000 1.0
C      1  0.4592820000000  0.4951960000000  0.6068450000000 1.0
C      1  0.5410300000000  0.4981690000000  0.6109110000000 1.0
C      1  0.6054730000000  0.4997710000000  0.5565910000000 1.0
C      1  0.6167020000000  0.4968750000000  0.4768910000000 1.0
C      1  0.5736140000000  0.4946510000000  0.4096210000000 1.0
C      1  0.4962420000000  0.4984780000000  0.3810380000000 1.0
C      1  0.4210650000000  0.4939110000000  0.4102650000000 1.0
C      1  0.3841250000000  0.5036620000000  0.4759520000000 1.0
C      1  0.3969350000000  0.4922100000000  0.5481790000000 1.0
C      1  0.4345150000000  0.4712530000000  0.4243850000000 1.0
C      1  0.3998280000000  0.4780620000000  0.4841440000000 1.0
C      1  0.4159760000000  0.4682570000000  0.5478620000000 1.0
C      1  0.4686340000000  0.4687180000000  0.5926440000000 1.0
C      1  0.5364160000000  0.4728920000000  0.5927640000000 1.0
C      1  0.5886500000000  0.4725920000000  0.5487200000000 1.0
C      1  0.5950270000000  0.4756190000000  0.4813080000000 1.0
C      1  0.5611400000000  0.4700810000000  0.4252150000000 1.0
C      1  0.4975870000000  0.4743660000000  0.4012010000000 1.0
C      1  0.5384890000000  0.4753700000000  0.5311580000000 1.0
C      1  0.5452060000000  0.4654110000000  0.5021730000000 1.0
C      1  0.5281320000000  0.4635690000000  0.4768540000000 1.0
C      1  0.5073880000000  0.4719560000000  0.4555320000000 1.0
C      1  0.4772790000000  0.4651560000000  0.4609820000000 1.0
C      1  0.4604460000000  0.4797280000000  0.4820090000000 1.0
C      1  0.4624110000000  0.4652660000000  0.5089120000000 1.0
C      1  0.4808750000000  0.4681650000000  0.5364660000000 1.0
C      1  0.5102390000000  0.4652700000000  0.5434540000000 1.0
C      1  0.4679900000000  0.3898700000000  0.5168290000000 1.0
C      1  0.4820980000000  0.4089810000000  0.5314390000000 1.0
C      1  0.5076520000000  0.4083650000000  0.5393530000000 1.0
C      1  0.5271920000000  0.3917040000000  0.5288730000000 1.0
C      1  0.5380620000000  0.3996030000000  0.5044510000000 1.0
C      1  0.5298000000000  0.3869380000000  0.4807240000000 1.0
C      1  0.5066800000000  0.3923250000000  0.4655780000000 1.0
C      1  0.4815490000000  0.3809050000000  0.4708950000000 1.0
C      1  0.4642980000000  0.3934170000000  0.4892640000000 1.0
C      1  0.5698150000000  0.4373930000000  0.5539320000000 1.0
C      1  0.5762320000000  0.4333550000000  0.4999520000000 1.0
C      1  0.5544850000000  0.4395700000000  0.4524650000000 1.0
C      1  0.5107360000000  0.4295840000000  0.4260370000000 1.0
C      1  0.4616560000000  0.4393800000000  0.4350270000000 1.0
C      1  0.4291700000000  0.4345640000000  0.4728260000000 1.0
C      1  0.4192830000000  0.4361450000000  0.5244620000000 1.0
C      1  0.4654400000000  0.4379590000000  0.5672800000000 1.0
C      1  0.5157500000000  0.4322730000000  0.5819370000000 1.0
C      1  0.5202580000000  0.5338050000000  0.5782440000000 1.0
C      1  0.5661100000000  0.5317360000000  0.5508940000000 1.0
C      1  0.5864540000000  0.5366060000000  0.4903430000000 1.0
C      1  0.5568380000000  0.5300750000000  0.4432940000000 1.0
C      1  0.5023800000000  0.5331640000000  0.4202530000000 1.0
C      1  0.4481290000000  0.5353080000000  0.4274300000000 1.0
C      1  0.4098180000000  0.5479070000000  0.4730870000000 1.0
C      1  0.4235550000000  0.5328340000000  0.5269310000000 1.0
C      1  0.4580080000000  0.5331120000000  0.5712540000000 1.0
C      1  0.5233260000000  0.5641590000000  0.5382130000000 1.0
C      1  0.5445520000000  0.5718710000000  0.5141130000000 1.0
C      1  0.5354790000000  0.5590650000000  0.4902250000000 1.0
C      1  0.5198170000000  0.5660650000000  0.4638610000000 1.0
C      1  0.4878860000000  0.5759720000000  0.4576520000000 1.0
C      1  0.4682460000000  0.5607810000000  0.4749670000000 1.0
C      1  0.4572270000000  0.5748410000000  0.5014970000000 1.0
C      1  0.4723920000000  0.5609470000000  0.5287610000000 1.0
C      1  0.4967570000000  0.5631820000000  0.5507590000000 1.0
C      1  0.5173640000000  0.4335100000000  0.5512400000000 1.0
C      1  0.5426290000000  0.4431300000000  0.5357270000000 1.0
C      1  0.5441620000000  0.4314310000000  0.5029840000000 1.0
C      1  0.5302400000000  0.4328880000000  0.4716260000000 1.0
C      1  0.5055200000000  0.4212440000000  0.4563890000000 1.0
C      1  0.4769930000000  0.4338200000000  0.4625940000000 1.0
C      1  0.4563950000000  0.4214100000000  0.4825260000000 1.0
C      1  0.4488630000000  0.4376300000000  0.5094600000000 1.0
C      1  0.4691520000000  0.4361180000000  0.5351650000000 1.0
C      1  0.4246280000000  0.4965860000000  0.4588430000000 1.0
C      1  0.4279670000000  0.5040010000000  0.5123070000000 1.0
C      1  0.4482280000000  0.4927280000000  0.5680870000000 1.0
C      1  0.5064590000000  0.5041680000000  0.5880020000000 1.0
C      1  0.5622100000000  0.5005520000000  0.5589000000000 1.0
C      1  0.5815370000000  0.5079660000000  0.5045110000000 1.0
C      1  0.5551560000000  0.5025660000000  0.4586220000000 1.0
C      1  0.5224410000000  0.5064610000000  0.4138160000000 1.0
C      1  0.4562270000000  0.5040310000000  0.4303190000000 1.0
C      1  0.4486150000000  0.5742180000000  0.4260990000000 1.0
C      1  0.4320310000000  0.5723030000000  0.4789320000000 1.0
C      1  0.4201800000000  0.5713830000000  0.5339970000000 1.0
C      1  0.4674170000000  0.5636480000000  0.5679040000000 1.0
C      1  0.5280550000000  0.5720910000000  0.5859520000000 1.0
C      1  0.5632460000000  0.5637510000000  0.5398090000000 1.0
C      1  0.5864330000000  0.5752170000000  0.4835830000000 1.0
C      1  0.5544260000000  0.5633750000000  0.4368270000000 1.0
C      1  0.5039030000000  0.5719460000000  0.4279220000000 1.0
C      1  0.5313190000000  0.5732060000000  0.4262250000000 1.0
C      1  0.4756840000000  0.5542520000000  0.4209780000000 1.0
C      1  0.4319250000000  0.5573980000000  0.4483050000000 1.0
C      1  0.4167120000000  0.5577910000000  0.5052140000000 1.0
C      1  0.4393360000000  0.5515600000000  0.5511310000000 1.0
C      1  0.4981350000000  0.5595610000000  0.5832370000000 1.0
C      1  0.5465890000000  0.5531240000000  0.5687360000000 1.0
C      1  0.5831610000000  0.5624240000000  0.5122620000000 1.0
C      1  0.5762420000000  0.5516550000000  0.4610570000000 1.0
C      1  0.5038270000000  0.5028920000000  0.4994350000000 1.0
C      1  0.4974380000000  0.5351260000000  0.4950680000000 1.0
END
