TITL C-3289335-9438-730 -0.0018648416332668 125000 -927.832853910312 0 0 171 (C1) n - 1
REM
REM in /nfs/bkarasulu/CARBON/AIRSS/Generating-Clusters/AIREBO/with-SteepDescent/Higher-Symm/SD-CG/HFTN-CG
REM
REM
REM
REM
REM
REM ./C.cell (b20cbc046b6831c77cfcea5457e17084)
REM
REM compiler GCC version 9.2.1 20190827 (Red Hat 9.2.1-1)
REM options -cpp -mtune=generic -march=x86-64 -g -O0 -fpre-include=/usr/include/finclude/math-vector-fortran.h
REM seed 481367057 -725402802 -1022742347 -1116123581 182994026 -37981510 -1990530568 553806228 -1011993565 -1344926754 2118962433 -127908888 321094384 1221351939 -500217858 1752899199 -923440300 -62411009 647610501 -1634053336 1430485605 1657625620 2048680621 619466344 942947880 -1394203722 -1055481869 2060350968 -325313357 1625948876 -1085605180 -1157177812 1215728851
REM
CELL 1.54180   50.00000   50.00000   50.00000   90.00000   90.00000   90.00000
LATT -1
SFAC C  
C      1  0.4494450000000  0.5350520000000  0.4868110000000 1.0
C      1  0.4582130000000  0.4597800000000  0.4822110000000 1.0
C      1  0.5185180000000  0.4448020000000  0.4880740000000 1.0
C      1  0.5602790000000  0.4982150000000  0.4870170000000 1.0
C      1  0.5154640000000  0.5589370000000  0.4780850000000 1.0
C      1  0.5682160000000  0.5805400000000  0.4649370000000 1.0
C      1  0.4426360000000  0.5916930000000  0.4688870000000 1.0
C      1  0.4001860000000  0.4759770000000  0.4709930000000 1.0
C      1  0.4923030000000  0.3978450000000  0.4674380000000 1.0
C      1  0.5964500000000  0.4620550000000  0.4675420000000 1.0
C      1  0.4144260000000  0.4617330000000  0.5811690000000 1.0
C      1  0.5040600000000  0.4064010000000  0.5784200000000 1.0
C      1  0.5866610000000  0.4729820000000  0.5798940000000 1.0
C      1  0.5462660000000  0.5672510000000  0.5815010000000 1.0
C      1  0.4508270000000  0.5700790000000  0.5743360000000 1.0
C      1  0.5245110000000  0.4786760000000  0.6018440000000 1.0
C      1  0.5222210000000  0.5181610000000  0.5983010000000 1.0
C      1  0.4840730000000  0.5456390000000  0.5899970000000 1.0
C      1  0.4725610000000  0.4961250000000  0.6008050000000 1.0
C      1  0.4907510000000  0.4631170000000  0.5876530000000 1.0
C      1  0.4732100000000  0.4357930000000  0.4529570000000 1.0
C      1  0.5583400000000  0.4566510000000  0.4524240000000 1.0
C      1  0.5630200000000  0.5436900000000  0.4505210000000 1.0
C      1  0.4798490000000  0.5707510000000  0.4491570000000 1.0
C      1  0.4260930000000  0.5042070000000  0.4561450000000 1.0
C      1  0.4534690000000  0.5012180000000  0.4914130000000 1.0
C      1  0.4839920000000  0.4707860000000  0.5015480000000 1.0
C      1  0.5280430000000  0.4721440000000  0.5022650000000 1.0
C      1  0.5346360000000  0.5149580000000  0.4997580000000 1.0
C      1  0.4870880000000  0.5466730000000  0.4801460000000 1.0
C      1  0.4646420000000  0.5125170000000  0.4429580000000 1.0
C      1  0.4807470000000  0.4673700000000  0.4501770000000 1.0
C      1  0.5210820000000  0.4775380000000  0.4488720000000 1.0
C      1  0.5356220000000  0.5163550000000  0.4411740000000 1.0
C      1  0.5010460000000  0.5418930000000  0.4314460000000 1.0
C      1  0.5240560000000  0.5172230000000  0.4101170000000 1.0
C      1  0.4742770000000  0.5394930000000  0.3910070000000 1.0
C      1  0.4695830000000  0.5120090000000  0.3963910000000 1.0
C      1  0.4895090000000  0.4667970000000  0.4199490000000 1.0
C      1  0.5220300000000  0.4760620000000  0.4163750000000 1.0
C      1  0.4621930000000  0.5173230000000  0.5199900000000 1.0
C      1  0.4743260000000  0.4584570000000  0.5315120000000 1.0
C      1  0.5290650000000  0.4620940000000  0.5339710000000 1.0
C      1  0.5459040000000  0.5145440000000  0.5302120000000 1.0
C      1  0.5091260000000  0.5445370000000  0.5292930000000 1.0
C      1  0.4595060000000  0.5243220000000  0.5992740000000 1.0
C      1  0.4610760000000  0.4649470000000  0.5976270000000 1.0
C      1  0.5161590000000  0.4483170000000  0.6020020000000 1.0
C      1  0.5502790000000  0.5003380000000  0.6006910000000 1.0
C      1  0.5133010000000  0.5487080000000  0.5990690000000 1.0
C      1  0.4448210000000  0.4496130000000  0.5719190000000 1.0
C      1  0.5235450000000  0.4335760000000  0.5722450000000 1.0
C      1  0.5686420000000  0.5007280000000  0.5720380000000 1.0
C      1  0.5166520000000  0.5766550000000  0.5799980000000 1.0
C      1  0.4403070000000  0.5252880000000  0.5715140000000 1.0
C      1  0.3913270000000  0.5399960000000  0.5168340000000 1.0
C      1  0.4309770000000  0.4106090000000  0.5157750000000 1.0
C      1  0.5597780000000  0.4075680000000  0.5144220000000 1.0
C      1  0.6074220000000  0.5343980000000  0.5165850000000 1.0
C      1  0.5044750000000  0.6121960000000  0.5122960000000 1.0
C      1  0.5294590000000  0.5489330000000  0.4487470000000 1.0
C      1  0.4633490000000  0.5419440000000  0.4565500000000 1.0
C      1  0.4544560000000  0.4860680000000  0.4609750000000 1.0
C      1  0.5095120000000  0.4512850000000  0.4586460000000 1.0
C      1  0.5519290000000  0.4899430000000  0.4550780000000 1.0
C      1  0.5380380000000  0.5679720000000  0.6123620000000 1.0
C      1  0.4460850000000  0.5553490000000  0.5969870000000 1.0
C      1  0.4299700000000  0.4612100000000  0.6067930000000 1.0
C      1  0.5092680000000  0.4169400000000  0.6055490000000 1.0
C      1  0.5780020000000  0.4837370000000  0.6065480000000 1.0
C      1  0.4377130000000  0.5516530000000  0.4396190000000 1.0
C      1  0.4368600000000  0.4662080000000  0.4396920000000 1.0
C      1  0.5179950000000  0.4290910000000  0.4398340000000 1.0
C      1  0.5788240000000  0.4967530000000  0.4365020000000 1.0
C      1  0.5293970000000  0.5782900000000  0.4327050000000 1.0
C      1  0.5203620000000  0.4324680000000  0.5197370000000 1.0
C      1  0.5746360000000  0.5116510000000  0.5148440000000 1.0
C      1  0.5161930000000  0.5671380000000  0.5110780000000 1.0
C      1  0.4367610000000  0.5375450000000  0.5182650000000 1.0
C      1  0.4501470000000  0.4522930000000  0.5118230000000 1.0
C      1  0.4195810000000  0.4833950000000  0.5618810000000 1.0
C      1  0.4848850000000  0.4208140000000  0.5610360000000 1.0
C      1  0.5682560000000  0.4592670000000  0.5611670000000 1.0
C      1  0.5547580000000  0.5478520000000  0.5639140000000 1.0
C      1  0.4725380000000  0.5736620000000  0.5570170000000 1.0
C      1  0.5436680000000  0.4352360000000  0.4315990000000 1.0
C      1  0.5810940000000  0.5234700000000  0.4309120000000 1.0
C      1  0.5028840000000  0.5856580000000  0.4290750000000 1.0
C      1  0.4221410000000  0.5297650000000  0.4342340000000 1.0
C      1  0.4493290000000  0.4427800000000  0.4324790000000 1.0
C      1  0.4381110000000  0.4334420000000  0.4764250000000 1.0
C      1  0.5453300000000  0.4263510000000  0.4797550000000 1.0
C      1  0.5851760000000  0.5190030000000  0.4767770000000 1.0
C      1  0.5072170000000  0.5914750000000  0.4726710000000 1.0
C      1  0.4165730000000  0.5360330000000  0.4781700000000 1.0
C      1  0.5598650000000  0.5629380000000  0.5030380000000 1.0
C      1  0.4569010000000  0.5837280000000  0.5053310000000 1.0
C      1  0.4075330000000  0.4866840000000  0.5126770000000 1.0
C      1  0.4883350000000  0.4052020000000  0.5099590000000 1.0
C      1  0.5842980000000  0.4578460000000  0.5089240000000 1.0
C      1  0.4111660000000  0.4368330000000  0.4767370000000 1.0
C      1  0.5402480000000  0.3990730000000  0.4777670000000 1.0
C      1  0.6095250000000  0.5045930000000  0.4764530000000 1.0
C      1  0.5286780000000  0.6087040000000  0.4757270000000 1.0
C      1  0.4061350000000  0.5619210000000  0.4784350000000 1.0
C      1  0.4186370000000  0.5112030000000  0.5656610000000 1.0
C      1  0.4583320000000  0.4237930000000  0.5644190000000 1.0
C      1  0.5532000000000  0.4372330000000  0.5649750000000 1.0
C      1  0.5755250000000  0.5305120000000  0.5676930000000 1.0
C      1  0.4951030000000  0.5870760000000  0.5667030000000 1.0
C      1  0.4421400000000  0.5803480000000  0.4402570000000 1.0
C      1  0.4076300000000  0.4712800000000  0.4434590000000 1.0
C      1  0.4989240000000  0.4080420000000  0.4403660000000 1.0
C      1  0.5932000000000  0.4711620000000  0.4397300000000 1.0
C      1  0.5589640000000  0.5809020000000  0.4370880000000 1.0
C      1  0.5416250000000  0.5436470000000  0.4918620000000 1.0
C      1  0.4694330000000  0.5557240000000  0.5052160000000 1.0
C      1  0.4360100000000  0.4889960000000  0.5178450000000 1.0
C      1  0.4869890000000  0.4370740000000  0.4981940000000 1.0
C      1  0.5597450000000  0.4749280000000  0.5118240000000 1.0
C      1  0.5328600000000  0.5347740000000  0.5477560000000 1.0
C      1  0.4781650000000  0.5506800000000  0.5351360000000 1.0
C      1  0.4482860000000  0.4747050000000  0.5461740000000 1.0
C      1  0.5017730000000  0.4471320000000  0.5476880000000 1.0
C      1  0.5531660000000  0.4843340000000  0.5438410000000 1.0
C      1  0.5536650000000  0.5943770000000  0.4923970000000 1.0
C      1  0.4256400000000  0.5812920000000  0.4967470000000 1.0
C      1  0.4011610000000  0.4579160000000  0.4998280000000 1.0
C      1  0.5125540000000  0.3897270000000  0.4935600000000 1.0
C      1  0.6079350000000  0.4771420000000  0.4959140000000 1.0
C      1  0.4836410000000  0.5551000000000  0.4125910000000 1.0
C      1  0.4492300000000  0.5068010000000  0.4162990000000 1.0
C      1  0.4784300000000  0.4450890000000  0.4052410000000 1.0
C      1  0.5459800000000  0.4657330000000  0.4059000000000 1.0
C      1  0.5472370000000  0.5350340000000  0.4144390000000 1.0
C      1  0.4677390000000  0.4174550000000  0.4781770000000 1.0
C      1  0.5736430000000  0.4407840000000  0.4747340000000 1.0
C      1  0.5835820000000  0.5526320000000  0.4729240000000 1.0
C      1  0.4747360000000  0.5925040000000  0.4711110000000 1.0
C      1  0.4029280000000  0.5065830000000  0.4783590000000 1.0
C      1  0.5023100000000  0.4778930000000  0.5621640000000 1.0
C      1  0.5313800000000  0.4840450000000  0.5699480000000 1.0
C      1  0.5152110000000  0.5209170000000  0.5681450000000 1.0
C      1  0.4707480000000  0.5341510000000  0.5623280000000 1.0
C      1  0.4650040000000  0.4918850000000  0.5684730000000 1.0
C      1  0.4723470000000  0.4188000000000  0.4235210000000 1.0
C      1  0.5718230000000  0.4518590000000  0.4216550000000 1.0
C      1  0.5725220000000  0.5549010000000  0.4198600000000 1.0
C      1  0.4696060000000  0.5845480000000  0.4204980000000 1.0
C      1  0.4177840000000  0.4975480000000  0.4238550000000 1.0
C      1  0.5886910000000  0.5519560000000  0.5051260000000 1.0
C      1  0.4794950000000  0.6043910000000  0.5018360000000 1.0
C      1  0.3931270000000  0.5128810000000  0.5082070000000 1.0
C      1  0.4564360000000  0.4018070000000  0.5063160000000 1.0
C      1  0.5763020000000  0.4283500000000  0.5049800000000 1.0
C      1  0.5321910000000  0.4059300000000  0.5161270000000 1.0
C      1  0.6033680000000  0.5044620000000  0.5156700000000 1.0
C      1  0.5262100000000  0.5936610000000  0.5124840000000 1.0
C      1  0.4154960000000  0.5554740000000  0.5165310000000 1.0
C      1  0.4253530000000  0.4386250000000  0.5139540000000 1.0
C      1  0.5048220000000  0.4840060000000  0.3760050000000 1.0
C      1  0.5005160000000  0.4976250000000  0.6137760000000 1.0
C      1  0.5060850000000  0.4966450000000  0.4972640000000 1.0
C      1  0.5098260000000  0.4760140000000  0.3522920000000 1.0
C      1  0.4988200000000  0.4993810000000  0.6695570000000 1.0
C      1  0.4941060000000  0.5122890000000  0.4368370000000 1.0
C      1  0.4978300000000  0.4977410000000  0.4063130000000 1.0
C      1  0.4896900000000  0.5075850000000  0.5544370000000 1.0
C      1  0.4929740000000  0.5153630000000  0.5225560000000 1.0
C      1  0.5000160000000  0.4998800000000  0.6440710000000 1.0
C      1  0.5057470000000  0.4998580000000  0.4633480000000 1.0
END
