TITL C-3289329-2751-198 0.000849174246658342 125000 -552.842227793381 0 0 97 (C1) n - 1
REM
REM in /nfs/bkarasulu/CARBON/AIRSS/Generating-Clusters/AIREBO/with-SteepDescent/Higher-Symm/SD-CG/HFTN-CG
REM
REM
REM
REM
REM
REM ./C.cell (b20cbc046b6831c77cfcea5457e17084)
REM
REM compiler GCC version 9.2.1 20190827 (Red Hat 9.2.1-1)
REM options -cpp -mtune=generic -march=x86-64 -g -O0 -fpre-include=/usr/include/finclude/math-vector-fortran.h
REM seed 1167512513 -838767397 150064351 -1134149165 -1053327002 -1361490426 272927619 -1757252586 -920322019 -1003680233 1935909070 -989104489 1155973864 1815569654 -1237435896 -649170947 348444254 1423844367 2035989799 1852399291 1152632753 935746413 -920428481 1814763413 -1849317451 -1381107569 -1415513196 -2003834655 -1815155067 -1974707460 -786591249 2124476563 1764835240
REM
CELL 1.54180   50.00000   50.00000   50.00000   90.00000   90.00000   90.00000
LATT -1
SFAC C  
C      1  0.4925530000000  0.5311910000000  0.5175420000000 1.0
C      1  0.4921350000000  0.5307400000000  0.4841970000000 1.0
C      1  0.5204140000000  0.5301220000000  0.5007750000000 1.0
C      1  0.5319520000000  0.5032820000000  0.5130530000000 1.0
C      1  0.4735230000000  0.5042840000000  0.5187390000000 1.0
C      1  0.4953160000000  0.5020910000000  0.4693330000000 1.0
C      1  0.4427410000000  0.4428830000000  0.4793020000000 1.0
C      1  0.5460370000000  0.4455800000000  0.4610810000000 1.0
C      1  0.5098540000000  0.4448040000000  0.5612180000000 1.0
C      1  0.4605430000000  0.4107400000000  0.5102860000000 1.0
C      1  0.5105930000000  0.4130160000000  0.4600110000000 1.0
C      1  0.5332240000000  0.4136440000000  0.5313780000000 1.0
C      1  0.4653380000000  0.5598210000000  0.5113040000000 1.0
C      1  0.5107420000000  0.5526260000000  0.4545840000000 1.0
C      1  0.5247230000000  0.5530580000000  0.5330220000000 1.0
C      1  0.5719400000000  0.4486570000000  0.5319220000000 1.0
C      1  0.4375030000000  0.4497390000000  0.5461540000000 1.0
C      1  0.4899700000000  0.4513760000000  0.4220690000000 1.0
C      1  0.4249750000000  0.5139600000000  0.4760950000000 1.0
C      1  0.5576630000000  0.5151370000000  0.4493060000000 1.0
C      1  0.5129200000000  0.5118470000000  0.5767070000000 1.0
C      1  0.5748090000000  0.5276940000000  0.5315300000000 1.0
C      1  0.4351320000000  0.5278040000000  0.5502140000000 1.0
C      1  0.4863570000000  0.5281910000000  0.4194830000000 1.0
C      1  0.4696850000000  0.5013330000000  0.4252670000000 1.0
C      1  0.5817760000000  0.5021790000000  0.5125030000000 1.0
C      1  0.4463550000000  0.5002570000000  0.5626400000000 1.0
C      1  0.5503070000000  0.5834350000000  0.4422590000000 1.0
C      1  0.5052050000000  0.5828690000000  0.5739510000000 1.0
C      1  0.4353390000000  0.5812800000000  0.4747310000000 1.0
C      1  0.4947200000000  0.4941070000000  0.4393020000000 1.0
C      1  0.5573980000000  0.4921950000000  0.5257920000000 1.0
C      1  0.4478870000000  0.4934930000000  0.5337160000000 1.0
C      1  0.4540850000000  0.4612500000000  0.4997540000000 1.0
C      1  0.5221600000000  0.4635630000000  0.4623240000000 1.0
C      1  0.5210350000000  0.4657050000000  0.5432150000000 1.0
C      1  0.5242610000000  0.4797550000000  0.4915060000000 1.0
C      1  0.4955010000000  0.4791800000000  0.5253240000000 1.0
C      1  0.4740730000000  0.4830830000000  0.4847340000000 1.0
C      1  0.4965760000000  0.5826950000000  0.4489790000000 1.0
C      1  0.5251540000000  0.5852310000000  0.5244840000000 1.0
C      1  0.4734760000000  0.5876420000000  0.5276520000000 1.0
C      1  0.5401880000000  0.5547140000000  0.5038920000000 1.0
C      1  0.4820380000000  0.5505700000000  0.5394460000000 1.0
C      1  0.4783440000000  0.5510070000000  0.4648710000000 1.0
C      1  0.5068600000000  0.4699110000000  0.4356820000000 1.0
C      1  0.5529960000000  0.4687530000000  0.5388160000000 1.0
C      1  0.4394670000000  0.4689900000000  0.5251970000000 1.0
C      1  0.4743660000000  0.4299130000000  0.5261290000000 1.0
C      1  0.4890810000000  0.4311580000000  0.4624130000000 1.0
C      1  0.5410710000000  0.4329980000000  0.5119860000000 1.0
C      1  0.4982340000000  0.5992160000000  0.5205280000000 1.0
C      1  0.4863840000000  0.5910100000000  0.4732000000000 1.0
C      1  0.5324950000000  0.5806950000000  0.4890970000000 1.0
C      1  0.5695520000000  0.5100730000000  0.4817700000000 1.0
C      1  0.4790640000000  0.5056810000000  0.5701830000000 1.0
C      1  0.4474560000000  0.5089240000000  0.4498520000000 1.0
C      1  0.5371570000000  0.4195110000000  0.4542300000000 1.0
C      1  0.5228380000000  0.4199830000000  0.5566010000000 1.0
C      1  0.4416980000000  0.4167770000000  0.4904580000000 1.0
C      1  0.5338920000000  0.5740610000000  0.4601000000000 1.0
C      1  0.5039540000000  0.5678450000000  0.5531230000000 1.0
C      1  0.4630980000000  0.5722120000000  0.4826530000000 1.0
C      1  0.4107370000000  0.4764170000000  0.4317320000000 1.0
C      1  0.6052760000000  0.4797530000000  0.4582070000000 1.0
C      1  0.4775220000000  0.4737810000000  0.6119940000000 1.0
C      1  0.4636910000000  0.4388420000000  0.5512250000000 1.0
C      1  0.4715360000000  0.4401810000000  0.4414510000000 1.0
C      1  0.5688520000000  0.4404790000000  0.5024520000000 1.0
C      1  0.4847650000000  0.4546340000000  0.5102950000000 1.0
C      1  0.4944520000000  0.4560210000000  0.4800080000000 1.0
C      1  0.5255840000000  0.4566170000000  0.5124110000000 1.0
C      1  0.5374550000000  0.5024340000000  0.4735310000000 1.0
C      1  0.5025930000000  0.5015600000000  0.5459830000000 1.0
C      1  0.4580800000000  0.5090830000000  0.4821550000000 1.0
C      1  0.4795570000000  0.4748620000000  0.5845920000000 1.0
C      1  0.4351040000000  0.4775670000000  0.4447040000000 1.0
C      1  0.5813630000000  0.4797060000000  0.4719330000000 1.0
C      1  0.5558640000000  0.5245610000000  0.5524450000000 1.0
C      1  0.4273650000000  0.5278150000000  0.5225940000000 1.0
C      1  0.5143320000000  0.5267330000000  0.4243110000000 1.0
C      1  0.5903820000000  0.4377180000000  0.5480880000000 1.0
C      1  0.4153100000000  0.4436100000000  0.5599050000000 1.0
C      1  0.4900440000000  0.4460340000000  0.3958070000000 1.0
C      1  0.4541880000000  0.5299990000000  0.5076970000000 1.0
C      1  0.5190490000000  0.5225770000000  0.4561650000000 1.0
C      1  0.5258550000000  0.5234100000000  0.5397770000000 1.0
C      1  0.5679690000000  0.4544000000000  0.4772660000000 1.0
C      1  0.4830730000000  0.4510350000000  0.5686360000000 1.0
C      1  0.4477420000000  0.4524580000000  0.4526090000000 1.0
C      1  0.5382720000000  0.5213130000000  0.5776720000000 1.0
C      1  0.4114980000000  0.5235550000000  0.4978250000000 1.0
C      1  0.5456810000000  0.5241820000000  0.4265470000000 1.0
C      1  0.5659030000000  0.5373020000000  0.5025220000000 1.0
C      1  0.4652370000000  0.5349720000000  0.5590250000000 1.0
C      1  0.4646660000000  0.5372450000000  0.4415500000000 1.0
C      1  0.5056720000000  0.5970800000000  0.4920610000000 1.0
END
