TITL C-3289333-7213-428 0.000268241450677847 125000 -525.343590645218 0 0 94 (C1) n - 1
REM
REM in /nfs/bkarasulu/CARBON/AIRSS/Generating-Clusters/AIREBO/with-SteepDescent/Higher-Symm/SD-CG/HFTN-CG
REM
REM
REM
REM
REM
REM ./C.cell (b20cbc046b6831c77cfcea5457e17084)
REM
REM compiler GCC version 9.2.1 20190827 (Red Hat 9.2.1-1)
REM options -cpp -mtune=generic -march=x86-64 -g -O0 -fpre-include=/usr/include/finclude/math-vector-fortran.h
REM seed -880785944 -769791683 1584736390 1148663407 -1452929259 -635636909 -1720264856 154175468 1716284236 827056678 -430082914 -1542633572 1906825880 1845798056 -1337417534 -767792146 -272525459 -965777194 -1162345308 1417604783 652992912 -272166761 -1849455629 -882006786 226153876 -880607267 1463794465 -2019887417 -1570638596 -656710022 1917790879 139138148 2125292204
REM
CELL 1.54180   50.00000   50.00000   50.00000   90.00000   90.00000   90.00000
LATT -1
SFAC C  
C      1  0.4698130000000  0.5255010000000  0.4178660000000 1.0
C      1  0.4633710000000  0.5548110000000  0.5505530000000 1.0
C      1  0.4603410000000  0.4221250000000  0.5290690000000 1.0
C      1  0.5500860000000  0.5198270000000  0.4259710000000 1.0
C      1  0.5378960000000  0.5600760000000  0.5533200000000 1.0
C      1  0.5440690000000  0.4247820000000  0.5260240000000 1.0
C      1  0.5777930000000  0.6030030000000  0.4704650000000 1.0
C      1  0.5903210000000  0.4919690000000  0.5824280000000 1.0
C      1  0.5675130000000  0.4166200000000  0.4444590000000 1.0
C      1  0.4178850000000  0.5861350000000  0.4715510000000 1.0
C      1  0.4202930000000  0.4775520000000  0.5941760000000 1.0
C      1  0.4141320000000  0.4326490000000  0.4431600000000 1.0
C      1  0.4581200000000  0.5155050000000  0.4827330000000 1.0
C      1  0.4588310000000  0.5059450000000  0.5133040000000 1.0
C      1  0.4532130000000  0.4749160000000  0.4889590000000 1.0
C      1  0.5521430000000  0.5088210000000  0.4870690000000 1.0
C      1  0.5557490000000  0.5052240000000  0.5265120000000 1.0
C      1  0.5706470000000  0.4869950000000  0.5054780000000 1.0
C      1  0.5703250000000  0.5355960000000  0.4453810000000 1.0
C      1  0.5572640000000  0.5384800000000  0.5649350000000 1.0
C      1  0.5623380000000  0.4367890000000  0.5035620000000 1.0
C      1  0.4470520000000  0.5329520000000  0.4336990000000 1.0
C      1  0.4425390000000  0.5339620000000  0.5600850000000 1.0
C      1  0.4378600000000  0.4307550000000  0.5105900000000 1.0
C      1  0.5325200000000  0.4826920000000  0.5160440000000 1.0
C      1  0.5241630000000  0.4999110000000  0.4602220000000 1.0
C      1  0.5216600000000  0.5172200000000  0.5003210000000 1.0
C      1  0.4698810000000  0.4763470000000  0.5258960000000 1.0
C      1  0.4839040000000  0.4740310000000  0.4743340000000 1.0
C      1  0.4708650000000  0.5416160000000  0.4999620000000 1.0
C      1  0.4426610000000  0.5287550000000  0.5291090000000 1.0
C      1  0.4350010000000  0.4611850000000  0.5132750000000 1.0
C      1  0.4402010000000  0.5136650000000  0.4541000000000 1.0
C      1  0.5699030000000  0.5300620000000  0.5373230000000 1.0
C      1  0.5761100000000  0.4615690000000  0.5150770000000 1.0
C      1  0.5683640000000  0.5070980000000  0.4585730000000 1.0
C      1  0.4430790000000  0.5742460000000  0.4699850000000 1.0
C      1  0.4437540000000  0.4824480000000  0.5797390000000 1.0
C      1  0.4387290000000  0.4380070000000  0.4558810000000 1.0
C      1  0.5603100000000  0.5831170000000  0.4791850000000 1.0
C      1  0.5605750000000  0.4870070000000  0.5800970000000 1.0
C      1  0.5509120000000  0.4379060000000  0.4509910000000 1.0
C      1  0.4695690000000  0.5517590000000  0.4706590000000 1.0
C      1  0.4689720000000  0.4898600000000  0.5571640000000 1.0
C      1  0.4689350000000  0.4433520000000  0.4706380000000 1.0
C      1  0.5301410000000  0.5849880000000  0.4673170000000 1.0
C      1  0.5275220000000  0.4830550000000  0.5787540000000 1.0
C      1  0.5235300000000  0.4435130000000  0.4343630000000 1.0
C      1  0.5526440000000  0.5572920000000  0.4612010000000 1.0
C      1  0.5417480000000  0.5096580000000  0.5636210000000 1.0
C      1  0.5459860000000  0.4429880000000  0.4795260000000 1.0
C      1  0.4473900000000  0.5608010000000  0.4391420000000 1.0
C      1  0.4492110000000  0.5160100000000  0.5796360000000 1.0
C      1  0.4385490000000  0.4213200000000  0.4840620000000 1.0
C      1  0.4523300000000  0.4516580000000  0.5413610000000 1.0
C      1  0.4484620000000  0.4851670000000  0.4587050000000 1.0
C      1  0.4535650000000  0.5598400000000  0.5199630000000 1.0
C      1  0.5615480000000  0.4456340000000  0.5422870000000 1.0
C      1  0.5540870000000  0.4891980000000  0.4362310000000 1.0
C      1  0.5606570000000  0.5593370000000  0.5311220000000 1.0
C      1  0.5254690000000  0.4519890000000  0.5034540000000 1.0
C      1  0.5363770000000  0.5298450000000  0.4654370000000 1.0
C      1  0.5263190000000  0.5177950000000  0.5340870000000 1.0
C      1  0.4718500000000  0.4506120000000  0.5037470000000 1.0
C      1  0.4783990000000  0.5244110000000  0.4569060000000 1.0
C      1  0.4808810000000  0.5126610000000  0.5383000000000 1.0
C      1  0.5030460000000  0.4624920000000  0.5887000000000 1.0
C      1  0.4943970000000  0.4479840000000  0.4184940000000 1.0
C      1  0.5034620000000  0.5974890000000  0.4812240000000 1.0
C      1  0.4802800000000  0.4476670000000  0.5831620000000 1.0
C      1  0.4691900000000  0.4594880000000  0.4200140000000 1.0
C      1  0.4809370000000  0.5964610000000  0.4968770000000 1.0
C      1  0.4866640000000  0.4202210000000  0.4597480000000 1.0
C      1  0.4761760000000  0.5746260000000  0.4477050000000 1.0
C      1  0.4772110000000  0.5032770000000  0.5861680000000 1.0
C      1  0.4996110000000  0.4221430000000  0.4362140000000 1.0
C      1  0.4999150000000  0.5868980000000  0.4518680000000 1.0
C      1  0.4999350000000  0.4926100000000  0.5958290000000 1.0
C      1  0.5143400000000  0.4268310000000  0.5200230000000 1.0
C      1  0.5229820000000  0.5300220000000  0.4341360000000 1.0
C      1  0.5149560000000  0.5445310000000  0.5463900000000 1.0
C      1  0.4877730000000  0.4246500000000  0.5171830000000 1.0
C      1  0.4970470000000  0.5278970000000  0.4301820000000 1.0
C      1  0.4883050000000  0.5415610000000  0.5498880000000 1.0
C      1  0.5640620000000  0.5742740000000  0.5083650000000 1.0
C      1  0.5583780000000  0.4574810000000  0.5670100000000 1.0
C      1  0.5496680000000  0.4636600000000  0.4303730000000 1.0
C      1  0.4597050000000  0.5798970000000  0.4971760000000 1.0
C      1  0.4570060000000  0.4544830000000  0.5707100000000 1.0
C      1  0.4511710000000  0.4635520000000  0.4412180000000 1.0
C      1  0.4938930000000  0.4975980000000  0.4559400000000 1.0
C      1  0.5029690000000  0.4688020000000  0.5235300000000 1.0
C      1  0.4943080000000  0.5280000000000  0.5128830000000 1.0
C      1  0.5121450000000  0.4865660000000  0.4890940000000 1.0
END
