TITL C-3289329-2751-468 0.000437979330870395 125000 -402.111305601495 0 0 78 (C1) n - 1
REM
REM in /nfs/bkarasulu/CARBON/AIRSS/Generating-Clusters/AIREBO/with-SteepDescent/Higher-Symm/SD-CG/HFTN-CG
REM
REM
REM
REM
REM
REM ./C.cell (b20cbc046b6831c77cfcea5457e17084)
REM
REM compiler GCC version 9.2.1 20190827 (Red Hat 9.2.1-1)
REM options -cpp -mtune=generic -march=x86-64 -g -O0 -fpre-include=/usr/include/finclude/math-vector-fortran.h
REM seed 896337924 -1746967567 -86007907 969770406 943432141 -341136337 -803092873 80851102 1940512216 2036105803 -907163187 -890419115 281696020 610134293 -648164424 201694062 2073333341 1653480863 -651621594 -1484068004 134998512 -1465668556 377141917 440848624 2009399155 1383084097 -1379117951 -436758414 -1371157422 -980960852 2141101137 -1056106062 322268244
REM
CELL 1.54180   50.00000   50.00000   50.00000   90.00000   90.00000   90.00000
LATT -1
SFAC C  
C      1  0.4668580000000  0.4773250000000  0.5170840000000 1.0
C      1  0.4682300000000  0.4969640000000  0.4706630000000 1.0
C      1  0.4673670000000  0.5287070000000  0.5121300000000 1.0
C      1  0.5521420000000  0.5435830000000  0.4691160000000 1.0
C      1  0.5540610000000  0.5044260000000  0.5526540000000 1.0
C      1  0.5530120000000  0.4520520000000  0.4775360000000 1.0
C      1  0.4764170000000  0.4587050000000  0.5614670000000 1.0
C      1  0.4794210000000  0.4657460000000  0.4313930000000 1.0
C      1  0.4793620000000  0.5749770000000  0.5063300000000 1.0
C      1  0.4590630000000  0.4553960000000  0.4549760000000 1.0
C      1  0.4575700000000  0.5605630000000  0.4845280000000 1.0
C      1  0.4538090000000  0.4838850000000  0.5580080000000 1.0
C      1  0.5107650000000  0.4367850000000  0.4701760000000 1.0
C      1  0.5087560000000  0.5576130000000  0.4609680000000 1.0
C      1  0.5099540000000  0.5056170000000  0.5699500000000 1.0
C      1  0.5155920000000  0.4882610000000  0.4471960000000 1.0
C      1  0.5160380000000  0.5512080000000  0.5163730000000 1.0
C      1  0.5155450000000  0.4608340000000  0.5365770000000 1.0
C      1  0.4332260000000  0.5451040000000  0.4993710000000 1.0
C      1  0.4312350000000  0.4857200000000  0.5325780000000 1.0
C      1  0.4325940000000  0.4723570000000  0.4627000000000 1.0
C      1  0.5389200000000  0.5330750000000  0.4986310000000 1.0
C      1  0.5398820000000  0.4837920000000  0.5293580000000 1.0
C      1  0.5389630000000  0.4826420000000  0.4714780000000 1.0
C      1  0.4238940000000  0.5174830000000  0.4878860000000 1.0
C      1  0.4284900000000  0.5102050000000  0.5179340000000 1.0
C      1  0.4204580000000  0.4628880000000  0.4862590000000 1.0
C      1  0.5701500000000  0.5260570000000  0.5106300000000 1.0
C      1  0.5705770000000  0.4773580000000  0.5162200000000 1.0
C      1  0.5697830000000  0.4970040000000  0.4711880000000 1.0
C      1  0.4966500000000  0.4826140000000  0.5207890000000 1.0
C      1  0.4967970000000  0.4894940000000  0.4739540000000 1.0
C      1  0.4969230000000  0.5272340000000  0.5053290000000 1.0
C      1  0.5328010000000  0.5392130000000  0.4454550000000 1.0
C      1  0.5349330000000  0.5267790000000  0.5606990000000 1.0
C      1  0.5348610000000  0.4332960000000  0.4939330000000 1.0
C      1  0.4830810000000  0.4288490000000  0.5159080000000 1.0
C      1  0.4807650000000  0.5209980000000  0.4310350000000 1.0
C      1  0.4846630000000  0.5501100000000  0.5563950000000 1.0
C      1  0.4891110000000  0.4932270000000  0.4295060000000 1.0
C      1  0.4905540000000  0.5642130000000  0.5316380000000 1.0
C      1  0.4891930000000  0.4428590000000  0.5405550000000 1.0
C      1  0.4364480000000  0.5041910000000  0.4626080000000 1.0
C      1  0.4407090000000  0.5380740000000  0.5312010000000 1.0
C      1  0.4373760000000  0.4607960000000  0.5133180000000 1.0
C      1  0.4985350000000  0.4612800000000  0.4870320000000 1.0
C      1  0.4971060000000  0.5303760000000  0.4739230000000 1.0
C      1  0.4989710000000  0.5075490000000  0.5400540000000 1.0
C      1  0.5381320000000  0.5097370000000  0.4335210000000 1.0
C      1  0.5396590000000  0.5518350000000  0.5408250000000 1.0
C      1  0.5385090000000  0.4381540000000  0.5258690000000 1.0
C      1  0.5016660000000  0.4442880000000  0.4309940000000 1.0
C      1  0.5007220000000  0.5870250000000  0.4874550000000 1.0
C      1  0.4973650000000  0.4694750000000  0.5815590000000 1.0
C      1  0.4819110000000  0.4316520000000  0.4519600000000 1.0
C      1  0.4801960000000  0.5761900000000  0.4664940000000 1.0
C      1  0.4783310000000  0.4944540000000  0.5790970000000 1.0
C      1  0.5438150000000  0.5703630000000  0.5121150000000 1.0
C      1  0.5420390000000  0.4533810000000  0.5565520000000 1.0
C      1  0.5435360000000  0.4757580000000  0.4323830000000 1.0
C      1  0.5253380000000  0.4753790000000  0.5724270000000 1.0
C      1  0.5277790000000  0.4503940000000  0.4440420000000 1.0
C      1  0.5270270000000  0.5732830000000  0.4850170000000 1.0
C      1  0.5223600000000  0.5113080000000  0.4791340000000 1.0
C      1  0.5234350000000  0.5121020000000  0.5203100000000 1.0
C      1  0.5233020000000  0.4763870000000  0.5006130000000 1.0
C      1  0.5036200000000  0.4190360000000  0.4983000000000 1.0
C      1  0.5008580000000  0.5417020000000  0.4319600000000 1.0
C      1  0.5052080000000  0.5391500000000  0.5731030000000 1.0
C      1  0.4650620000000  0.4681050000000  0.4855790000000 1.0
C      1  0.4633490000000  0.5281780000000  0.4794110000000 1.0
C      1  0.4653640000000  0.5061780000000  0.5350810000000 1.0
C      1  0.4572440000000  0.5263270000000  0.4460060000000 1.0
C      1  0.4621040000000  0.5333730000000  0.5552310000000 1.0
C      1  0.4608390000000  0.4387250000000  0.5024350000000 1.0
C      1  0.5728140000000  0.5234390000000  0.4799650000000 1.0
C      1  0.5735700000000  0.5051450000000  0.5289820000000 1.0
C      1  0.5732300000000  0.4719940000000  0.4888910000000 1.0
END
