TITL C-3289321-8710-12 0.00286064877859281 125000 -825.603773535892 0 0 163 (C1) n - 1
REM
REM in /nfs/bkarasulu/CARBON/AIRSS/Generating-Clusters/AIREBO/with-SteepDescent/Higher-Symm/SD-CG/HFTN-CG
REM
REM
REM
REM
REM
REM ./C.cell (b20cbc046b6831c77cfcea5457e17084)
REM
REM compiler GCC version 9.2.1 20190827 (Red Hat 9.2.1-1)
REM options -cpp -mtune=generic -march=x86-64 -g -O0 -fpre-include=/usr/include/finclude/math-vector-fortran.h
REM seed -438790663 747488259 2046568068 852652356 -1854821853 -77135822 -1143998193 729229356 -351276881 690079331 940207232 -377850810 -1964266815 2089965290 1334915735 559413196 1043038314 -874828398 -287371657 1512255899 1802696869 -401660853 -244407230 -1338130219 -1158314035 573811517 -1855077889 869169753 -305473402 860253907 -423194940 958008592 1644228572
REM
CELL 1.54180   50.00000   50.00000   50.00000   90.00000   90.00000   90.00000
LATT -1
SFAC C  
C      1  0.5435720000000  0.4466730000000  0.4319340000000 1.0
C      1  0.5604440000000  0.5219930000000  0.4259750000000 1.0
C      1  0.4910070000000  0.5616780000000  0.4258990000000 1.0
C      1  0.4373630000000  0.5188130000000  0.4217840000000 1.0
C      1  0.4590530000000  0.4425160000000  0.4281300000000 1.0
C      1  0.4503410000000  0.5226480000000  0.3958850000000 1.0
C      1  0.4526750000000  0.4692420000000  0.4106840000000 1.0
C      1  0.5144670000000  0.4410230000000  0.4152740000000 1.0
C      1  0.5571660000000  0.5091220000000  0.3991180000000 1.0
C      1  0.5186860000000  0.5544080000000  0.4075220000000 1.0
C      1  0.4718610000000  0.5510360000000  0.4702610000000 1.0
C      1  0.4445600000000  0.4938070000000  0.4700410000000 1.0
C      1  0.4935360000000  0.4440350000000  0.4726240000000 1.0
C      1  0.5540080000000  0.4779560000000  0.4709930000000 1.0
C      1  0.5403510000000  0.5390180000000  0.4652950000000 1.0
C      1  0.5498570000000  0.4182020000000  0.5251030000000 1.0
C      1  0.5962280000000  0.5252710000000  0.5208230000000 1.0
C      1  0.5039100000000  0.6009350000000  0.5221860000000 1.0
C      1  0.4057800000000  0.5362260000000  0.5229600000000 1.0
C      1  0.4404400000000  0.4235300000000  0.5213320000000 1.0
C      1  0.5234940000000  0.4985650000000  0.4266430000000 1.0
C      1  0.5050340000000  0.5245810000000  0.4300790000000 1.0
C      1  0.4756170000000  0.5145280000000  0.4321820000000 1.0
C      1  0.4758350000000  0.4840630000000  0.4396470000000 1.0
C      1  0.5054260000000  0.4742310000000  0.4350200000000 1.0
C      1  0.5287130000000  0.4250850000000  0.4729540000000 1.0
C      1  0.5867050000000  0.5032210000000  0.4721190000000 1.0
C      1  0.5227460000000  0.5885500000000  0.4758950000000 1.0
C      1  0.4251290000000  0.5510930000000  0.4728020000000 1.0
C      1  0.4329160000000  0.4487320000000  0.4737070000000 1.0
C      1  0.4749420000000  0.4528470000000  0.5783520000000 1.0
C      1  0.5256880000000  0.4674140000000  0.5821300000000 1.0
C      1  0.5414650000000  0.5177220000000  0.5786110000000 1.0
C      1  0.4975390000000  0.5385200000000  0.5753480000000 1.0
C      1  0.4605310000000  0.5020520000000  0.5753430000000 1.0
C      1  0.5099830000000  0.5243310000000  0.3964370000000 1.0
C      1  0.4789730000000  0.5147570000000  0.3963940000000 1.0
C      1  0.4802790000000  0.4847200000000  0.4059450000000 1.0
C      1  0.5097620000000  0.4713380000000  0.4009370000000 1.0
C      1  0.5294520000000  0.4981050000000  0.3936580000000 1.0
C      1  0.6072870000000  0.5067410000000  0.4961170000000 1.0
C      1  0.5236410000000  0.6125040000000  0.4980700000000 1.0
C      1  0.4026910000000  0.5561710000000  0.4970940000000 1.0
C      1  0.4194430000000  0.4269520000000  0.4960710000000 1.0
C      1  0.5430830000000  0.4044100000000  0.4958170000000 1.0
C      1  0.4385500000000  0.4730400000000  0.5365340000000 1.0
C      1  0.5111700000000  0.4314240000000  0.5407650000000 1.0
C      1  0.5658100000000  0.4852360000000  0.5406750000000 1.0
C      1  0.5328800000000  0.5573420000000  0.5367600000000 1.0
C      1  0.4542570000000  0.5491670000000  0.5389790000000 1.0
C      1  0.3987690000000  0.4537790000000  0.4955050000000 1.0
C      1  0.5158230000000  0.3878220000000  0.4953300000000 1.0
C      1  0.6126310000000  0.4769980000000  0.5045980000000 1.0
C      1  0.5537790000000  0.5980250000000  0.4987780000000 1.0
C      1  0.4224710000000  0.5819930000000  0.4986700000000 1.0
C      1  0.5333670000000  0.4987060000000  0.5360190000000 1.0
C      1  0.5107540000000  0.5309460000000  0.5322400000000 1.0
C      1  0.4725740000000  0.5199770000000  0.5338410000000 1.0
C      1  0.4723740000000  0.4798260000000  0.5310220000000 1.0
C      1  0.5095270000000  0.4669530000000  0.5363650000000 1.0
C      1  0.5176360000000  0.4301930000000  0.5700280000000 1.0
C      1  0.5719630000000  0.4863450000000  0.5724850000000 1.0
C      1  0.5356360000000  0.5629260000000  0.5688410000000 1.0
C      1  0.4501380000000  0.5513200000000  0.5711090000000 1.0
C      1  0.4342340000000  0.4638880000000  0.5652500000000 1.0
C      1  0.5179870000000  0.4520020000000  0.4533990000000 1.0
C      1  0.5500600000000  0.4952270000000  0.4419260000000 1.0
C      1  0.5159470000000  0.5515420000000  0.4466720000000 1.0
C      1  0.4552810000000  0.5348180000000  0.4453990000000 1.0
C      1  0.4499920000000  0.4666520000000  0.4503080000000 1.0
C      1  0.5184050000000  0.5183210000000  0.4809860000000 1.0
C      1  0.4886070000000  0.5237420000000  0.4822340000000 1.0
C      1  0.4758050000000  0.4964970000000  0.4831780000000 1.0
C      1  0.4972720000000  0.4754940000000  0.4854340000000 1.0
C      1  0.5241970000000  0.4889740000000  0.4836310000000 1.0
C      1  0.5774500000000  0.4600760000000  0.5209830000000 1.0
C      1  0.5594470000000  0.5574370000000  0.5155250000000 1.0
C      1  0.4625330000000  0.5751430000000  0.5189070000000 1.0
C      1  0.4132280000000  0.4872740000000  0.5188370000000 1.0
C      1  0.4849390000000  0.4195010000000  0.5233690000000 1.0
C      1  0.4568780000000  0.4938960000000  0.5079580000000 1.0
C      1  0.5018100000000  0.4567150000000  0.5095490000000 1.0
C      1  0.5420820000000  0.4830270000000  0.5088290000000 1.0
C      1  0.5300860000000  0.5321490000000  0.5060910000000 1.0
C      1  0.4779930000000  0.5398430000000  0.5082000000000 1.0
C      1  0.3949040000000  0.4784600000000  0.4819230000000 1.0
C      1  0.4918600000000  0.3929260000000  0.4823390000000 1.0
C      1  0.6015930000000  0.4570700000000  0.4886770000000 1.0
C      1  0.5693520000000  0.5827640000000  0.4811060000000 1.0
C      1  0.4440830000000  0.5942100000000  0.4870750000000 1.0
C      1  0.4476240000000  0.3993410000000  0.5378450000000 1.0
C      1  0.5716380000000  0.4183140000000  0.5467290000000 1.0
C      1  0.5999230000000  0.5468180000000  0.5434700000000 1.0
C      1  0.4870290000000  0.6076360000000  0.5476340000000 1.0
C      1  0.3926060000000  0.5211360000000  0.5471590000000 1.0
C      1  0.4602910000000  0.6069720000000  0.5071570000000 1.0
C      1  0.3869780000000  0.4995610000000  0.5010590000000 1.0
C      1  0.4725790000000  0.3974330000000  0.5016430000000 1.0
C      1  0.5930640000000  0.4347790000000  0.5044610000000 1.0
C      1  0.5869550000000  0.5669070000000  0.4979240000000 1.0
C      1  0.4319030000000  0.5155550000000  0.5161210000000 1.0
C      1  0.4650350000000  0.4470330000000  0.5218630000000 1.0
C      1  0.5447960000000  0.4507600000000  0.5192110000000 1.0
C      1  0.5628270000000  0.5236150000000  0.5146410000000 1.0
C      1  0.4956980000000  0.5687110000000  0.5150450000000 1.0
C      1  0.5469680000000  0.4102950000000  0.4481620000000 1.0
C      1  0.5896500000000  0.4944020000000  0.4445850000000 1.0
C      1  0.5145630000000  0.6031420000000  0.4487770000000 1.0
C      1  0.4290770000000  0.5648760000000  0.4470660000000 1.0
C      1  0.4178330000000  0.4313980000000  0.4496100000000 1.0
C      1  0.4676770000000  0.5339330000000  0.5847560000000 1.0
C      1  0.4553380000000  0.4735110000000  0.5811930000000 1.0
C      1  0.5003920000000  0.4474880000000  0.5862130000000 1.0
C      1  0.5478670000000  0.4909280000000  0.5865360000000 1.0
C      1  0.5265850000000  0.5405430000000  0.5835290000000 1.0
C      1  0.4197390000000  0.4484860000000  0.5223700000000 1.0
C      1  0.5210940000000  0.4026640000000  0.5255140000000 1.0
C      1  0.5965500000000  0.4940350000000  0.5290950000000 1.0
C      1  0.5324610000000  0.5858640000000  0.5221110000000 1.0
C      1  0.4256200000000  0.5616280000000  0.5255300000000 1.0
C      1  0.5466560000000  0.4346890000000  0.5733200000000 1.0
C      1  0.5831640000000  0.5129400000000  0.5629270000000 1.0
C      1  0.5130010000000  0.5808150000000  0.5619790000000 1.0
C      1  0.4253530000000  0.5370950000000  0.5635410000000 1.0
C      1  0.4308310000000  0.4350120000000  0.5666880000000 1.0
C      1  0.5377780000000  0.4591450000000  0.5514170000000 1.0
C      1  0.5544410000000  0.5227930000000  0.5475920000000 1.0
C      1  0.4942080000000  0.5568210000000  0.5468770000000 1.0
C      1  0.4427200000000  0.5122020000000  0.5481930000000 1.0
C      1  0.4626220000000  0.4354070000000  0.5546340000000 1.0
C      1  0.4909010000000  0.4128910000000  0.4592080000000 1.0
C      1  0.5835130000000  0.4612840000000  0.4655400000000 1.0
C      1  0.5578760000000  0.5669190000000  0.4565630000000 1.0
C      1  0.4600140000000  0.5829720000000  0.4647960000000 1.0
C      1  0.4130920000000  0.4874910000000  0.4586200000000 1.0
C      1  0.4504130000000  0.5537940000000  0.4953760000000 1.0
C      1  0.4327200000000  0.4743820000000  0.4948710000000 1.0
C      1  0.5066560000000  0.4280860000000  0.4986550000000 1.0
C      1  0.5740420000000  0.4846420000000  0.4976420000000 1.0
C      1  0.5367410000000  0.5616580000000  0.4905620000000 1.0
C      1  0.5499630000000  0.4476870000000  0.4859500000000 1.0
C      1  0.5666500000000  0.5262970000000  0.4826930000000 1.0
C      1  0.4974220000000  0.5697030000000  0.4826800000000 1.0
C      1  0.4309330000000  0.5208030000000  0.4839620000000 1.0
C      1  0.4631730000000  0.4423030000000  0.4878340000000 1.0
C      1  0.5839690000000  0.4407360000000  0.5481760000000 1.0
C      1  0.5716490000000  0.5527270000000  0.5469130000000 1.0
C      1  0.4722020000000  0.5829070000000  0.5505710000000 1.0
C      1  0.4111220000000  0.4987910000000  0.5507610000000 1.0
C      1  0.4738230000000  0.4042220000000  0.5516400000000 1.0
C      1  0.5695240000000  0.4685740000000  0.4354170000000 1.0
C      1  0.5456600000000  0.5525230000000  0.4281570000000 1.0
C      1  0.4591010000000  0.5666080000000  0.4357720000000 1.0
C      1  0.4303550000000  0.4869960000000  0.4292000000000 1.0
C      1  0.4908830000000  0.4307230000000  0.4301680000000 1.0
C      1  0.5741650000000  0.5375060000000  0.4514790000000 1.0
C      1  0.4915470000000  0.5827610000000  0.4518310000000 1.0
C      1  0.4208650000000  0.5198190000000  0.4515000000000 1.0
C      1  0.4614400000000  0.4269510000000  0.4568270000000 1.0
C      1  0.5636390000000  0.4360290000000  0.4572330000000 1.0
C      1  0.4924600000000  0.5066000000000  0.5705900000000 1.0
C      1  0.4993640000000  0.4993950000000  0.5380790000000 1.0
C      1  0.5082180000000  0.4928660000000  0.5899060000000 1.0
END
