TITL C-3289323-3850-632 0.000530681138720905 125000 -176.673992265345 0 0 32 (C2) n - 1
REM
REM in /nfs/bkarasulu/CARBON/AIRSS/Generating-Clusters/AIREBO/with-SteepDescent/Higher-Symm/SD-CG/HFTN-CG
REM
REM
REM
REM
REM
REM ./C.cell (b20cbc046b6831c77cfcea5457e17084)
REM
REM compiler GCC version 9.2.1 20190827 (Red Hat 9.2.1-1)
REM options -cpp -mtune=generic -march=x86-64 -g -O0 -fpre-include=/usr/include/finclude/math-vector-fortran.h
REM seed 1578459376 229754540 523275563 1823460806 -720493088 -1842008973 -570117149 -372040653 169597780 -2140876334 422195274 -1275342155 -1058447311 -1067996001 594145318 1619632014 670736963 -1485638704 1922668602 -1423139589 41641450 -355579314 -442444927 -677478769 793905681 -2142434137 -1359206085 1143458710 -1770456584 -1900449488 1997295548 425126588 -1450841320
REM
CELL 1.54180   50.00000   50.00000   50.00000   90.00000   90.00000   90.00000
LATT -1
SFAC C  
C      1  0.4965440000000  0.5158590000000  0.4684120000000 1.0
C      1  0.4965250000000  0.4841450000000  0.5315880000000 1.0
C      1  0.4927020000000  0.4873570000000  0.4726970000000 1.0
C      1  0.4927170000000  0.5126510000000  0.5273030000000 1.0
C      1  0.5356000000000  0.4910970000000  0.4356680000000 1.0
C      1  0.5356100000000  0.5088610000000  0.5643330000000 1.0
C      1  0.5362840000000  0.5185780000000  0.4355750000000 1.0
C      1  0.5362620000000  0.4813800000000  0.5644250000000 1.0
C      1  0.5237250000000  0.5262240000000  0.5485740000000 1.0
C      1  0.5236940000000  0.4737480000000  0.4514260000000 1.0
C      1  0.5279220000000  0.4642280000000  0.5460570000000 1.0
C      1  0.5279650000000  0.5357390000000  0.4539440000000 1.0
C      1  0.5205650000000  0.5268240000000  0.5147000000000 1.0
C      1  0.5205340000000  0.4731510000000  0.4853000000000 1.0
C      1  0.5222880000000  0.4719500000000  0.5134270000000 1.0
C      1  0.5223210000000  0.5280240000000  0.4865730000000 1.0
C      1  0.5037460000000  0.4482930000000  0.5281720000000 1.0
C      1  0.5038070000000  0.5517020000000  0.4718280000000 1.0
C      1  0.5022640000000  0.5476310000000  0.5331720000000 1.0
C      1  0.5022080000000  0.4523670000000  0.4668280000000 1.0
C      1  0.4923810000000  0.5709150000000  0.4909560000000 1.0
C      1  0.4922970000000  0.4290950000000  0.5090440000000 1.0
C      1  0.4924730000000  0.4299350000000  0.4833740000000 1.0
C      1  0.4925560000000  0.5700740000000  0.5166260000000 1.0
C      1  0.4645890000000  0.4780920000000  0.4745730000000 1.0
C      1  0.4646150000000  0.5219490000000  0.5254270000000 1.0
C      1  0.4816340000000  0.5289920000000  0.4460210000000 1.0
C      1  0.4816000000000  0.4710300000000  0.5539790000000 1.0
C      1  0.4669540000000  0.5405130000000  0.4284980000000 1.0
C      1  0.4669060000000  0.4595260000000  0.5715020000000 1.0
C      1  0.4403380000000  0.4710200000000  0.4785380000000 1.0
C      1  0.4403720000000  0.5290510000000  0.5214610000000 1.0
END
