TITL C-3289324-3781-330 0.00150322086411781 125000 -856.116801441023 0 0 165 (C1) n - 1
REM
REM in /nfs/bkarasulu/CARBON/AIRSS/Generating-Clusters/AIREBO/with-SteepDescent/Higher-Symm/SD-CG/HFTN-CG
REM
REM
REM
REM
REM
REM ./C.cell (b20cbc046b6831c77cfcea5457e17084)
REM
REM compiler GCC version 9.2.1 20190827 (Red Hat 9.2.1-1)
REM options -cpp -mtune=generic -march=x86-64 -g -O0 -fpre-include=/usr/include/finclude/math-vector-fortran.h
REM seed -825224897 -1873220995 -1363976513 1071537616 140283408 -1818767302 958725889 1657550314 -195534272 2304988 1228861194 -399443973 -847150563 -1607716144 -732547092 1030340889 756446330 -444594407 -1999499003 -753292042 -543711969 477088173 -1505165014 -1878504737 941121222 417661885 -752233851 383899090 1785737046 -499545560 -1786683146 -28552486 -1736063139
REM
CELL 1.54180   50.00000   50.00000   50.00000   90.00000   90.00000   90.00000
LATT -1
SFAC C  
C      1  0.5484220000000  0.4703860000000  0.3784050000000 1.0
C      1  0.5486790000000  0.5352960000000  0.3922340000000 1.0
C      1  0.4328100000000  0.5759170000000  0.4995440000000 1.0
C      1  0.4355700000000  0.4200810000000  0.4942490000000 1.0
C      1  0.5284390000000  0.5322300000000  0.4510850000000 1.0
C      1  0.5353500000000  0.4681990000000  0.4393730000000 1.0
C      1  0.4414590000000  0.5218620000000  0.5988690000000 1.0
C      1  0.4382310000000  0.4831980000000  0.5927990000000 1.0
C      1  0.5615960000000  0.5652110000000  0.4726600000000 1.0
C      1  0.5719740000000  0.4488860000000  0.4616470000000 1.0
C      1  0.5838920000000  0.5540760000000  0.5039410000000 1.0
C      1  0.5808030000000  0.4320480000000  0.5052620000000 1.0
C      1  0.4261460000000  0.5723210000000  0.5544610000000 1.0
C      1  0.4215650000000  0.4267700000000  0.5487980000000 1.0
C      1  0.4544450000000  0.5277720000000  0.5700340000000 1.0
C      1  0.4511590000000  0.4694000000000  0.5685210000000 1.0
C      1  0.5624190000000  0.4670390000000  0.4083250000000 1.0
C      1  0.5648300000000  0.5309830000000  0.4191950000000 1.0
C      1  0.5157210000000  0.4660490000000  0.5202010000000 1.0
C      1  0.5112360000000  0.5303690000000  0.5221740000000 1.0
C      1  0.5530960000000  0.5335930000000  0.4738910000000 1.0
C      1  0.5448700000000  0.4657750000000  0.4729800000000 1.0
C      1  0.5885260000000  0.5301310000000  0.5278430000000 1.0
C      1  0.5815300000000  0.4715020000000  0.5340420000000 1.0
C      1  0.4453320000000  0.4613870000000  0.4427770000000 1.0
C      1  0.4404410000000  0.5405210000000  0.4358890000000 1.0
C      1  0.5085330000000  0.4256780000000  0.4800840000000 1.0
C      1  0.5087930000000  0.5768730000000  0.4875730000000 1.0
C      1  0.4985420000000  0.4723370000000  0.4841590000000 1.0
C      1  0.5048530000000  0.5393420000000  0.4746490000000 1.0
C      1  0.4860950000000  0.4495940000000  0.5173850000000 1.0
C      1  0.4867740000000  0.5521840000000  0.5166740000000 1.0
C      1  0.5000320000000  0.4352640000000  0.6163540000000 1.0
C      1  0.4943500000000  0.5564270000000  0.6169910000000 1.0
C      1  0.4782340000000  0.4291030000000  0.4913940000000 1.0
C      1  0.4774920000000  0.5710710000000  0.4899470000000 1.0
C      1  0.5540010000000  0.5488120000000  0.5507450000000 1.0
C      1  0.5574610000000  0.4596070000000  0.5557500000000 1.0
C      1  0.4703560000000  0.3962450000000  0.4952200000000 1.0
C      1  0.4631590000000  0.6017610000000  0.4929420000000 1.0
C      1  0.4713330000000  0.4689470000000  0.5411480000000 1.0
C      1  0.4726970000000  0.5345660000000  0.5421480000000 1.0
C      1  0.5945600000000  0.5725570000000  0.4766530000000 1.0
C      1  0.5811170000000  0.4249780000000  0.4783130000000 1.0
C      1  0.4320130000000  0.5438820000000  0.5560340000000 1.0
C      1  0.4294480000000  0.4546950000000  0.5524650000000 1.0
C      1  0.4692490000000  0.4064120000000  0.5230090000000 1.0
C      1  0.4680570000000  0.5938210000000  0.5213250000000 1.0
C      1  0.5084400000000  0.4056390000000  0.5026970000000 1.0
C      1  0.5143290000000  0.6042790000000  0.5042860000000 1.0
C      1  0.5688230000000  0.5569130000000  0.4404030000000 1.0
C      1  0.5694900000000  0.4451640000000  0.4313930000000 1.0
C      1  0.5314140000000  0.5848650000000  0.5247900000000 1.0
C      1  0.5325040000000  0.4166570000000  0.5339840000000 1.0
C      1  0.5922920000000  0.4637540000000  0.5030380000000 1.0
C      1  0.6026240000000  0.5264810000000  0.4973120000000 1.0
C      1  0.4455990000000  0.4304790000000  0.5250280000000 1.0
C      1  0.4482220000000  0.5683620000000  0.5289000000000 1.0
C      1  0.4525910000000  0.4386970000000  0.4745090000000 1.0
C      1  0.4497440000000  0.5619820000000  0.4771570000000 1.0
C      1  0.4392770000000  0.5358410000000  0.4635880000000 1.0
C      1  0.4409920000000  0.4706730000000  0.4752320000000 1.0
C      1  0.4990230000000  0.4769760000000  0.4003500000000 1.0
C      1  0.4924200000000  0.5244920000000  0.3965800000000 1.0
C      1  0.5818390000000  0.4771270000000  0.4323050000000 1.0
C      1  0.5835860000000  0.5262640000000  0.4444420000000 1.0
C      1  0.3768360000000  0.4736130000000  0.4604910000000 1.0
C      1  0.3967400000000  0.5356500000000  0.4722470000000 1.0
C      1  0.5114370000000  0.4728240000000  0.5532440000000 1.0
C      1  0.5152070000000  0.5244700000000  0.5528990000000 1.0
C      1  0.5354740000000  0.5816580000000  0.4584030000000 1.0
C      1  0.5315530000000  0.4077810000000  0.4362070000000 1.0
C      1  0.5464320000000  0.4534410000000  0.5275980000000 1.0
C      1  0.5486870000000  0.5490730000000  0.5221320000000 1.0
C      1  0.5816050000000  0.4789050000000  0.5672300000000 1.0
C      1  0.5780010000000  0.5345120000000  0.5579220000000 1.0
C      1  0.5250160000000  0.4238970000000  0.5612050000000 1.0
C      1  0.5232580000000  0.5810830000000  0.5550110000000 1.0
C      1  0.5535780000000  0.4726510000000  0.5051250000000 1.0
C      1  0.5523860000000  0.5251110000000  0.5037060000000 1.0
C      1  0.5090680000000  0.5681660000000  0.4160640000000 1.0
C      1  0.5068300000000  0.4288890000000  0.4132000000000 1.0
C      1  0.4740690000000  0.5203310000000  0.4517390000000 1.0
C      1  0.4909300000000  0.4686090000000  0.4551820000000 1.0
C      1  0.4953690000000  0.5915250000000  0.4259090000000 1.0
C      1  0.4910900000000  0.4028850000000  0.4204840000000 1.0
C      1  0.4670490000000  0.4378600000000  0.5503610000000 1.0
C      1  0.4733310000000  0.5656950000000  0.5516820000000 1.0
C      1  0.4447550000000  0.4595820000000  0.5074330000000 1.0
C      1  0.4494060000000  0.5399590000000  0.5102150000000 1.0
C      1  0.5571840000000  0.4252560000000  0.5194290000000 1.0
C      1  0.5572460000000  0.5752310000000  0.5048700000000 1.0
C      1  0.5079750000000  0.4244510000000  0.4495780000000 1.0
C      1  0.5045380000000  0.5676090000000  0.4566920000000 1.0
C      1  0.4986530000000  0.4212000000000  0.5313100000000 1.0
C      1  0.4973210000000  0.5834110000000  0.5250600000000 1.0
C      1  0.4916610000000  0.4247120000000  0.5644040000000 1.0
C      1  0.4952070000000  0.5743690000000  0.5660810000000 1.0
C      1  0.5382530000000  0.4740260000000  0.5980430000000 1.0
C      1  0.5469200000000  0.5385490000000  0.5945880000000 1.0
C      1  0.5232180000000  0.5519940000000  0.5003240000000 1.0
C      1  0.5207940000000  0.4507500000000  0.4902520000000 1.0
C      1  0.4726280000000  0.5859680000000  0.4413410000000 1.0
C      1  0.4737570000000  0.4065480000000  0.4392940000000 1.0
C      1  0.5023560000000  0.5597980000000  0.5917040000000 1.0
C      1  0.5042830000000  0.4391380000000  0.5912300000000 1.0
C      1  0.4651890000000  0.4499790000000  0.4242730000000 1.0
C      1  0.4645930000000  0.5524510000000  0.4210680000000 1.0
C      1  0.5357580000000  0.5601740000000  0.4331330000000 1.0
C      1  0.5374460000000  0.4381730000000  0.4247080000000 1.0
C      1  0.4886570000000  0.5499130000000  0.4062780000000 1.0
C      1  0.4872490000000  0.4505090000000  0.4066350000000 1.0
C      1  0.5333870000000  0.5223450000000  0.4189160000000 1.0
C      1  0.5300860000000  0.4732780000000  0.4059700000000 1.0
C      1  0.4767270000000  0.5311510000000  0.4919060000000 1.0
C      1  0.4721750000000  0.4751480000000  0.4997690000000 1.0
C      1  0.5271280000000  0.5506820000000  0.5697470000000 1.0
C      1  0.5290850000000  0.4552240000000  0.5737810000000 1.0
C      1  0.4188080000000  0.4011490000000  0.4886420000000 1.0
C      1  0.4133980000000  0.5929240000000  0.4966880000000 1.0
C      1  0.4271860000000  0.5319480000000  0.5317270000000 1.0
C      1  0.4258870000000  0.4690260000000  0.5289510000000 1.0
C      1  0.4733410000000  0.5543530000000  0.4538720000000 1.0
C      1  0.4768080000000  0.4377870000000  0.4523770000000 1.0
C      1  0.5393570000000  0.3836270000000  0.4330190000000 1.0
C      1  0.5370750000000  0.6116250000000  0.4593360000000 1.0
C      1  0.5987050000000  0.5412480000000  0.4691220000000 1.0
C      1  0.5854230000000  0.4762110000000  0.4720990000000 1.0
C      1  0.5717590000000  0.5106580000000  0.5746070000000 1.0
C      1  0.4880560000000  0.4968820000000  0.6005450000000 1.0
C      1  0.5625710000000  0.5012700000000  0.4692490000000 1.0
C      1  0.4988750000000  0.4983260000000  0.4457020000000 1.0
C      1  0.3997270000000  0.4885500000000  0.4588990000000 1.0
C      1  0.4385340000000  0.5045570000000  0.4769370000000 1.0
C      1  0.4755290000000  0.4995410000000  0.3963810000000 1.0
C      1  0.5231050000000  0.5077720000000  0.6313100000000 1.0
C      1  0.5242600000000  0.4901310000000  0.4847850000000 1.0
C      1  0.5385810000000  0.5104130000000  0.5818830000000 1.0
C      1  0.4208510000000  0.4991210000000  0.5289850000000 1.0
C      1  0.5317940000000  0.4985460000000  0.4543120000000 1.0
C      1  0.4175500000000  0.5042040000000  0.5823180000000 1.0
C      1  0.4535470000000  0.4999220000000  0.4120500000000 1.0
C      1  0.3821980000000  0.5063150000000  0.5353160000000 1.0
C      1  0.4590960000000  0.4977090000000  0.6110160000000 1.0
C      1  0.5704160000000  0.5024180000000  0.5356110000000 1.0
C      1  0.4035650000000  0.5036450000000  0.5582650000000 1.0
C      1  0.5660010000000  0.4850580000000  0.5960940000000 1.0
C      1  0.4173520000000  0.4891400000000  0.4377750000000 1.0
C      1  0.3949890000000  0.5032470000000  0.5080290000000 1.0
C      1  0.5414410000000  0.5033570000000  0.5486560000000 1.0
C      1  0.4723850000000  0.5018290000000  0.4786920000000 1.0
C      1  0.5361150000000  0.5000360000000  0.5151970000000 1.0
C      1  0.4051330000000  0.5099320000000  0.4804640000000 1.0
C      1  0.6069530000000  0.4943300000000  0.5004480000000 1.0
C      1  0.5739010000000  0.4992240000000  0.5024430000000 1.0
C      1  0.5029220000000  0.4974690000000  0.5176840000000 1.0
C      1  0.5956960000000  0.4976060000000  0.4477340000000 1.0
C      1  0.4479550000000  0.5062510000000  0.5095920000000 1.0
C      1  0.4691230000000  0.4981960000000  0.5724290000000 1.0
C      1  0.5177560000000  0.4973030000000  0.6053800000000 1.0
C      1  0.5091080000000  0.5049930000000  0.4168490000000 1.0
C      1  0.4077890000000  0.4895750000000  0.4119940000000 1.0
C      1  0.4727570000000  0.5018760000000  0.5327670000000 1.0
C      1  0.4462760000000  0.5018560000000  0.4439170000000 1.0
C      1  0.4965210000000  0.4989050000000  0.5569420000000 1.0
END
