TITL C-3289320-4661-21 -4.69883656609926e-05 125000 -574.436269495192 0 0 96 (C1) n - 1
REM
REM in /nfs/bkarasulu/CARBON/AIRSS/Generating-Clusters/AIREBO/with-SteepDescent/Higher-Symm/SD-CG/HFTN-CG
REM
REM
REM
REM
REM
REM ./C.cell (b20cbc046b6831c77cfcea5457e17084)
REM
REM compiler GCC version 9.2.1 20190827 (Red Hat 9.2.1-1)
REM options -cpp -mtune=generic -march=x86-64 -g -O0 -fpre-include=/usr/include/finclude/math-vector-fortran.h
REM seed -1580967439 196784682 633943727 -1353539847 626188100 -510685978 -1775321897 -1073180696 1309047135 1902197721 -1656802355 -1734881102 -937765797 372282475 -520062053 934234615 1421643001 -472535141 1341135871 -1861046247 944542148 1368040562 333782965 -1180650355 -625493259 -2024106548 -547086801 686939207 2003617675 1987251220 1536052513 533423628 1010760742
REM
CELL 1.54180   50.00000   50.00000   50.00000   90.00000   90.00000   90.00000
LATT -1
SFAC C  
C      1  0.5488630000000  0.5341060000000  0.4454450000000 1.0
C      1  0.5488920000000  0.4345410000000  0.5001020000000 1.0
C      1  0.5502090000000  0.5364940000000  0.5589020000000 1.0
C      1  0.5575260000000  0.4756420000000  0.4412980000000 1.0
C      1  0.5600750000000  0.5676130000000  0.5045080000000 1.0
C      1  0.5632900000000  0.4649860000000  0.5662620000000 1.0
C      1  0.5506220000000  0.5181880000000  0.5801970000000 1.0
C      1  0.5469310000000  0.5614140000000  0.4512170000000 1.0
C      1  0.5435740000000  0.4323120000000  0.4679110000000 1.0
C      1  0.5527200000000  0.4849610000000  0.5837970000000 1.0
C      1  0.5416650000000  0.4504430000000  0.4456820000000 1.0
C      1  0.5459330000000  0.5703020000000  0.4790910000000 1.0
C      1  0.4365140000000  0.4176530000000  0.4698440000000 1.0
C      1  0.4412670000000  0.5211290000000  0.5813060000000 1.0
C      1  0.4427450000000  0.5578730000000  0.4379170000000 1.0
C      1  0.4353570000000  0.5732750000000  0.4595250000000 1.0
C      1  0.4337570000000  0.4943930000000  0.5822290000000 1.0
C      1  0.4303900000000  0.4332270000000  0.4479000000000 1.0
C      1  0.4430300000000  0.4616210000000  0.5407800000000 1.0
C      1  0.4359770000000  0.5538520000000  0.5070310000000 1.0
C      1  0.4316620000000  0.4829180000000  0.4477340000000 1.0
C      1  0.4377630000000  0.5395490000000  0.5377620000000 1.0
C      1  0.4372900000000  0.4455900000000  0.5106050000000 1.0
C      1  0.4455430000000  0.5088860000000  0.4406940000000 1.0
C      1  0.5252450000000  0.5121850000000  0.5257760000000 1.0
C      1  0.5168220000000  0.5156270000000  0.4769870000000 1.0
C      1  0.5180330000000  0.4609890000000  0.5087410000000 1.0
C      1  0.5225780000000  0.4796110000000  0.5355740000000 1.0
C      1  0.5094130000000  0.4886420000000  0.4576240000000 1.0
C      1  0.5111460000000  0.5316240000000  0.5039910000000 1.0
C      1  0.4469310000000  0.5722270000000  0.4851010000000 1.0
C      1  0.4428210000000  0.4577550000000  0.4411310000000 1.0
C      1  0.4485430000000  0.4736020000000  0.5701190000000 1.0
C      1  0.4503340000000  0.4235420000000  0.4924630000000 1.0
C      1  0.4580770000000  0.5346550000000  0.4332360000000 1.0
C      1  0.4542380000000  0.5368690000000  0.5612640000000 1.0
C      1  0.5759310000000  0.4799950000000  0.5214090000000 1.0
C      1  0.5894270000000  0.5226730000000  0.4979070000000 1.0
C      1  0.5865070000000  0.4821010000000  0.4748140000000 1.0
C      1  0.5809230000000  0.5071580000000  0.5228390000000 1.0
C      1  0.5734340000000  0.4685360000000  0.4960940000000 1.0
C      1  0.5799170000000  0.5096150000000  0.4751030000000 1.0
C      1  0.4210140000000  0.4793470000000  0.5241840000000 1.0
C      1  0.4191930000000  0.5263670000000  0.5050750000000 1.0
C      1  0.4183300000000  0.4858000000000  0.4735040000000 1.0
C      1  0.4297060000000  0.5079490000000  0.5281420000000 1.0
C      1  0.4174700000000  0.4687020000000  0.4956380000000 1.0
C      1  0.4235410000000  0.5132790000000  0.4808390000000 1.0
C      1  0.5345160000000  0.5599930000000  0.5523340000000 1.0
C      1  0.5387160000000  0.5204310000000  0.4228030000000 1.0
C      1  0.5391410000000  0.4279190000000  0.5282660000000 1.0
C      1  0.5430870000000  0.4387540000000  0.5545690000000 1.0
C      1  0.5488520000000  0.4923920000000  0.4191750000000 1.0
C      1  0.5432900000000  0.5755980000000  0.5266720000000 1.0
C      1  0.4944540000000  0.4410450000000  0.4400470000000 1.0
C      1  0.4911790000000  0.4895290000000  0.5935060000000 1.0
C      1  0.4970110000000  0.5772730000000  0.4704310000000 1.0
C      1  0.5006150000000  0.5674480000000  0.4437030000000 1.0
C      1  0.4959470000000  0.5203970000000  0.5874510000000 1.0
C      1  0.4955030000000  0.4216900000000  0.4605400000000 1.0
C      1  0.4912650000000  0.4782090000000  0.5487610000000 1.0
C      1  0.4823350000000  0.5469240000000  0.4999680000000 1.0
C      1  0.4861850000000  0.4721330000000  0.4637610000000 1.0
C      1  0.4937810000000  0.5103930000000  0.5386150000000 1.0
C      1  0.4899640000000  0.4564260000000  0.4917120000000 1.0
C      1  0.4877540000000  0.5217380000000  0.4627660000000 1.0
C      1  0.5133750000000  0.5622850000000  0.5185900000000 1.0
C      1  0.5136140000000  0.4896230000000  0.4264550000000 1.0
C      1  0.5238510000000  0.4611690000000  0.5641240000000 1.0
C      1  0.5107180000000  0.4277920000000  0.5094230000000 1.0
C      1  0.5088170000000  0.5217980000000  0.4177930000000 1.0
C      1  0.5041470000000  0.5564380000000  0.5508500000000 1.0
C      1  0.4861920000000  0.5329970000000  0.5604140000000 1.0
C      1  0.4898740000000  0.5383420000000  0.4362460000000 1.0
C      1  0.4811730000000  0.4245330000000  0.4912640000000 1.0
C      1  0.4760210000000  0.4760130000000  0.5746230000000 1.0
C      1  0.4702080000000  0.4570930000000  0.4406950000000 1.0
C      1  0.4748300000000  0.5696920000000  0.4854650000000 1.0
C      1  0.5500550000000  0.5153390000000  0.4689540000000 1.0
C      1  0.5432720000000  0.4658890000000  0.4895390000000 1.0
C      1  0.5540300000000  0.5236150000000  0.5321850000000 1.0
C      1  0.5393490000000  0.4842920000000  0.4668570000000 1.0
C      1  0.5711710000000  0.5432070000000  0.5100840000000 1.0
C      1  0.5557820000000  0.4730220000000  0.5388620000000 1.0
C      1  0.5268970000000  0.5736680000000  0.4347930000000 1.0
C      1  0.5186140000000  0.4198940000000  0.4785520000000 1.0
C      1  0.5242600000000  0.5112590000000  0.5923570000000 1.0
C      1  0.5168070000000  0.4562900000000  0.4325640000000 1.0
C      1  0.5192300000000  0.5752920000000  0.4877180000000 1.0
C      1  0.5214990000000  0.4774510000000  0.5931680000000 1.0
C      1  0.4563020000000  0.5137100000000  0.4725900000000 1.0
C      1  0.4618300000000  0.4657060000000  0.5058030000000 1.0
C      1  0.4622460000000  0.5105410000000  0.5257490000000 1.0
C      1  0.4641510000000  0.4846400000000  0.4812300000000 1.0
C      1  0.4589530000000  0.5292290000000  0.5022730000000 1.0
C      1  0.4679640000000  0.4810770000000  0.5304070000000 1.0
END
