TITL C-3289331-6719-213 0.00556745329432208 125000 -879.725067344972 0 0 156 (C1) n - 1
REM
REM in /nfs/bkarasulu/CARBON/AIRSS/Generating-Clusters/AIREBO/with-SteepDescent/Higher-Symm/SD-CG/HFTN-CG
REM
REM
REM
REM
REM
REM ./C.cell (b20cbc046b6831c77cfcea5457e17084)
REM
REM compiler GCC version 9.2.1 20190827 (Red Hat 9.2.1-1)
REM options -cpp -mtune=generic -march=x86-64 -g -O0 -fpre-include=/usr/include/finclude/math-vector-fortran.h
REM seed 1960791651 438897236 -799270327 688576547 654246299 -1245981441 449324237 -1452632109 -183236521 757418466 75610715 -618497681 365920977 1169707158 430220710 759134619 -85190328 -956134872 -1252852099 -313496423 1882693803 1313233934 -1443341460 -900183551 -74332097 -516370308 244389424 1560965876 -660944095 328686243 796949413 -1101231198 -1844340827
REM
CELL 1.54180   50.00000   50.00000   50.00000   90.00000   90.00000   90.00000
LATT -1
SFAC C  
C      1  0.5246090000000  0.5180840000000  0.4007120000000 1.0
C      1  0.3983240000000  0.5161960000000  0.4853340000000 1.0
C      1  0.4732720000000  0.5187190000000  0.5963010000000 1.0
C      1  0.5981690000000  0.5042500000000  0.5149290000000 1.0
C      1  0.5182700000000  0.5087250000000  0.5915220000000 1.0
C      1  0.3907970000000  0.4936160000000  0.5264300000000 1.0
C      1  0.4804190000000  0.5053400000000  0.4124130000000 1.0
C      1  0.6001430000000  0.4912600000000  0.4778820000000 1.0
C      1  0.4126180000000  0.4657470000000  0.4565130000000 1.0
C      1  0.4537910000000  0.4622650000000  0.5816300000000 1.0
C      1  0.5836760000000  0.4622580000000  0.5465540000000 1.0
C      1  0.5431420000000  0.4578780000000  0.4186290000000 1.0
C      1  0.4204930000000  0.5378410000000  0.5323510000000 1.0
C      1  0.4550860000000  0.5375200000000  0.4362260000000 1.0
C      1  0.5748550000000  0.5371770000000  0.4622680000000 1.0
C      1  0.5436170000000  0.5349350000000  0.5649730000000 1.0
C      1  0.5113470000000  0.5173460000000  0.5230280000000 1.0
C      1  0.5183390000000  0.5192460000000  0.4903060000000 1.0
C      1  0.4878950000000  0.5165000000000  0.4784680000000 1.0
C      1  0.4830780000000  0.5137710000000  0.5082320000000 1.0
C      1  0.4919260000000  0.4733690000000  0.4710230000000 1.0
C      1  0.5285430000000  0.4753390000000  0.4958370000000 1.0
C      1  0.5058770000000  0.4722030000000  0.5281900000000 1.0
C      1  0.4665340000000  0.4742970000000  0.5060920000000 1.0
C      1  0.4906500000000  0.4778370000000  0.4300420000000 1.0
C      1  0.4131860000000  0.4758340000000  0.5075300000000 1.0
C      1  0.5045340000000  0.4843670000000  0.5733520000000 1.0
C      1  0.5697990000000  0.4827920000000  0.4906780000000 1.0
C      1  0.4813310000000  0.5259860000000  0.5475380000000 1.0
C      1  0.4501960000000  0.5279900000000  0.4850590000000 1.0
C      1  0.5149790000000  0.5274160000000  0.4512960000000 1.0
C      1  0.5491310000000  0.5279440000000  0.5157330000000 1.0
C      1  0.4126000000000  0.5383390000000  0.4672430000000 1.0
C      1  0.4535640000000  0.5355940000000  0.5743220000000 1.0
C      1  0.5863500000000  0.5327010000000  0.5295720000000 1.0
C      1  0.5421930000000  0.5334520000000  0.4227140000000 1.0
C      1  0.4274820000000  0.4587130000000  0.5425780000000 1.0
C      1  0.4422240000000  0.4619510000000  0.4280580000000 1.0
C      1  0.5725750000000  0.4604180000000  0.4451790000000 1.0
C      1  0.5503280000000  0.4609340000000  0.5765690000000 1.0
C      1  0.5259190000000  0.5444960000000  0.5305630000000 1.0
C      1  0.5260740000000  0.5460930000000  0.4732610000000 1.0
C      1  0.4745840000000  0.5428920000000  0.4706530000000 1.0
C      1  0.4714100000000  0.5398950000000  0.5217340000000 1.0
C      1  0.5199320000000  0.4576200000000  0.4699590000000 1.0
C      1  0.5351250000000  0.4560790000000  0.5221640000000 1.0
C      1  0.4797400000000  0.4543250000000  0.5308330000000 1.0
C      1  0.4668700000000  0.4525880000000  0.4808530000000 1.0
C      1  0.4970530000000  0.4009690000000  0.5706670000000 1.0
C      1  0.5721090000000  0.4113650000000  0.5127910000000 1.0
C      1  0.5034800000000  0.4272700000000  0.4225670000000 1.0
C      1  0.4352070000000  0.4019100000000  0.4936110000000 1.0
C      1  0.4888060000000  0.5888470000000  0.4291910000000 1.0
C      1  0.5663390000000  0.5715820000000  0.4919990000000 1.0
C      1  0.5114070000000  0.5899320000000  0.5712640000000 1.0
C      1  0.4421480000000  0.5779510000000  0.5048280000000 1.0
C      1  0.5620490000000  0.5490490000000  0.5469890000000 1.0
C      1  0.5554590000000  0.5512660000000  0.4403070000000 1.0
C      1  0.4400430000000  0.5529920000000  0.4535190000000 1.0
C      1  0.4452940000000  0.5518540000000  0.5509870000000 1.0
C      1  0.5504040000000  0.4398330000000  0.4455120000000 1.0
C      1  0.5618320000000  0.4449670000000  0.5558720000000 1.0
C      1  0.4448530000000  0.4444620000000  0.5592190000000 1.0
C      1  0.4370320000000  0.4430290000000  0.4498190000000 1.0
C      1  0.4261780000000  0.4294360000000  0.5057450000000 1.0
C      1  0.5001150000000  0.4327100000000  0.5761640000000 1.0
C      1  0.5884970000000  0.4419870000000  0.5124180000000 1.0
C      1  0.5052120000000  0.4577100000000  0.4072800000000 1.0
C      1  0.4071450000000  0.5698140000000  0.4687370000000 1.0
C      1  0.4952660000000  0.5576700000000  0.4172550000000 1.0
C      1  0.5904660000000  0.5576520000000  0.5116940000000 1.0
C      1  0.5031340000000  0.5586210000000  0.5818110000000 1.0
C      1  0.4906780000000  0.4307550000000  0.4736580000000 1.0
C      1  0.4831860000000  0.4239970000000  0.5198870000000 1.0
C      1  0.5146280000000  0.4308860000000  0.5237800000000 1.0
C      1  0.5188100000000  0.4356400000000  0.4922180000000 1.0
C      1  0.4887490000000  0.5656250000000  0.5171350000000 1.0
C      1  0.4827820000000  0.5684560000000  0.4857980000000 1.0
C      1  0.5112850000000  0.5738920000000  0.4700030000000 1.0
C      1  0.5194390000000  0.5728510000000  0.5192000000000 1.0
C      1  0.5266140000000  0.4841130000000  0.4024010000000 1.0
C      1  0.4027940000000  0.4874870000000  0.4807030000000 1.0
C      1  0.4761700000000  0.4856340000000  0.5921520000000 1.0
C      1  0.5973290000000  0.4739100000000  0.5203510000000 1.0
C      1  0.4996950000000  0.5298520000000  0.5965060000000 1.0
C      1  0.3975380000000  0.5216820000000  0.5128570000000 1.0
C      1  0.4980010000000  0.5266780000000  0.4040270000000 1.0
C      1  0.5862070000000  0.5190590000000  0.4887220000000 1.0
C      1  0.4586530000000  0.5053450000000  0.5623080000000 1.0
C      1  0.5662240000000  0.5086210000000  0.5380160000000 1.0
C      1  0.5360920000000  0.5051150000000  0.4363460000000 1.0
C      1  0.4308830000000  0.5104120000000  0.4632860000000 1.0
C      1  0.4518720000000  0.4859960000000  0.4319380000000 1.0
C      1  0.5665800000000  0.4859400000000  0.4574420000000 1.0
C      1  0.5439990000000  0.4860360000000  0.5701410000000 1.0
C      1  0.4295690000000  0.4903500000000  0.5327670000000 1.0
C      1  0.4587380000000  0.4181060000000  0.5428200000000 1.0
C      1  0.5398630000000  0.4240490000000  0.5455340000000 1.0
C      1  0.5446120000000  0.4263720000000  0.4735940000000 1.0
C      1  0.4631110000000  0.4227040000000  0.4553650000000 1.0
C      1  0.4558530000000  0.5778480000000  0.4672610000000 1.0
C      1  0.5378180000000  0.5753450000000  0.4487860000000 1.0
C      1  0.5472530000000  0.5771600000000  0.5383460000000 1.0
C      1  0.4674210000000  0.5736530000000  0.5424210000000 1.0
C      1  0.5167850000000  0.4602250000000  0.4399840000000 1.0
C      1  0.4382620000000  0.4560740000000  0.5010370000000 1.0
C      1  0.4936690000000  0.4556890000000  0.5620220000000 1.0
C      1  0.5631010000000  0.4596070000000  0.5067440000000 1.0
C      1  0.5102840000000  0.5378350000000  0.5588100000000 1.0
C      1  0.4430540000000  0.5470470000000  0.5114610000000 1.0
C      1  0.4878110000000  0.5389000000000  0.4406850000000 1.0
C      1  0.5538090000000  0.5420250000000  0.4885310000000 1.0
C      1  0.4815180000000  0.5808640000000  0.5679540000000 1.0
C      1  0.5724850000000  0.5828440000000  0.5219650000000 1.0
C      1  0.5190720000000  0.5809520000000  0.4245870000000 1.0
C      1  0.4275120000000  0.5836970000000  0.4801230000000 1.0
C      1  0.4778560000000  0.4170340000000  0.4276470000000 1.0
C      1  0.5720810000000  0.4271580000000  0.4865880000000 1.0
C      1  0.5256210000000  0.4143850000000  0.5700650000000 1.0
C      1  0.4356740000000  0.4073240000000  0.5258190000000 1.0
C      1  0.5560290000000  0.4881220000000  0.4189800000000 1.0
C      1  0.4145800000000  0.4938730000000  0.4435310000000 1.0
C      1  0.4393450000000  0.4887520000000  0.5777340000000 1.0
C      1  0.5814250000000  0.4906870000000  0.5571050000000 1.0
C      1  0.5493060000000  0.5131890000000  0.5860300000000 1.0
C      1  0.4095240000000  0.5107060000000  0.5488820000000 1.0
C      1  0.4497180000000  0.5144110000000  0.4168270000000 1.0
C      1  0.5869810000000  0.5103830000000  0.4498630000000 1.0
C      1  0.4984460000000  0.6042680000000  0.4783130000000 1.0
C      1  0.4872800000000  0.6062160000000  0.5091980000000 1.0
C      1  0.5126040000000  0.6112710000000  0.5272210000000 1.0
C      1  0.5248280000000  0.5982490000000  0.4982720000000 1.0
C      1  0.4968650000000  0.3868090000000  0.5240700000000 1.0
C      1  0.4834430000000  0.3992900000000  0.4965690000000 1.0
C      1  0.5092280000000  0.4022370000000  0.4739260000000 1.0
C      1  0.5220860000000  0.3963750000000  0.5049960000000 1.0
C      1  0.5149190000000  0.4951640000000  0.4585900000000 1.0
C      1  0.4549230000000  0.4942460000000  0.4810890000000 1.0
C      1  0.4821570000000  0.4925040000000  0.5416630000000 1.0
C      1  0.5434840000000  0.4946330000000  0.5195410000000 1.0
C      1  0.5217910000000  0.4942990000000  0.5457570000000 1.0
C      1  0.4558000000000  0.4997900000000  0.5230010000000 1.0
C      1  0.4753340000000  0.4965420000000  0.4539710000000 1.0
C      1  0.5427100000000  0.4990970000000  0.4777930000000 1.0
C      1  0.5254780000000  0.5983920000000  0.5491830000000 1.0
C      1  0.5472630000000  0.5897640000000  0.4771000000000 1.0
C      1  0.4796090000000  0.5940570000000  0.4552750000000 1.0
C      1  0.4623010000000  0.5952080000000  0.5180470000000 1.0
C      1  0.5248230000000  0.4174930000000  0.4472120000000 1.0
C      1  0.5453820000000  0.4056730000000  0.5202170000000 1.0
C      1  0.4827630000000  0.3951790000000  0.5473900000000 1.0
C      1  0.4589060000000  0.4014480000000  0.4791780000000 1.0
C      1  0.4144510000000  0.4989700000000  0.5767230000000 1.0
C      1  0.5821910000000  0.4974610000000  0.4225050000000 1.0
C      1  0.4188580000000  0.5035480000000  0.4181000000000 1.0
C      1  0.5790010000000  0.5003470000000  0.5827800000000 1.0
END
