TITL C-3289331-6719-722 -0.000598323277804926 125000 -754.66936000957 0 0 139 (C1) n - 1
REM
REM in /nfs/bkarasulu/CARBON/AIRSS/Generating-Clusters/AIREBO/with-SteepDescent/Higher-Symm/SD-CG/HFTN-CG
REM
REM
REM
REM
REM
REM ./C.cell (b20cbc046b6831c77cfcea5457e17084)
REM
REM compiler GCC version 9.2.1 20190827 (Red Hat 9.2.1-1)
REM options -cpp -mtune=generic -march=x86-64 -g -O0 -fpre-include=/usr/include/finclude/math-vector-fortran.h
REM seed -478017023 1202113906 687708284 2141630267 406258744 13289101 -1935161526 1366959986 706247943 -367215429 402608306 -1926228361 431565844 226352841 1316364514 -691167533 811143475 -1094278071 -31501418 -711809546 410611472 161052814 -1169921347 1828810269 1482961735 1317350929 -472704930 2134321357 203373410 1765527634 1739650552 -1383554796 976685901
REM
CELL 1.54180   50.00000   50.00000   50.00000   90.00000   90.00000   90.00000
LATT -1
SFAC C  
C      1  0.4383570000000  0.5379940000000  0.5406220000000 1.0
C      1  0.4328430000000  0.4453820000000  0.5460270000000 1.0
C      1  0.5269810000000  0.4248370000000  0.5304170000000 1.0
C      1  0.5821880000000  0.5125630000000  0.5296720000000 1.0
C      1  0.5216940000000  0.5750040000000  0.5326530000000 1.0
C      1  0.5164960000000  0.4455230000000  0.5055360000000 1.0
C      1  0.5632400000000  0.5037250000000  0.5036540000000 1.0
C      1  0.5215880000000  0.5523390000000  0.5081210000000 1.0
C      1  0.4518130000000  0.5337560000000  0.5036860000000 1.0
C      1  0.4460900000000  0.4629730000000  0.5059670000000 1.0
C      1  0.5262960000000  0.4085730000000  0.4617710000000 1.0
C      1  0.5897910000000  0.5150380000000  0.4617620000000 1.0
C      1  0.5220510000000  0.5877450000000  0.4574190000000 1.0
C      1  0.4265520000000  0.5500890000000  0.4576810000000 1.0
C      1  0.4279970000000  0.4402590000000  0.4595890000000 1.0
C      1  0.5207620000000  0.5259950000000  0.5297100000000 1.0
C      1  0.4585410000000  0.5128390000000  0.5296730000000 1.0
C      1  0.4599960000000  0.4638120000000  0.5370020000000 1.0
C      1  0.5114340000000  0.4758990000000  0.5201010000000 1.0
C      1  0.5319170000000  0.5007640000000  0.5165750000000 1.0
C      1  0.5464750000000  0.4531160000000  0.4914050000000 1.0
C      1  0.5585030000000  0.5322660000000  0.4888900000000 1.0
C      1  0.4893160000000  0.5470810000000  0.5055210000000 1.0
C      1  0.4374440000000  0.5039640000000  0.4971290000000 1.0
C      1  0.4747880000000  0.4463800000000  0.5006270000000 1.0
C      1  0.5490610000000  0.5701990000000  0.4990420000000 1.0
C      1  0.4493720000000  0.5647920000000  0.5033350000000 1.0
C      1  0.4135770000000  0.4729410000000  0.5062590000000 1.0
C      1  0.5003900000000  0.4157460000000  0.5021190000000 1.0
C      1  0.5865870000000  0.4789990000000  0.5033650000000 1.0
C      1  0.4849300000000  0.4769740000000  0.4501880000000 1.0
C      1  0.5158180000000  0.4784710000000  0.4516570000000 1.0
C      1  0.5248390000000  0.5078680000000  0.4522010000000 1.0
C      1  0.4967800000000  0.5232750000000  0.4542030000000 1.0
C      1  0.4718080000000  0.5040330000000  0.4460980000000 1.0
C      1  0.4761760000000  0.5742570000000  0.5165050000000 1.0
C      1  0.4134140000000  0.5006040000000  0.5209470000000 1.0
C      1  0.4735740000000  0.4186420000000  0.5186100000000 1.0
C      1  0.5703770000000  0.4543100000000  0.5125360000000 1.0
C      1  0.5667350000000  0.5497030000000  0.5167070000000 1.0
C      1  0.4734310000000  0.4094620000000  0.4614500000000 1.0
C      1  0.5828650000000  0.4603700000000  0.4682030000000 1.0
C      1  0.5775120000000  0.5652060000000  0.4631250000000 1.0
C      1  0.4681340000000  0.5839600000000  0.4621820000000 1.0
C      1  0.4092330000000  0.4967810000000  0.4609690000000 1.0
C      1  0.4137860000000  0.4682810000000  0.4725970000000 1.0
C      1  0.4986750000000  0.4032760000000  0.4722000000000 1.0
C      1  0.5919230000000  0.4893900000000  0.4722030000000 1.0
C      1  0.5480920000000  0.5806720000000  0.4680410000000 1.0
C      1  0.4445890000000  0.5708590000000  0.4722570000000 1.0
C      1  0.4911690000000  0.5627790000000  0.4533630000000 1.0
C      1  0.4423050000000  0.5044160000000  0.4630150000000 1.0
C      1  0.4675770000000  0.4416660000000  0.4559660000000 1.0
C      1  0.5515740000000  0.4551130000000  0.4577830000000 1.0
C      1  0.5585560000000  0.5392000000000  0.4555280000000 1.0
C      1  0.5962500000000  0.5395200000000  0.5032160000000 1.0
C      1  0.4901410000000  0.6009140000000  0.5024140000000 1.0
C      1  0.3993660000000  0.5249700000000  0.5018000000000 1.0
C      1  0.4443370000000  0.4107870000000  0.5066330000000 1.0
C      1  0.5699490000000  0.4223920000000  0.5007490000000 1.0
C      1  0.5983670000000  0.5368210000000  0.5370460000000 1.0
C      1  0.5060150000000  0.5965730000000  0.5308910000000 1.0
C      1  0.4148960000000  0.5399380000000  0.5278950000000 1.0
C      1  0.4241130000000  0.4197330000000  0.5333600000000 1.0
C      1  0.5493930000000  0.4075340000000  0.5215240000000 1.0
C      1  0.5163270000000  0.5370240000000  0.5799740000000 1.0
C      1  0.4646350000000  0.5291950000000  0.5688120000000 1.0
C      1  0.4505470000000  0.4649720000000  0.5758120000000 1.0
C      1  0.5135680000000  0.4488370000000  0.5655840000000 1.0
C      1  0.5468370000000  0.4942830000000  0.5682680000000 1.0
C      1  0.5396340000000  0.4579780000000  0.5534940000000 1.0
C      1  0.5657270000000  0.5223390000000  0.5644840000000 1.0
C      1  0.5002010000000  0.5589750000000  0.5620370000000 1.0
C      1  0.4377630000000  0.5128460000000  0.5716410000000 1.0
C      1  0.4656270000000  0.4390840000000  0.5678720000000 1.0
C      1  0.4862650000000  0.5221510000000  0.4008850000000 1.0
C      1  0.4744890000000  0.4916160000000  0.4054270000000 1.0
C      1  0.5011470000000  0.4704610000000  0.4062650000000 1.0
C      1  0.5292190000000  0.4885140000000  0.4067170000000 1.0
C      1  0.5192820000000  0.5197040000000  0.4012750000000 1.0
C      1  0.4854020000000  0.5217470000000  0.4859850000000 1.0
C      1  0.4688070000000  0.4922880000000  0.4910850000000 1.0
C      1  0.4923020000000  0.4692320000000  0.4825280000000 1.0
C      1  0.5252250000000  0.4769940000000  0.4825470000000 1.0
C      1  0.5288840000000  0.5252690000000  0.4782650000000 1.0
C      1  0.4217920000000  0.4681490000000  0.5631560000000 1.0
C      1  0.5087940000000  0.4238280000000  0.5522910000000 1.0
C      1  0.5763420000000  0.4920110000000  0.5528320000000 1.0
C      1  0.5336950000000  0.5620430000000  0.5569290000000 1.0
C      1  0.4543430000000  0.5566880000000  0.5577280000000 1.0
C      1  0.6148540000000  0.4913000000000  0.5104310000000 1.0
C      1  0.5424930000000  0.6016350000000  0.5015740000000 1.0
C      1  0.4207070000000  0.5830270000000  0.5018820000000 1.0
C      1  0.4035390000000  0.4428300000000  0.5191790000000 1.0
C      1  0.5258440000000  0.3956620000000  0.5032860000000 1.0
C      1  0.4411870000000  0.4759120000000  0.4445060000000 1.0
C      1  0.4988050000000  0.4382970000000  0.4441030000000 1.0
C      1  0.5604710000000  0.4863830000000  0.4477940000000 1.0
C      1  0.5322420000000  0.5503400000000  0.4477470000000 1.0
C      1  0.4651310000000  0.5468170000000  0.4479080000000 1.0
C      1  0.4447280000000  0.4136220000000  0.4726950000000 1.0
C      1  0.5917610000000  0.4386280000000  0.4826380000000 1.0
C      1  0.5942220000000  0.5408940000000  0.4732920000000 1.0
C      1  0.4977490000000  0.5978460000000  0.4707280000000 1.0
C      1  0.4105250000000  0.5275630000000  0.4700120000000 1.0
C      1  0.6183830000000  0.5161420000000  0.5098430000000 1.0
C      1  0.5211310000000  0.6143620000000  0.4985610000000 1.0
C      1  0.4102840000000  0.5566580000000  0.5021920000000 1.0
C      1  0.4272530000000  0.4367400000000  0.4983820000000 1.0
C      1  0.5476020000000  0.4044120000000  0.4821740000000 1.0
C      1  0.4585750000000  0.5312240000000  0.4720800000000 1.0
C      1  0.4536810000000  0.4676430000000  0.4731550000000 1.0
C      1  0.5074710000000  0.4420290000000  0.4729270000000 1.0
C      1  0.5522750000000  0.4899150000000  0.4771920000000 1.0
C      1  0.5136040000000  0.5529610000000  0.4750580000000 1.0
C      1  0.4936920000000  0.5275660000000  0.5507430000000 1.0
C      1  0.4584400000000  0.4917410000000  0.5563550000000 1.0
C      1  0.4867920000000  0.4637260000000  0.5594520000000 1.0
C      1  0.5194670000000  0.4852710000000  0.5512200000000 1.0
C      1  0.5323160000000  0.5222510000000  0.5592160000000 1.0
C      1  0.4807170000000  0.4208040000000  0.5484380000000 1.0
C      1  0.5644770000000  0.4648550000000  0.5421460000000 1.0
C      1  0.5590680000000  0.5491670000000  0.5473020000000 1.0
C      1  0.4760310000000  0.5718530000000  0.5473580000000 1.0
C      1  0.4185490000000  0.4946640000000  0.5535570000000 1.0
C      1  0.4726130000000  0.4636090000000  0.4231740000000 1.0
C      1  0.5262850000000  0.4620680000000  0.4276240000000 1.0
C      1  0.5404530000000  0.5135550000000  0.4265870000000 1.0
C      1  0.5035130000000  0.5384300000000  0.4245210000000 1.0
C      1  0.4585760000000  0.5184080000000  0.4196090000000 1.0
C      1  0.4403210000000  0.5430710000000  0.4293620000000 1.0
C      1  0.4451320000000  0.4464990000000  0.4308840000000 1.0
C      1  0.5324260000000  0.4335320000000  0.4426100000000 1.0
C      1  0.5709790000000  0.5152150000000  0.4359190000000 1.0
C      1  0.5134530000000  0.5705890000000  0.4293290000000 1.0
C      1  0.5003000000000  0.5137210000000  0.5931490000000 1.0
C      1  0.4952920000000  0.5081360000000  0.6183340000000 1.0
C      1  0.4796890000000  0.4866520000000  0.5213010000000 1.0
C      1  0.4908230000000  0.4969780000000  0.5653340000000 1.0
END
