TITL C-3289321-8710-766 0.000961780202850348 125000 -952.539961492643 0 0 177 (C1) n - 1
REM
REM in /nfs/bkarasulu/CARBON/AIRSS/Generating-Clusters/AIREBO/with-SteepDescent/Higher-Symm/SD-CG/HFTN-CG
REM
REM
REM
REM
REM
REM ./C.cell (b20cbc046b6831c77cfcea5457e17084)
REM
REM compiler GCC version 9.2.1 20190827 (Red Hat 9.2.1-1)
REM options -cpp -mtune=generic -march=x86-64 -g -O0 -fpre-include=/usr/include/finclude/math-vector-fortran.h
REM seed 306194436 -1366251363 368866495 -1630082959 -1108911209 1985740878 183955257 -61497540 -215548779 -983197096 -1540047100 -284676609 -1860702976 -1384949223 1154855922 -486155550 -2113785620 2015977027 1699469990 -8990289 -179047433 961919035 1771589750 -1127405020 -697578383 1937394281 494979500 -1445122082 1003992212 -449424761 398769287 -1087038445 -1937159072
REM
CELL 1.54180   50.00000   50.00000   50.00000   90.00000   90.00000   90.00000
LATT -1
SFAC C  
C      1  0.5756800000000  0.4963540000000  0.5166360000000 1.0
C      1  0.5499970000000  0.4127510000000  0.4751950000000 1.0
C      1  0.5013640000000  0.4724590000000  0.4234920000000 1.0
C      1  0.3949190000000  0.4275690000000  0.4829520000000 1.0
C      1  0.4208870000000  0.5045770000000  0.4347640000000 1.0
C      1  0.4240370000000  0.4398260000000  0.4845870000000 1.0
C      1  0.4232210000000  0.4736240000000  0.4809570000000 1.0
C      1  0.4473410000000  0.5631810000000  0.5682810000000 1.0
C      1  0.5837360000000  0.5612410000000  0.4935460000000 1.0
C      1  0.4819420000000  0.4615750000000  0.4462240000000 1.0
C      1  0.5237640000000  0.5164900000000  0.4002730000000 1.0
C      1  0.5300340000000  0.5057750000000  0.5557980000000 1.0
C      1  0.5343770000000  0.4844620000000  0.4044810000000 1.0
C      1  0.4467220000000  0.6047920000000  0.5314580000000 1.0
C      1  0.5071710000000  0.4896840000000  0.3869140000000 1.0
C      1  0.5661340000000  0.4697850000000  0.5028820000000 1.0
C      1  0.4258170000000  0.4562200000000  0.5504190000000 1.0
C      1  0.5100630000000  0.4145100000000  0.5425460000000 1.0
C      1  0.5597640000000  0.5070370000000  0.5973630000000 1.0
C      1  0.4122850000000  0.4839350000000  0.5603380000000 1.0
C      1  0.5306490000000  0.5742540000000  0.5533590000000 1.0
C      1  0.5276410000000  0.5007540000000  0.4850340000000 1.0
C      1  0.5104460000000  0.4750580000000  0.4707730000000 1.0
C      1  0.5789150000000  0.4328930000000  0.5492860000000 1.0
C      1  0.5657390000000  0.4585350000000  0.5559740000000 1.0
C      1  0.5734140000000  0.4876550000000  0.5815730000000 1.0
C      1  0.4204550000000  0.5445920000000  0.5073760000000 1.0
C      1  0.4662590000000  0.4831090000000  0.4602880000000 1.0
C      1  0.5230850000000  0.4406270000000  0.5775030000000 1.0
C      1  0.5045610000000  0.4748410000000  0.5702050000000 1.0
C      1  0.4483560000000  0.4901660000000  0.4854780000000 1.0
C      1  0.5641460000000  0.4861980000000  0.4569040000000 1.0
C      1  0.5900100000000  0.4265880000000  0.5173720000000 1.0
C      1  0.4645520000000  0.4380990000000  0.4842940000000 1.0
C      1  0.4330650000000  0.5491000000000  0.4626290000000 1.0
C      1  0.4360550000000  0.4518440000000  0.3998220000000 1.0
C      1  0.4901640000000  0.5211480000000  0.4028790000000 1.0
C      1  0.5870670000000  0.4401520000000  0.4861950000000 1.0
C      1  0.5100290000000  0.5142660000000  0.6023180000000 1.0
C      1  0.4432270000000  0.4970440000000  0.4102390000000 1.0
C      1  0.5704480000000  0.5555200000000  0.4679920000000 1.0
C      1  0.6058900000000  0.5445210000000  0.5306790000000 1.0
C      1  0.3998310000000  0.5130110000000  0.4601210000000 1.0
C      1  0.5103460000000  0.4832760000000  0.5161090000000 1.0
C      1  0.4618720000000  0.4273930000000  0.4482170000000 1.0
C      1  0.4673680000000  0.5659600000000  0.4134780000000 1.0
C      1  0.4400700000000  0.4993290000000  0.5644920000000 1.0
C      1  0.4503420000000  0.5595630000000  0.5010820000000 1.0
C      1  0.4812650000000  0.4676370000000  0.4866120000000 1.0
C      1  0.4468990000000  0.4548810000000  0.5745220000000 1.0
C      1  0.5216050000000  0.4485920000000  0.4578530000000 1.0
C      1  0.4474240000000  0.5020460000000  0.6157290000000 1.0
C      1  0.5015580000000  0.3937650000000  0.4981440000000 1.0
C      1  0.3899930000000  0.4987410000000  0.5606910000000 1.0
C      1  0.6118050000000  0.4762100000000  0.5339310000000 1.0
C      1  0.4953890000000  0.4611110000000  0.5338350000000 1.0
C      1  0.5334580000000  0.4974930000000  0.6066910000000 1.0
C      1  0.5827050000000  0.4616400000000  0.4313850000000 1.0
C      1  0.4207840000000  0.5189650000000  0.4854390000000 1.0
C      1  0.4471670000000  0.5454520000000  0.4112150000000 1.0
C      1  0.4502190000000  0.5209640000000  0.4711480000000 1.0
C      1  0.4949770000000  0.5597920000000  0.4254440000000 1.0
C      1  0.5287710000000  0.5312740000000  0.4698830000000 1.0
C      1  0.5671980000000  0.5053480000000  0.4848900000000 1.0
C      1  0.5461440000000  0.5216550000000  0.5045050000000 1.0
C      1  0.4349730000000  0.4413070000000  0.4523080000000 1.0
C      1  0.4917250000000  0.5768870000000  0.5132330000000 1.0
C      1  0.4616800000000  0.5534710000000  0.4508950000000 1.0
C      1  0.4835330000000  0.5197370000000  0.4641680000000 1.0
C      1  0.4968870000000  0.5449190000000  0.5128130000000 1.0
C      1  0.3831910000000  0.5049170000000  0.5155260000000 1.0
C      1  0.4747880000000  0.5622580000000  0.4777720000000 1.0
C      1  0.4746130000000  0.5952380000000  0.5442150000000 1.0
C      1  0.5246830000000  0.4448710000000  0.5379340000000 1.0
C      1  0.4923980000000  0.5394640000000  0.5583040000000 1.0
C      1  0.4701420000000  0.5639420000000  0.5503970000000 1.0
C      1  0.5941280000000  0.4913740000000  0.4417240000000 1.0
C      1  0.5531950000000  0.4543230000000  0.4466200000000 1.0
C      1  0.4618190000000  0.5254610000000  0.5633630000000 1.0
C      1  0.5522080000000  0.5242530000000  0.5377220000000 1.0
C      1  0.5522110000000  0.5296560000000  0.4073040000000 1.0
C      1  0.5679610000000  0.4322160000000  0.4678980000000 1.0
C      1  0.5233700000000  0.5768630000000  0.4890200000000 1.0
C      1  0.4967820000000  0.5060510000000  0.5629570000000 1.0
C      1  0.4127020000000  0.5360490000000  0.5388200000000 1.0
C      1  0.4893010000000  0.4001030000000  0.5574780000000 1.0
C      1  0.6110690000000  0.5139690000000  0.4914140000000 1.0
C      1  0.4585470000000  0.5178800000000  0.5245840000000 1.0
C      1  0.5731780000000  0.5248510000000  0.4592850000000 1.0
C      1  0.4797980000000  0.4976250000000  0.5367560000000 1.0
C      1  0.5304260000000  0.4657680000000  0.5991850000000 1.0
C      1  0.5089110000000  0.4350890000000  0.4114920000000 1.0
C      1  0.5950480000000  0.4458100000000  0.4147870000000 1.0
C      1  0.4929910000000  0.4446280000000  0.5621770000000 1.0
C      1  0.5177150000000  0.5499720000000  0.5380060000000 1.0
C      1  0.4868720000000  0.5010790000000  0.4891880000000 1.0
C      1  0.3877330000000  0.5171270000000  0.5394010000000 1.0
C      1  0.4435240000000  0.4143620000000  0.4959020000000 1.0
C      1  0.4890060000000  0.5908370000000  0.5731580000000 1.0
C      1  0.4629350000000  0.4799820000000  0.5130470000000 1.0
C      1  0.4614570000000  0.4284640000000  0.5211130000000 1.0
C      1  0.5457890000000  0.5753480000000  0.4259650000000 1.0
C      1  0.4667330000000  0.4322830000000  0.5648720000000 1.0
C      1  0.5457390000000  0.4085690000000  0.5050820000000 1.0
C      1  0.5641250000000  0.5701710000000  0.5145830000000 1.0
C      1  0.5096700000000  0.5441890000000  0.5872150000000 1.0
C      1  0.5253500000000  0.4163040000000  0.4626360000000 1.0
C      1  0.4776750000000  0.5314570000000  0.4327850000000 1.0
C      1  0.5602440000000  0.5476020000000  0.5611080000000 1.0
C      1  0.4549040000000  0.4727990000000  0.3972270000000 1.0
C      1  0.4301930000000  0.5372300000000  0.4325830000000 1.0
C      1  0.4586120000000  0.5224650000000  0.3988930000000 1.0
C      1  0.5008200000000  0.5443710000000  0.4799910000000 1.0
C      1  0.5107000000000  0.5741570000000  0.5764630000000 1.0
C      1  0.5043140000000  0.3987880000000  0.4702260000000 1.0
C      1  0.4592640000000  0.4062330000000  0.5467460000000 1.0
C      1  0.5359260000000  0.5526730000000  0.5094720000000 1.0
C      1  0.4917750000000  0.4169860000000  0.5151360000000 1.0
C      1  0.4305290000000  0.5379100000000  0.5678440000000 1.0
C      1  0.4447690000000  0.5984570000000  0.4633300000000 1.0
C      1  0.4853900000000  0.4352710000000  0.4249590000000 1.0
C      1  0.5355710000000  0.5301020000000  0.5754220000000 1.0
C      1  0.4712210000000  0.5913260000000  0.4624340000000 1.0
C      1  0.5941190000000  0.4692830000000  0.4835730000000 1.0
C      1  0.5453350000000  0.4982780000000  0.4311400000000 1.0
C      1  0.4661580000000  0.5462390000000  0.5234280000000 1.0
C      1  0.4493830000000  0.5245150000000  0.5938170000000 1.0
C      1  0.3964950000000  0.5024680000000  0.4149730000000 1.0
C      1  0.4722650000000  0.6017950000000  0.5008330000000 1.0
C      1  0.4686570000000  0.4502490000000  0.6002570000000 1.0
C      1  0.3849350000000  0.5005720000000  0.4841510000000 1.0
C      1  0.6046520000000  0.5438140000000  0.5018410000000 1.0
C      1  0.4529610000000  0.4850460000000  0.5890440000000 1.0
C      1  0.5377200000000  0.5634140000000  0.4632270000000 1.0
C      1  0.4047130000000  0.4822570000000  0.5047370000000 1.0
C      1  0.4236860000000  0.4730760000000  0.4476070000000 1.0
C      1  0.5532640000000  0.5913300000000  0.4515640000000 1.0
C      1  0.5006270000000  0.4464060000000  0.5048150000000 1.0
C      1  0.4427780000000  0.3934980000000  0.5198320000000 1.0
C      1  0.5831190000000  0.4861820000000  0.5487830000000 1.0
C      1  0.5250960000000  0.5140520000000  0.4447090000000 1.0
C      1  0.4314570000000  0.5104480000000  0.5347750000000 1.0
C      1  0.5357690000000  0.4719640000000  0.5012490000000 1.0
C      1  0.4223100000000  0.4496030000000  0.4231030000000 1.0
C      1  0.5642910000000  0.5745930000000  0.5484490000000 1.0
C      1  0.4280770000000  0.5759240000000  0.4812590000000 1.0
C      1  0.5913420000000  0.4581400000000  0.5215080000000 1.0
C      1  0.5586150000000  0.4616540000000  0.5876810000000 1.0
C      1  0.5413190000000  0.4213810000000  0.5560480000000 1.0
C      1  0.4968570000000  0.5127760000000  0.5143150000000 1.0
C      1  0.5339120000000  0.4390700000000  0.5071610000000 1.0
C      1  0.4978930000000  0.5946860000000  0.4796450000000 1.0
C      1  0.6065720000000  0.5055330000000  0.5228620000000 1.0
C      1  0.3983370000000  0.5432020000000  0.4814890000000 1.0
C      1  0.5617040000000  0.4127920000000  0.5301940000000 1.0
C      1  0.6033980000000  0.4935000000000  0.4727930000000 1.0
C      1  0.5187670000000  0.5653660000000  0.4343940000000 1.0
C      1  0.5018270000000  0.4960940000000  0.4479550000000 1.0
C      1  0.5256420000000  0.3853810000000  0.5086350000000 1.0
C      1  0.4415740000000  0.5982010000000  0.5031320000000 1.0
C      1  0.5638060000000  0.5548850000000  0.4177010000000 1.0
C      1  0.5449340000000  0.5939320000000  0.5295280000000 1.0
C      1  0.5729420000000  0.5126630000000  0.4283100000000 1.0
C      1  0.5319420000000  0.4573040000000  0.4202320000000 1.0
C      1  0.5860120000000  0.5253720000000  0.5413060000000 1.0
C      1  0.4323620000000  0.4457570000000  0.5178820000000 1.0
C      1  0.5650520000000  0.5354730000000  0.5915210000000 1.0
C      1  0.4609520000000  0.5020710000000  0.4364060000000 1.0
C      1  0.4796830000000  0.5050560000000  0.5923420000000 1.0
C      1  0.4918180000000  0.4609120000000  0.5985070000000 1.0
C      1  0.4964960000000  0.6090330000000  0.5234400000000 1.0
C      1  0.4830110000000  0.4746800000000  0.3963890000000 1.0
C      1  0.5830390000000  0.5499130000000  0.4381090000000 1.0
C      1  0.4313660000000  0.4788480000000  0.5256350000000 1.0
C      1  0.5351070000000  0.4720370000000  0.5555290000000 1.0
C      1  0.4906970000000  0.4359070000000  0.4641860000000 1.0
C      1  0.5237190000000  0.6009710000000  0.5103730000000 1.0
END
