TITL C-3289322-3858-623 -0.0054067060165173 125000 -756.105570031502 0 0 147 (C1) n - 1
REM
REM in /nfs/bkarasulu/CARBON/AIRSS/Generating-Clusters/AIREBO/with-SteepDescent/Higher-Symm/SD-CG/HFTN-CG
REM
REM
REM
REM
REM
REM ./C.cell (b20cbc046b6831c77cfcea5457e17084)
REM
REM compiler GCC version 9.2.1 20190827 (Red Hat 9.2.1-1)
REM options -cpp -mtune=generic -march=x86-64 -g -O0 -fpre-include=/usr/include/finclude/math-vector-fortran.h
REM seed 940740002 952370221 -1689416747 1427507445 -1041543360 276550366 -184064282 994644834 192096908 695456220 491437738 -1967561410 -154477570 -1985111293 1507683476 -779694470 -195833045 1909781515 -2145546364 190396035 2025424532 921879273 1025223682 1802778826 -1683383010 1418298411 1311034672 1897590529 1207373290 -1919931229 -1032007134 1927194322 1191280929
REM
CELL 1.54180   50.00000   50.00000   50.00000   90.00000   90.00000   90.00000
LATT -1
SFAC C  
C      1  0.5124680000000  0.4592490000000  0.4602740000000 1.0
C      1  0.4875290000000  0.5500980000000  0.5249550000000 1.0
C      1  0.5947430000000  0.5292830000000  0.5172290000000 1.0
C      1  0.4112510000000  0.4697220000000  0.4817900000000 1.0
C      1  0.4837000000000  0.5890530000000  0.4684940000000 1.0
C      1  0.5236590000000  0.4210190000000  0.5290010000000 1.0
C      1  0.4597620000000  0.6021740000000  0.5568240000000 1.0
C      1  0.5105250000000  0.4179420000000  0.4914020000000 1.0
C      1  0.4576070000000  0.5872820000000  0.4820630000000 1.0
C      1  0.5470680000000  0.4194050000000  0.5136880000000 1.0
C      1  0.4161870000000  0.4395390000000  0.4694840000000 1.0
C      1  0.5938420000000  0.5591800000000  0.5265520000000 1.0
C      1  0.4933310000000  0.5597530000000  0.4600840000000 1.0
C      1  0.5080080000000  0.4426520000000  0.5356930000000 1.0
C      1  0.5485650000000  0.4126690000000  0.4803760000000 1.0
C      1  0.4545030000000  0.5709640000000  0.5164400000000 1.0
C      1  0.5787190000000  0.4243710000000  0.4632720000000 1.0
C      1  0.4223280000000  0.5626130000000  0.5236200000000 1.0
C      1  0.4857310000000  0.3994520000000  0.4662520000000 1.0
C      1  0.5020650000000  0.5872760000000  0.5394860000000 1.0
C      1  0.4685710000000  0.4225120000000  0.5474550000000 1.0
C      1  0.5382810000000  0.5857310000000  0.4573310000000 1.0
C      1  0.4039550000000  0.5067180000000  0.4948190000000 1.0
C      1  0.5912780000000  0.4908760000000  0.5066430000000 1.0
C      1  0.4855180000000  0.4950490000000  0.3862470000000 1.0
C      1  0.4962520000000  0.5183120000000  0.6155390000000 1.0
C      1  0.4675620000000  0.4915480000000  0.4745160000000 1.0
C      1  0.5372640000000  0.5200810000000  0.5308700000000 1.0
C      1  0.4351550000000  0.4313250000000  0.5273800000000 1.0
C      1  0.5666610000000  0.5647780000000  0.4760520000000 1.0
C      1  0.4614440000000  0.5750450000000  0.3969580000000 1.0
C      1  0.5245680000000  0.4299470000000  0.5802990000000 1.0
C      1  0.4533210000000  0.4532680000000  0.5846490000000 1.0
C      1  0.5493700000000  0.5501880000000  0.4168180000000 1.0
C      1  0.5068360000000  0.5187330000000  0.3878560000000 1.0
C      1  0.4920770000000  0.4869210000000  0.6127030000000 1.0
C      1  0.4306120000000  0.5220430000000  0.4802960000000 1.0
C      1  0.5661630000000  0.4791290000000  0.5263200000000 1.0
C      1  0.4538030000000  0.5633130000000  0.4640060000000 1.0
C      1  0.5637470000000  0.4452440000000  0.5248970000000 1.0
C      1  0.4736390000000  0.4666710000000  0.5402150000000 1.0
C      1  0.5214950000000  0.5407130000000  0.4570640000000 1.0
C      1  0.4758120000000  0.4830900000000  0.5133260000000 1.0
C      1  0.5223060000000  0.5186780000000  0.4809530000000 1.0
C      1  0.5696900000000  0.4533760000000  0.4099610000000 1.0
C      1  0.4380030000000  0.5478520000000  0.5881150000000 1.0
C      1  0.5927430000000  0.4592120000000  0.5485850000000 1.0
C      1  0.4174320000000  0.5379390000000  0.4544680000000 1.0
C      1  0.4922440000000  0.4901980000000  0.4431490000000 1.0
C      1  0.5079080000000  0.5159990000000  0.5648440000000 1.0
C      1  0.4429300000000  0.4102950000000  0.5018200000000 1.0
C      1  0.5509930000000  0.5931810000000  0.5129050000000 1.0
C      1  0.5179700000000  0.5932470000000  0.5126620000000 1.0
C      1  0.4730870000000  0.3956860000000  0.4956080000000 1.0
C      1  0.4616500000000  0.4460840000000  0.5158910000000 1.0
C      1  0.5384900000000  0.5550070000000  0.4828190000000 1.0
C      1  0.4556910000000  0.5175500000000  0.5259810000000 1.0
C      1  0.5407740000000  0.4869970000000  0.4652810000000 1.0
C      1  0.3928900000000  0.5265030000000  0.4693990000000 1.0
C      1  0.6048010000000  0.4699180000000  0.5292950000000 1.0
C      1  0.4951540000000  0.5745240000000  0.5022510000000 1.0
C      1  0.5045140000000  0.4430670000000  0.4862330000000 1.0
C      1  0.5482960000000  0.4880550000000  0.5855790000000 1.0
C      1  0.4442570000000  0.5069020000000  0.4124520000000 1.0
C      1  0.5364420000000  0.4888800000000  0.5331580000000 1.0
C      1  0.4717340000000  0.5158720000000  0.4520670000000 1.0
C      1  0.4820520000000  0.5137200000000  0.5848760000000 1.0
C      1  0.4995570000000  0.4880350000000  0.4118850000000 1.0
C      1  0.4634120000000  0.4945710000000  0.6033990000000 1.0
C      1  0.5283210000000  0.5014510000000  0.4064090000000 1.0
C      1  0.5847340000000  0.4362490000000  0.4942700000000 1.0
C      1  0.4223300000000  0.5682050000000  0.4930200000000 1.0
C      1  0.4735760000000  0.5866240000000  0.5385670000000 1.0
C      1  0.5196020000000  0.4003120000000  0.4694360000000 1.0
C      1  0.4425510000000  0.4644090000000  0.5481440000000 1.0
C      1  0.5548910000000  0.5350370000000  0.4527740000000 1.0
C      1  0.5733450000000  0.4973970000000  0.4311840000000 1.0
C      1  0.4324850000000  0.4975340000000  0.5680630000000 1.0
C      1  0.5553710000000  0.5260950000000  0.5581490000000 1.0
C      1  0.4511540000000  0.4772260000000  0.4479260000000 1.0
C      1  0.4785230000000  0.3788550000000  0.4480230000000 1.0
C      1  0.5180980000000  0.5749610000000  0.5586920000000 1.0
C      1  0.5743120000000  0.5112780000000  0.5341050000000 1.0
C      1  0.4335830000000  0.4904960000000  0.4735810000000 1.0
C      1  0.4126300000000  0.4558700000000  0.5344370000000 1.0
C      1  0.5862330000000  0.5395200000000  0.4658290000000 1.0
C      1  0.4393350000000  0.4331320000000  0.5610840000000 1.0
C      1  0.5627890000000  0.5667320000000  0.4433180000000 1.0
C      1  0.5376480000000  0.4578070000000  0.5083160000000 1.0
C      1  0.4731000000000  0.5389300000000  0.4778260000000 1.0
C      1  0.4655630000000  0.5608000000000  0.4185690000000 1.0
C      1  0.5496230000000  0.4286450000000  0.5760380000000 1.0
C      1  0.5634320000000  0.4697820000000  0.4313640000000 1.0
C      1  0.4459750000000  0.5287670000000  0.5661810000000 1.0
C      1  0.5806500000000  0.4580000000000  0.4680000000000 1.0
C      1  0.4113250000000  0.5391940000000  0.5312070000000 1.0
C      1  0.4007650000000  0.4781090000000  0.5130300000000 1.0
C      1  0.5990600000000  0.5174010000000  0.4870360000000 1.0
C      1  0.4971220000000  0.5515560000000  0.4273020000000 1.0
C      1  0.5076220000000  0.4559980000000  0.5664920000000 1.0
C      1  0.5037170000000  0.5448410000000  0.3946290000000 1.0
C      1  0.5051490000000  0.4669850000000  0.5985830000000 1.0
C      1  0.4588160000000  0.5463050000000  0.5394620000000 1.0
C      1  0.5426240000000  0.4569350000000  0.4542370000000 1.0
C      1  0.4459320000000  0.5439170000000  0.4976950000000 1.0
C      1  0.5534790000000  0.4459710000000  0.4845430000000 1.0
C      1  0.4705530000000  0.5105400000000  0.5530330000000 1.0
C      1  0.5349570000000  0.5029790000000  0.4403510000000 1.0
C      1  0.4105780000000  0.4880500000000  0.5452290000000 1.0
C      1  0.5889810000000  0.5074550000000  0.4555280000000 1.0
C      1  0.4449630000000  0.4803150000000  0.5878730000000 1.0
C      1  0.5534010000000  0.5189760000000  0.4166800000000 1.0
C      1  0.4792930000000  0.4602790000000  0.4528980000000 1.0
C      1  0.5256860000000  0.5423810000000  0.5615860000000 1.0
C      1  0.5352840000000  0.6029640000000  0.4843610000000 1.0
C      1  0.4673440000000  0.4076880000000  0.5253420000000 1.0
C      1  0.5314490000000  0.5458520000000  0.5121150000000 1.0
C      1  0.4645870000000  0.4523100000000  0.4825140000000 1.0
C      1  0.5622230000000  0.4500960000000  0.5568900000000 1.0
C      1  0.4409900000000  0.5522640000000  0.4383880000000 1.0
C      1  0.4995150000000  0.4823250000000  0.4816290000000 1.0
C      1  0.5050990000000  0.5241760000000  0.5325690000000 1.0
C      1  0.5067900000000  0.5197920000000  0.4346500000000 1.0
C      1  0.4931660000000  0.4857480000000  0.5585820000000 1.0
C      1  0.5644060000000  0.5394160000000  0.5087600000000 1.0
C      1  0.4360950000000  0.4591010000000  0.4980720000000 1.0
C      1  0.4703670000000  0.5127100000000  0.4993120000000 1.0
C      1  0.5378010000000  0.4874210000000  0.4992010000000 1.0
C      1  0.4689270000000  0.4273880000000  0.4597900000000 1.0
C      1  0.5492650000000  0.5655160000000  0.5552160000000 1.0
C      1  0.4383150000000  0.4236150000000  0.4741060000000 1.0
C      1  0.5612410000000  0.5676860000000  0.5276270000000 1.0
C      1  0.5562520000000  0.5192550000000  0.4828660000000 1.0
C      1  0.4421890000000  0.4805990000000  0.5199680000000 1.0
C      1  0.5719290000000  0.4893520000000  0.4787130000000 1.0
C      1  0.4239430000000  0.5092160000000  0.5222160000000 1.0
C      1  0.5257920000000  0.5696640000000  0.4299580000000 1.0
C      1  0.4774730000000  0.4407300000000  0.5703650000000 1.0
C      1  0.4533220000000  0.5247940000000  0.4303340000000 1.0
C      1  0.5375980000000  0.4711770000000  0.5611850000000 1.0
C      1  0.5044820000000  0.4649530000000  0.5106490000000 1.0
C      1  0.5021270000000  0.5419720000000  0.4953290000000 1.0
C      1  0.4396910000000  0.4808160000000  0.4213070000000 1.0
C      1  0.5608820000000  0.5119240000000  0.5839720000000 1.0
C      1  0.4252490000000  0.4614770000000  0.4086250000000 1.0
C      1  0.5772580000000  0.5231710000000  0.6027230000000 1.0
C      1  0.5089630000000  0.5041030000000  0.5060020000000 1.0
END
