TITL C-3289335-9438-515 0.00103662979772616 125000 -331.290638927671 0 0 59 (C1) n - 1
REM
REM in /nfs/bkarasulu/CARBON/AIRSS/Generating-Clusters/AIREBO/with-SteepDescent/Higher-Symm/SD-CG/HFTN-CG
REM
REM
REM
REM
REM
REM ./C.cell (b20cbc046b6831c77cfcea5457e17084)
REM
REM compiler GCC version 9.2.1 20190827 (Red Hat 9.2.1-1)
REM options -cpp -mtune=generic -march=x86-64 -g -O0 -fpre-include=/usr/include/finclude/math-vector-fortran.h
REM seed 1390839741 -1465711948 1423806130 -325734346 1790507878 1773185994 835938101 -255888277 1467884387 -687338299 -436980603 -2105770603 830126550 -1602764581 1087111517 1568476687 1031034018 1859097541 1942175364 -955723062 1163053428 -1891707033 -1125136298 -2056446684 -1717810550 -633561671 634612559 -2077796240 1388089573 -1084997224 -227131363 -337940081 -390690921
REM
CELL 1.54180   50.00000   50.00000   50.00000   90.00000   90.00000   90.00000
LATT -1
SFAC C  
C      1  0.5516240000000  0.5074400000000  0.4923340000000 1.0
C      1  0.4938150000000  0.5129510000000  0.5077630000000 1.0
C      1  0.4515360000000  0.4297660000000  0.5069340000000 1.0
C      1  0.4766150000000  0.5307060000000  0.4544430000000 1.0
C      1  0.5267630000000  0.5359240000000  0.5686880000000 1.0
C      1  0.4600320000000  0.5063000000000  0.5449100000000 1.0
C      1  0.5038810000000  0.5567120000000  0.4828470000000 1.0
C      1  0.5526210000000  0.5539270000000  0.5094210000000 1.0
C      1  0.4924750000000  0.4277910000000  0.4823550000000 1.0
C      1  0.5004500000000  0.5233270000000  0.5730980000000 1.0
C      1  0.4388090000000  0.5447990000000  0.5164520000000 1.0
C      1  0.4548070000000  0.4611690000000  0.4709390000000 1.0
C      1  0.5220190000000  0.4421300000000  0.5580030000000 1.0
C      1  0.5561420000000  0.4930900000000  0.4424590000000 1.0
C      1  0.5422630000000  0.4527380000000  0.4900070000000 1.0
C      1  0.5140060000000  0.5344970000000  0.5372000000000 1.0
C      1  0.4369520000000  0.4972140000000  0.5341810000000 1.0
C      1  0.4395740000000  0.5246120000000  0.4975310000000 1.0
C      1  0.5672180000000  0.4615430000000  0.4783450000000 1.0
C      1  0.4678530000000  0.5532870000000  0.5281030000000 1.0
C      1  0.4738360000000  0.4792250000000  0.4526820000000 1.0
C      1  0.4824720000000  0.4992610000000  0.4787590000000 1.0
C      1  0.5019120000000  0.4937930000000  0.5830160000000 1.0
C      1  0.5217910000000  0.4288210000000  0.5340910000000 1.0
C      1  0.4864270000000  0.4940140000000  0.5334430000000 1.0
C      1  0.5377900000000  0.4715290000000  0.4318250000000 1.0
C      1  0.4338050000000  0.4284890000000  0.5342140000000 1.0
C      1  0.4689630000000  0.5817860000000  0.5382510000000 1.0
C      1  0.4778890000000  0.4654500000000  0.4210880000000 1.0
C      1  0.5265640000000  0.5649850000000  0.4951650000000 1.0
C      1  0.4366200000000  0.4774280000000  0.4865290000000 1.0
C      1  0.5625430000000  0.5285160000000  0.5125050000000 1.0
C      1  0.4650120000000  0.4373030000000  0.4831890000000 1.0
C      1  0.5109640000000  0.4918450000000  0.5510540000000 1.0
C      1  0.5260340000000  0.5123590000000  0.5143250000000 1.0
C      1  0.4801870000000  0.4650470000000  0.5268590000000 1.0
C      1  0.4814550000000  0.5311510000000  0.5473120000000 1.0
C      1  0.4844340000000  0.5437450000000  0.5023410000000 1.0
C      1  0.5048270000000  0.4757370000000  0.4391150000000 1.0
C      1  0.5673090000000  0.4888230000000  0.4686510000000 1.0
C      1  0.5126670000000  0.4654050000000  0.5696560000000 1.0
C      1  0.4977420000000  0.4584530000000  0.5071630000000 1.0
C      1  0.4609430000000  0.4463330000000  0.5323690000000 1.0
C      1  0.4665260000000  0.4595560000000  0.3992410000000 1.0
C      1  0.5381670000000  0.5035980000000  0.5440850000000 1.0
C      1  0.5001710000000  0.5465230000000  0.4566710000000 1.0
C      1  0.5264590000000  0.5624880000000  0.5282090000000 1.0
C      1  0.5624890000000  0.5170380000000  0.5385640000000 1.0
C      1  0.4331590000000  0.4984220000000  0.5057970000000 1.0
C      1  0.5186800000000  0.4353570000000  0.5026940000000 1.0
C      1  0.4651630000000  0.5264360000000  0.4833310000000 1.0
C      1  0.5355560000000  0.5173560000000  0.4433640000000 1.0
C      1  0.5241450000000  0.5839050000000  0.5453530000000 1.0
C      1  0.5311790000000  0.4830530000000  0.4842730000000 1.0
C      1  0.5021950000000  0.4785810000000  0.4894650000000 1.0
C      1  0.5322350000000  0.5609200000000  0.4231380000000 1.0
C      1  0.5195630000000  0.4956460000000  0.4578160000000 1.0
C      1  0.5232940000000  0.5419950000000  0.4400970000000 1.0
C      1  0.4693750000000  0.5097100000000  0.4382850000000 1.0
END
