TITL C-3289322-3858-646 -0.000924650446985157 125000 -237.231897016219 0 0 43 (C1) n - 1
REM
REM in /nfs/bkarasulu/CARBON/AIRSS/Generating-Clusters/AIREBO/with-SteepDescent/Higher-Symm/SD-CG/HFTN-CG
REM
REM
REM
REM
REM
REM ./C.cell (b20cbc046b6831c77cfcea5457e17084)
REM
REM compiler GCC version 9.2.1 20190827 (Red Hat 9.2.1-1)
REM options -cpp -mtune=generic -march=x86-64 -g -O0 -fpre-include=/usr/include/finclude/math-vector-fortran.h
REM seed 1024796666 1912213126 -1621266654 1788987343 1058457058 1141647719 -274106032 -1888791774 212527835 -622443299 1079141744 1866077253 -1410264967 -1419422183 262655886 537874575 -917123447 1909184438 -2036770264 1780326306 1894221264 -1859516217 1943320621 -964324419 1787493110 1719417587 -1509452826 1768648549 1700281876 -276583883 -1416078801 234233279 -740895993
REM
CELL 1.54180   50.00000   50.00000   50.00000   90.00000   90.00000   90.00000
LATT -1
SFAC C  
C      1  0.5510330000000  0.5440030000000  0.5030990000000 1.0
C      1  0.5500360000000  0.5147090000000  0.4588590000000 1.0
C      1  0.5393720000000  0.4753160000000  0.4790500000000 1.0
C      1  0.5397740000000  0.4693760000000  0.5294710000000 1.0
C      1  0.5429080000000  0.5092440000000  0.5294810000000 1.0
C      1  0.4316250000000  0.5217440000000  0.4845430000000 1.0
C      1  0.4322140000000  0.4892690000000  0.4780980000000 1.0
C      1  0.4498800000000  0.4706560000000  0.4935310000000 1.0
C      1  0.4369710000000  0.4973090000000  0.5333260000000 1.0
C      1  0.4318640000000  0.5263330000000  0.5171150000000 1.0
C      1  0.4899970000000  0.4892220000000  0.4416020000000 1.0
C      1  0.5038040000000  0.4488470000000  0.4183790000000 1.0
C      1  0.4942490000000  0.4894330000000  0.5720200000000 1.0
C      1  0.4948620000000  0.5391370000000  0.5345060000000 1.0
C      1  0.4959370000000  0.5377330000000  0.4776230000000 1.0
C      1  0.4455290000000  0.5094920000000  0.4571180000000 1.0
C      1  0.4584230000000  0.4460560000000  0.4768550000000 1.0
C      1  0.4489920000000  0.4741070000000  0.5252090000000 1.0
C      1  0.4467210000000  0.5242340000000  0.5464570000000 1.0
C      1  0.4488010000000  0.5467960000000  0.4971190000000 1.0
C      1  0.5293700000000  0.5219660000000  0.4436780000000 1.0
C      1  0.5225090000000  0.4609950000000  0.4625530000000 1.0
C      1  0.5198990000000  0.4589070000000  0.5449860000000 1.0
C      1  0.5276370000000  0.5215380000000  0.5489930000000 1.0
C      1  0.5300330000000  0.5601520000000  0.5057690000000 1.0
C      1  0.4993260000000  0.5196320000000  0.4522210000000 1.0
C      1  0.4976930000000  0.4604330000000  0.4434640000000 1.0
C      1  0.4941870000000  0.4669930000000  0.5544420000000 1.0
C      1  0.4985230000000  0.5173430000000  0.5604910000000 1.0
C      1  0.4999890000000  0.5510500000000  0.5078460000000 1.0
C      1  0.4742870000000  0.4454420000000  0.4577960000000 1.0
C      1  0.4692410000000  0.4627470000000  0.5413380000000 1.0
C      1  0.4704210000000  0.5337560000000  0.5541160000000 1.0
C      1  0.4709740000000  0.5617080000000  0.4974510000000 1.0
C      1  0.4677350000000  0.5113390000000  0.4426150000000 1.0
C      1  0.5700920000000  0.4895950000000  0.5270690000000 1.0
C      1  0.5716130000000  0.5215730000000  0.5173590000000 1.0
C      1  0.5693170000000  0.5236160000000  0.4839950000000 1.0
C      1  0.5684620000000  0.4909270000000  0.4747270000000 1.0
C      1  0.5640750000000  0.4709940000000  0.5020100000000 1.0
C      1  0.5289880000000  0.4891330000000  0.5061590000000 1.0
C      1  0.4994590000000  0.4938340000000  0.5041380000000 1.0
C      1  0.4778880000000  0.4841790000000  0.4996160000000 1.0
END
