TITL C-3289320-4661-46 -0.0010917546933907 125000 -538.294982562692 0 0 90 (C1) n - 1
REM
REM in /nfs/bkarasulu/CARBON/AIRSS/Generating-Clusters/AIREBO/with-SteepDescent/Higher-Symm/SD-CG/HFTN-CG
REM
REM
REM
REM
REM
REM ./C.cell (b20cbc046b6831c77cfcea5457e17084)
REM
REM compiler GCC version 9.2.1 20190827 (Red Hat 9.2.1-1)
REM options -cpp -mtune=generic -march=x86-64 -g -O0 -fpre-include=/usr/include/finclude/math-vector-fortran.h
REM seed -982075459 533307883 -963374825 676188518 1311891489 2117960984 -342451433 -1500785040 -684699387 -914174171 -873706288 2098252250 915464945 -1643250560 612653037 -182530885 -262984544 1614003201 1372906843 -202823579 -481481832 -366028063 -1627971787 -1837053625 -1179023939 2031824450 2113567186 -501379882 -1399641780 433631601 -980073481 -2058925555 161192442
REM
CELL 1.54180   50.00000   50.00000   50.00000   90.00000   90.00000   90.00000
LATT -1
SFAC C  
C      1  0.5188640000000  0.4896200000000  0.5724840000000 1.0
C      1  0.5256910000000  0.4241560000000  0.5095270000000 1.0
C      1  0.5226870000000  0.4715970000000  0.4370770000000 1.0
C      1  0.5240730000000  0.5510810000000  0.4431760000000 1.0
C      1  0.5188340000000  0.5612450000000  0.5306520000000 1.0
C      1  0.4643650000000  0.4495370000000  0.4684900000000 1.0
C      1  0.4566210000000  0.5116150000000  0.4397670000000 1.0
C      1  0.4535220000000  0.5707850000000  0.4933510000000 1.0
C      1  0.4525770000000  0.5265860000000  0.5683120000000 1.0
C      1  0.4735570000000  0.4592240000000  0.5442410000000 1.0
C      1  0.5787990000000  0.4725070000000  0.5138170000000 1.0
C      1  0.5708120000000  0.4771370000000  0.4828420000000 1.0
C      1  0.5733270000000  0.5285570000000  0.4769830000000 1.0
C      1  0.5715310000000  0.5281880000000  0.5079260000000 1.0
C      1  0.5780180000000  0.5013750000000  0.5262380000000 1.0
C      1  0.5458470000000  0.4427640000000  0.4654710000000 1.0
C      1  0.5507280000000  0.5114820000000  0.4336590000000 1.0
C      1  0.5474180000000  0.5609570000000  0.4924560000000 1.0
C      1  0.5463360000000  0.5299140000000  0.5557210000000 1.0
C      1  0.5520330000000  0.4499220000000  0.5516790000000 1.0
C      1  0.4289930000000  0.5333590000000  0.5147610000000 1.0
C      1  0.4326960000000  0.5047470000000  0.5272120000000 1.0
C      1  0.4287460000000  0.4830540000000  0.5094890000000 1.0
C      1  0.4176080000000  0.4933900000000  0.4842060000000 1.0
C      1  0.4216920000000  0.5220120000000  0.4840020000000 1.0
C      1  0.4841400000000  0.4954900000000  0.5866180000000 1.0
C      1  0.4768120000000  0.4198170000000  0.5134200000000 1.0
C      1  0.4759750000000  0.4660250000000  0.4331860000000 1.0
C      1  0.4766390000000  0.5532190000000  0.4391780000000 1.0
C      1  0.4709250000000  0.5672620000000  0.5291770000000 1.0
C      1  0.5178390000000  0.5181130000000  0.5585980000000 1.0
C      1  0.5261740000000  0.4408430000000  0.5380210000000 1.0
C      1  0.5175920000000  0.4545410000000  0.4622000000000 1.0
C      1  0.5253510000000  0.5251070000000  0.4300110000000 1.0
C      1  0.5176230000000  0.5538060000000  0.4993980000000 1.0
C      1  0.4506160000000  0.5558730000000  0.4506900000000 1.0
C      1  0.4431190000000  0.5572390000000  0.5344950000000 1.0
C      1  0.4598220000000  0.4873740000000  0.5690660000000 1.0
C      1  0.4532970000000  0.4307080000000  0.5019040000000 1.0
C      1  0.4487160000000  0.4725320000000  0.4399940000000 1.0
C      1  0.5687090000000  0.5310050000000  0.4445830000000 1.0
C      1  0.5634450000000  0.5562490000000  0.5175880000000 1.0
C      1  0.5641670000000  0.5068050000000  0.5548690000000 1.0
C      1  0.5757670000000  0.4491430000000  0.5367800000000 1.0
C      1  0.5640780000000  0.4641370000000  0.4585150000000 1.0
C      1  0.4802110000000  0.4274300000000  0.5402660000000 1.0
C      1  0.4836130000000  0.4388900000000  0.4444330000000 1.0
C      1  0.4785460000000  0.5270450000000  0.4275270000000 1.0
C      1  0.4797080000000  0.5816250000000  0.5004600000000 1.0
C      1  0.4776120000000  0.5249160000000  0.5812650000000 1.0
C      1  0.4424300000000  0.5284780000000  0.4632940000000 1.0
C      1  0.4540210000000  0.5432870000000  0.4990210000000 1.0
C      1  0.4573080000000  0.5054990000000  0.5437850000000 1.0
C      1  0.4506990000000  0.4607330000000  0.5043660000000 1.0
C      1  0.4391820000000  0.4720280000000  0.4725320000000 1.0
C      1  0.4449450000000  0.4224630000000  0.4752790000000 1.0
C      1  0.4359430000000  0.4929780000000  0.4237770000000 1.0
C      1  0.4438580000000  0.5769260000000  0.4677280000000 1.0
C      1  0.4387600000000  0.5497630000000  0.5614070000000 1.0
C      1  0.4483100000000  0.4611220000000  0.5661250000000 1.0
C      1  0.5478110000000  0.4590230000000  0.5100450000000 1.0
C      1  0.5555000000000  0.5014260000000  0.4829320000000 1.0
C      1  0.5397200000000  0.5281480000000  0.4716790000000 1.0
C      1  0.5451890000000  0.5118650000000  0.5200630000000 1.0
C      1  0.5431040000000  0.4827480000000  0.5312370000000 1.0
C      1  0.5141830000000  0.4621220000000  0.5141430000000 1.0
C      1  0.5091710000000  0.4755610000000  0.4848910000000 1.0
C      1  0.5221540000000  0.5024340000000  0.4834540000000 1.0
C      1  0.5069230000000  0.5246430000000  0.5002670000000 1.0
C      1  0.5131980000000  0.5116510000000  0.5290170000000 1.0
C      1  0.4814190000000  0.5037270000000  0.5226820000000 1.0
C      1  0.4813340000000  0.4721560000000  0.5137410000000 1.0
C      1  0.4778580000000  0.4773920000000  0.4803100000000 1.0
C      1  0.4657950000000  0.5042630000000  0.4716360000000 1.0
C      1  0.4748390000000  0.5224290000000  0.4951590000000 1.0
C      1  0.4992910000000  0.5701790000000  0.4823640000000 1.0
C      1  0.4970440000000  0.5381460000000  0.5660330000000 1.0
C      1  0.5037040000000  0.4377270000000  0.5574760000000 1.0
C      1  0.4989730000000  0.4296910000000  0.4701260000000 1.0
C      1  0.5012390000000  0.5118420000000  0.4235610000000 1.0
C      1  0.5004550000000  0.4203200000000  0.4966650000000 1.0
C      1  0.4991190000000  0.4832170000000  0.4271880000000 1.0
C      1  0.4998740000000  0.5621200000000  0.4539680000000 1.0
C      1  0.4943860000000  0.5583400000000  0.5451580000000 1.0
C      1  0.4947620000000  0.4680490000000  0.5695590000000 1.0
C      1  0.5475070000000  0.4338850000000  0.4918020000000 1.0
C      1  0.5496900000000  0.4824510000000  0.4381910000000 1.0
C      1  0.5520520000000  0.5574450000000  0.4596090000000 1.0
C      1  0.5453670000000  0.5540000000000  0.5400910000000 1.0
C      1  0.5470070000000  0.4797190000000  0.5638540000000 1.0
END
