TITL C-3289320-4661-102 0.0028229502327894 125000 -776.402426234521 0 0 143 (C1) n - 1
REM
REM in /nfs/bkarasulu/CARBON/AIRSS/Generating-Clusters/AIREBO/with-SteepDescent/Higher-Symm/SD-CG/HFTN-CG
REM
REM
REM
REM
REM
REM ./C.cell (b20cbc046b6831c77cfcea5457e17084)
REM
REM compiler GCC version 9.2.1 20190827 (Red Hat 9.2.1-1)
REM options -cpp -mtune=generic -march=x86-64 -g -O0 -fpre-include=/usr/include/finclude/math-vector-fortran.h
REM seed -1065961298 -162244586 -1012185586 1095697212 -344781922 195234229 1934556113 1733083225 1061300769 -806978227 32492715 -364098751 -1742348455 820628897 -480354445 -1362904426 -1331951221 -151338735 1671883689 72004019 -1721986286 1252170893 -1320251411 43862094 1784584590 618803689 -961264908 1185231026 -860003200 -1293986383 1206329178 -552919057 -1937407726
REM
CELL 1.54180   50.00000   50.00000   50.00000   90.00000   90.00000   90.00000
LATT -1
SFAC C  
C      1  0.5095580000000  0.4074370000000  0.4829620000000 1.0
C      1  0.4851370000000  0.4041970000000  0.5038070000000 1.0
C      1  0.5163360000000  0.4012590000000  0.5131600000000 1.0
C      1  0.5188090000000  0.4892260000000  0.5282680000000 1.0
C      1  0.5106360000000  0.4839530000000  0.4729660000000 1.0
C      1  0.4663550000000  0.4893070000000  0.5085180000000 1.0
C      1  0.4842020000000  0.4725620000000  0.5521450000000 1.0
C      1  0.5485940000000  0.4803110000000  0.4844640000000 1.0
C      1  0.4660970000000  0.4729340000000  0.4693260000000 1.0
C      1  0.4669850000000  0.5553710000000  0.5295680000000 1.0
C      1  0.5432800000000  0.5543690000000  0.5173870000000 1.0
C      1  0.4931030000000  0.5500430000000  0.4555630000000 1.0
C      1  0.4275870000000  0.4484040000000  0.4452500000000 1.0
C      1  0.4855260000000  0.4447730000000  0.5825240000000 1.0
C      1  0.5824770000000  0.4455810000000  0.4648270000000 1.0
C      1  0.5302070000000  0.4672360000000  0.5837720000000 1.0
C      1  0.5544110000000  0.4711440000000  0.4308730000000 1.0
C      1  0.4113210000000  0.4741940000000  0.4851120000000 1.0
C      1  0.5099650000000  0.5584090000000  0.5229480000000 1.0
C      1  0.5155620000000  0.5555270000000  0.4805020000000 1.0
C      1  0.4765680000000  0.5570740000000  0.4969710000000 1.0
C      1  0.4381290000000  0.5660150000000  0.5003780000000 1.0
C      1  0.5337630000000  0.5703160000000  0.5526970000000 1.0
C      1  0.5332320000000  0.5883510000000  0.4507560000000 1.0
C      1  0.5324980000000  0.5073760000000  0.4843590000000 1.0
C      1  0.4635440000000  0.5055030000000  0.4787540000000 1.0
C      1  0.4989650000000  0.5090410000000  0.5473350000000 1.0
C      1  0.4499670000000  0.4505180000000  0.4282380000000 1.0
C      1  0.4593650000000  0.4475970000000  0.5708390000000 1.0
C      1  0.5803370000000  0.4486290000000  0.4929250000000 1.0
C      1  0.4172530000000  0.4606400000000  0.5298630000000 1.0
C      1  0.5650510000000  0.4564520000000  0.5533940000000 1.0
C      1  0.5148570000000  0.4542110000000  0.4127670000000 1.0
C      1  0.4740250000000  0.5201070000000  0.5952670000000 1.0
C      1  0.5972640000000  0.5191440000000  0.4719200000000 1.0
C      1  0.4294090000000  0.5171070000000  0.4337650000000 1.0
C      1  0.5427930000000  0.5289440000000  0.4688270000000 1.0
C      1  0.4494160000000  0.5311010000000  0.4846810000000 1.0
C      1  0.5117440000000  0.5338350000000  0.5541130000000 1.0
C      1  0.5011170000000  0.4706460000000  0.5959020000000 1.0
C      1  0.5847210000000  0.4725380000000  0.4442880000000 1.0
C      1  0.4090570000000  0.4756630000000  0.4536030000000 1.0
C      1  0.3897470000000  0.5530460000000  0.4901310000000 1.0
C      1  0.5468430000000  0.5492700000000  0.5862000000000 1.0
C      1  0.5500420000000  0.5500850000000  0.4069720000000 1.0
C      1  0.5597360000000  0.5468460000000  0.4375410000000 1.0
C      1  0.4068720000000  0.5507850000000  0.4668600000000 1.0
C      1  0.5181490000000  0.5476080000000  0.5974440000000 1.0
C      1  0.4933000000000  0.5873240000000  0.5162600000000 1.0
C      1  0.5205930000000  0.5855310000000  0.4960520000000 1.0
C      1  0.4891390000000  0.5853100000000  0.4825690000000 1.0
C      1  0.4926690000000  0.5643650000000  0.4247170000000 1.0
C      1  0.4382830000000  0.5704620000000  0.5398280000000 1.0
C      1  0.5684040000000  0.5710090000000  0.5331590000000 1.0
C      1  0.4939840000000  0.4493810000000  0.5437810000000 1.0
C      1  0.5282830000000  0.4550250000000  0.4803600000000 1.0
C      1  0.4742020000000  0.4466550000000  0.4792220000000 1.0
C      1  0.4130350000000  0.5621570000000  0.5350490000000 1.0
C      1  0.5795640000000  0.5708600000000  0.5573800000000 1.0
C      1  0.5024890000000  0.5521430000000  0.4032350000000 1.0
C      1  0.5717940000000  0.4966480000000  0.4730600000000 1.0
C      1  0.4446920000000  0.4943000000000  0.4529420000000 1.0
C      1  0.4829640000000  0.4976760000000  0.5713960000000 1.0
C      1  0.5216210000000  0.4296420000000  0.4644500000000 1.0
C      1  0.4651380000000  0.4307730000000  0.5074320000000 1.0
C      1  0.5368980000000  0.4191570000000  0.5281670000000 1.0
C      1  0.4887590000000  0.4847840000000  0.4469170000000 1.0
C      1  0.4575280000000  0.4902900000000  0.5413470000000 1.0
C      1  0.5510340000000  0.4885580000000  0.5173590000000 1.0
C      1  0.5690900000000  0.4234150000000  0.4526590000000 1.0
C      1  0.4290870000000  0.4284360000000  0.4660830000000 1.0
C      1  0.5043580000000  0.4303520000000  0.5633510000000 1.0
C      1  0.5314000000000  0.4242700000000  0.5585980000000 1.0
C      1  0.5423960000000  0.4261410000000  0.4429640000000 1.0
C      1  0.4336270000000  0.4317370000000  0.4942870000000 1.0
C      1  0.5277590000000  0.5075330000000  0.4184020000000 1.0
C      1  0.4109680000000  0.5141040000000  0.5155280000000 1.0
C      1  0.5560250000000  0.5096960000000  0.5662330000000 1.0
C      1  0.4143360000000  0.4501050000000  0.5045540000000 1.0
C      1  0.5477640000000  0.4433310000000  0.5714700000000 1.0
C      1  0.5400690000000  0.4450420000000  0.4223870000000 1.0
C      1  0.5601660000000  0.5032500000000  0.4080600000000 1.0
C      1  0.3885150000000  0.5064310000000  0.4908500000000 1.0
C      1  0.5445790000000  0.5019140000000  0.5970950000000 1.0
C      1  0.3893920000000  0.4810510000000  0.5101930000000 1.0
C      1  0.5626160000000  0.4768960000000  0.5873480000000 1.0
C      1  0.5442640000000  0.4769690000000  0.3989330000000 1.0
C      1  0.5260950000000  0.5370500000000  0.4016050000000 1.0
C      1  0.3986850000000  0.5457910000000  0.5166100000000 1.0
C      1  0.5701690000000  0.5658430000000  0.5831420000000 1.0
C      1  0.4619410000000  0.5551030000000  0.4673060000000 1.0
C      1  0.4925030000000  0.5599180000000  0.5506390000000 1.0
C      1  0.5483900000000  0.5559610000000  0.4852130000000 1.0
C      1  0.4481250000000  0.4775840000000  0.5714660000000 1.0
C      1  0.5810630000000  0.4758020000000  0.5077290000000 1.0
C      1  0.4652870000000  0.4771160000000  0.4235210000000 1.0
C      1  0.3955860000000  0.5044010000000  0.4641850000000 1.0
C      1  0.5176940000000  0.4998520000000  0.6037520000000 1.0
C      1  0.5793750000000  0.5021960000000  0.4282410000000 1.0
C      1  0.5252790000000  0.4447470000000  0.5090330000000 1.0
C      1  0.4901280000000  0.4318400000000  0.4581220000000 1.0
C      1  0.4943060000000  0.4467400000000  0.5145630000000 1.0
C      1  0.5398330000000  0.5875470000000  0.5240130000000 1.0
C      1  0.5024240000000  0.5825630000000  0.4520140000000 1.0
C      1  0.4591420000000  0.5863200000000  0.5178500000000 1.0
C      1  0.5355380000000  0.4859920000000  0.5577090000000 1.0
C      1  0.5314980000000  0.4887800000000  0.4465330000000 1.0
C      1  0.4332500000000  0.4926180000000  0.5014420000000 1.0
C      1  0.5110950000000  0.4843940000000  0.4000380000000 1.0
C      1  0.4054900000000  0.4899250000000  0.5388050000000 1.0
C      1  0.5785530000000  0.4854710000000  0.5582810000000 1.0
C      1  0.4432610000000  0.4598320000000  0.5363540000000 1.0
C      1  0.5517620000000  0.4561670000000  0.5270490000000 1.0
C      1  0.4956930000000  0.4538150000000  0.4346810000000 1.0
C      1  0.5524340000000  0.5225760000000  0.5252790000000 1.0
C      1  0.4982690000000  0.5184290000000  0.4440710000000 1.0
C      1  0.4548760000000  0.5244620000000  0.5369630000000 1.0
C      1  0.6037730000000  0.4857780000000  0.4691450000000 1.0
C      1  0.4260550000000  0.4840300000000  0.4264230000000 1.0
C      1  0.4722480000000  0.4868210000000  0.6019700000000 1.0
C      1  0.4804840000000  0.4925490000000  0.3982530000000 1.0
C      1  0.4197020000000  0.4958940000000  0.5678550000000 1.0
C      1  0.5956780000000  0.4920820000000  0.5329240000000 1.0
C      1  0.6008460000000  0.5005180000000  0.5001470000000 1.0
C      1  0.4504010000000  0.5030180000000  0.4110200000000 1.0
C      1  0.4445200000000  0.5039970000000  0.5901390000000 1.0
C      1  0.4062370000000  0.5273490000000  0.4509790000000 1.0
C      1  0.5036000000000  0.5244550000000  0.6053180000000 1.0
C      1  0.5816830000000  0.5259320000000  0.4442680000000 1.0
C      1  0.4369990000000  0.5350590000000  0.5127190000000 1.0
C      1  0.5435310000000  0.5377750000000  0.5543720000000 1.0
C      1  0.5293990000000  0.5319370000000  0.4415330000000 1.0
C      1  0.4311110000000  0.5640060000000  0.4711720000000 1.0
C      1  0.5121670000000  0.5675190000000  0.5755050000000 1.0
C      1  0.5529700000000  0.5698260000000  0.4573060000000 1.0
C      1  0.4572010000000  0.4342790000000  0.5403600000000 1.0
C      1  0.5626010000000  0.4307220000000  0.5088640000000 1.0
C      1  0.4712060000000  0.4304740000000  0.4312300000000 1.0
C      1  0.5242640000000  0.5173430000000  0.5107390000000 1.0
C      1  0.4931710000000  0.5130100000000  0.4757350000000 1.0
C      1  0.4822200000000  0.5154100000000  0.5223960000000 1.0
C      1  0.4978330000000  0.4771990000000  0.5037650000000 1.0
C      1  0.4991340000000  0.5344060000000  0.5014810000000 1.0
END
