TITL C-3289320-4661-681 -0.000463419932692299 125000 -334.639665367325 0 0 70 (C1) n - 1
REM
REM in /nfs/bkarasulu/CARBON/AIRSS/Generating-Clusters/AIREBO/with-SteepDescent/Higher-Symm/SD-CG/HFTN-CG
REM
REM
REM
REM
REM
REM ./C.cell (b20cbc046b6831c77cfcea5457e17084)
REM
REM compiler GCC version 9.2.1 20190827 (Red Hat 9.2.1-1)
REM options -cpp -mtune=generic -march=x86-64 -g -O0 -fpre-include=/usr/include/finclude/math-vector-fortran.h
REM seed -1931176005 -1595242034 1609561579 -34919476 1453607312 742161093 -1140810714 -89299719 -2090374134 -947301406 -858001216 -1939939451 -1001991995 630897308 716027857 -656027689 664265098 793020821 -1922635364 976013564 -1424578528 1930438939 -101856044 -477552798 457833479 -278376052 1451362112 -1318703681 -1160914625 -1174284253 -1597291900 415487565 182340839
REM
CELL 1.54180   50.00000   50.00000   50.00000   90.00000   90.00000   90.00000
LATT -1
SFAC C  
C      1  0.5307020000000  0.4955620000000  0.4436870000000 1.0
C      1  0.4741840000000  0.4937500000000  0.5595230000000 1.0
C      1  0.5293460000000  0.5049890000000  0.5620490000000 1.0
C      1  0.4684880000000  0.5054870000000  0.4423170000000 1.0
C      1  0.4410530000000  0.4931380000000  0.5296600000000 1.0
C      1  0.5644480000000  0.4929620000000  0.4760800000000 1.0
C      1  0.5600880000000  0.5057180000000  0.5317240000000 1.0
C      1  0.4354770000000  0.5061260000000  0.4753800000000 1.0
C      1  0.5589070000000  0.5419260000000  0.4844120000000 1.0
C      1  0.4432130000000  0.5437270000000  0.5256510000000 1.0
C      1  0.5571470000000  0.4542760000000  0.5261440000000 1.0
C      1  0.4405560000000  0.4580100000000  0.4818600000000 1.0
C      1  0.4821530000000  0.5415810000000  0.5529670000000 1.0
C      1  0.5216260000000  0.5347190000000  0.4462890000000 1.0
C      1  0.5240060000000  0.4540320000000  0.5576000000000 1.0
C      1  0.4783410000000  0.4647490000000  0.4443470000000 1.0
C      1  0.5288480000000  0.5935700000000  0.5023840000000 1.0
C      1  0.4670380000000  0.5816780000000  0.4834640000000 1.0
C      1  0.5328890000000  0.4175170000000  0.4834850000000 1.0
C      1  0.4639080000000  0.4090960000000  0.5122430000000 1.0
C      1  0.5104920000000  0.5882700000000  0.5222030000000 1.0
C      1  0.4814610000000  0.5700490000000  0.4555310000000 1.0
C      1  0.4896720000000  0.4071440000000  0.5283710000000 1.0
C      1  0.5196910000000  0.4300500000000  0.4549850000000 1.0
C      1  0.4760490000000  0.4640970000000  0.5434980000000 1.0
C      1  0.5229420000000  0.4638980000000  0.4533750000000 1.0
C      1  0.4757630000000  0.5373440000000  0.4517710000000 1.0
C      1  0.5187130000000  0.5298170000000  0.5419190000000 1.0
C      1  0.5454460000000  0.4664330000000  0.4767710000000 1.0
C      1  0.4589330000000  0.4676020000000  0.5160660000000 1.0
C      1  0.4536440000000  0.5329600000000  0.4756340000000 1.0
C      1  0.5412780000000  0.5308360000000  0.5186230000000 1.0
C      1  0.4262040000000  0.4711320000000  0.5075380000000 1.0
C      1  0.5726910000000  0.4748340000000  0.5039660000000 1.0
C      1  0.4282560000000  0.5233110000000  0.5041110000000 1.0
C      1  0.5740490000000  0.5285760000000  0.5098400000000 1.0
C      1  0.5018150000000  0.4806440000000  0.4326320000000 1.0
C      1  0.5021750000000  0.4768240000000  0.5702660000000 1.0
C      1  0.4978650000000  0.5203820000000  0.4322480000000 1.0
C      1  0.5065150000000  0.5288190000000  0.5729740000000 1.0
C      1  0.5315170000000  0.5096380000000  0.4969380000000 1.0
C      1  0.4614810000000  0.5160610000000  0.5040810000000 1.0
C      1  0.5397400000000  0.4830140000000  0.5058480000000 1.0
C      1  0.4698880000000  0.4894510000000  0.4945890000000 1.0
C      1  0.4955980000000  0.5118130000000  0.5299740000000 1.0
C      1  0.4935230000000  0.5160330000000  0.4714470000000 1.0
C      1  0.5044140000000  0.4815800000000  0.5366660000000 1.0
C      1  0.5023700000000  0.4831600000000  0.4724300000000 1.0
C      1  0.5130780000000  0.5578000000000  0.5319660000000 1.0
C      1  0.5049360000000  0.5467450000000  0.4805440000000 1.0
C      1  0.4944410000000  0.4505730000000  0.4780320000000 1.0
C      1  0.4852100000000  0.4395900000000  0.5268820000000 1.0
C      1  0.5246580000000  0.5538670000000  0.5011760000000 1.0
C      1  0.4758200000000  0.5503160000000  0.4896010000000 1.0
C      1  0.4745280000000  0.4448250000000  0.4980920000000 1.0
C      1  0.5230460000000  0.4484170000000  0.4901710000000 1.0
C      1  0.4887240000000  0.4365660000000  0.4495980000000 1.0
C      1  0.5146090000000  0.4291770000000  0.5367650000000 1.0
C      1  0.4838540000000  0.5710070000000  0.5356910000000 1.0
C      1  0.5120100000000  0.5625680000000  0.4530220000000 1.0
C      1  0.4497400000000  0.4268780000000  0.4893880000000 1.0
C      1  0.5364930000000  0.4318070000000  0.5145790000000 1.0
C      1  0.5487950000000  0.5720990000000  0.4905240000000 1.0
C      1  0.4623960000000  0.5667240000000  0.5140970000000 1.0
C      1  0.5382810000000  0.4808680000000  0.5397680000000 1.0
C      1  0.5431170000000  0.5176330000000  0.4663990000000 1.0
C      1  0.4570840000000  0.4822490000000  0.4644100000000 1.0
C      1  0.4630860000000  0.5176810000000  0.5380250000000 1.0
C      1  0.5022760000000  0.5119780000000  0.5000220000000 1.0
C      1  0.4992150000000  0.4785930000000  0.5056910000000 1.0
END
