TITL C-3289323-3850-453 0.000434548124283056 125000 -702.829050770822 0 0 130 (C1) n - 1
REM
REM in /nfs/bkarasulu/CARBON/AIRSS/Generating-Clusters/AIREBO/with-SteepDescent/Higher-Symm/SD-CG/HFTN-CG
REM
REM
REM
REM
REM
REM ./C.cell (b20cbc046b6831c77cfcea5457e17084)
REM
REM compiler GCC version 9.2.1 20190827 (Red Hat 9.2.1-1)
REM options -cpp -mtune=generic -march=x86-64 -g -O0 -fpre-include=/usr/include/finclude/math-vector-fortran.h
REM seed -1247796032 -173232442 209254257 1309184822 1714321668 -2062876182 -1475232730 -129649987 -983880667 1554378910 1945659594 1398206913 1135223870 -661003817 1105833505 -1525594684 1173710172 1641213409 -871871174 1415684545 1743870718 -320925275 2050356380 1260520873 423931276 825779344 -156356745 1253339027 1839168803 471172653 2018148369 732010634 1523018985
REM
CELL 1.54180   50.00000   50.00000   50.00000   90.00000   90.00000   90.00000
LATT -1
SFAC C  
C      1  0.4449990000000  0.4853920000000  0.5831120000000 1.0
C      1  0.5679830000000  0.5102630000000  0.5814180000000 1.0
C      1  0.4319610000000  0.5113130000000  0.4105470000000 1.0
C      1  0.5702360000000  0.4878900000000  0.4103090000000 1.0
C      1  0.4898890000000  0.4352810000000  0.5867550000000 1.0
C      1  0.4990970000000  0.5636540000000  0.5819840000000 1.0
C      1  0.5124860000000  0.4479110000000  0.4117380000000 1.0
C      1  0.4873000000000  0.5582470000000  0.4202080000000 1.0
C      1  0.4622350000000  0.5024130000000  0.4232080000000 1.0
C      1  0.5276360000000  0.4982810000000  0.4331160000000 1.0
C      1  0.4704940000000  0.5056560000000  0.5733330000000 1.0
C      1  0.5375430000000  0.5002040000000  0.5721600000000 1.0
C      1  0.4966980000000  0.4634760000000  0.4335320000000 1.0
C      1  0.5022330000000  0.5287440000000  0.4281180000000 1.0
C      1  0.5010200000000  0.4640580000000  0.5725480000000 1.0
C      1  0.5006670000000  0.5317100000000  0.5763470000000 1.0
C      1  0.5228450000000  0.4941100000000  0.4905300000000 1.0
C      1  0.4723200000000  0.4877850000000  0.4909700000000 1.0
C      1  0.5178890000000  0.5055570000000  0.5221740000000 1.0
C      1  0.4727520000000  0.5068650000000  0.5167370000000 1.0
C      1  0.4932830000000  0.5092810000000  0.4780730000000 1.0
C      1  0.4999600000000  0.4681450000000  0.4883830000000 1.0
C      1  0.4979200000000  0.5266850000000  0.5062980000000 1.0
C      1  0.5037430000000  0.4767450000000  0.5210620000000 1.0
C      1  0.5594120000000  0.4613260000000  0.4501900000000 1.0
C      1  0.4346940000000  0.5479910000000  0.4466790000000 1.0
C      1  0.5548460000000  0.5461170000000  0.5496630000000 1.0
C      1  0.4308670000000  0.4543890000000  0.5493360000000 1.0
C      1  0.4520420000000  0.5728630000000  0.4491180000000 1.0
C      1  0.5403200000000  0.4379300000000  0.4520110000000 1.0
C      1  0.5423760000000  0.5740410000000  0.5548270000000 1.0
C      1  0.4573330000000  0.4401170000000  0.5494230000000 1.0
C      1  0.4826340000000  0.5240490000000  0.4555020000000 1.0
C      1  0.5114570000000  0.4544710000000  0.4593610000000 1.0
C      1  0.4838370000000  0.4605930000000  0.5434000000000 1.0
C      1  0.5142470000000  0.5446890000000  0.5503290000000 1.0
C      1  0.5375450000000  0.4843920000000  0.4614440000000 1.0
C      1  0.4529800000000  0.5214850000000  0.4497940000000 1.0
C      1  0.4667120000000  0.4899660000000  0.5433870000000 1.0
C      1  0.5331730000000  0.5203010000000  0.5450800000000 1.0
C      1  0.5713910000000  0.5199600000000  0.5082350000000 1.0
C      1  0.4223340000000  0.4757790000000  0.5062580000000 1.0
C      1  0.5881030000000  0.4786180000000  0.4850020000000 1.0
C      1  0.4198860000000  0.5288630000000  0.4932830000000 1.0
C      1  0.5246040000000  0.5874070000000  0.5139390000000 1.0
C      1  0.4796470000000  0.4142910000000  0.5090400000000 1.0
C      1  0.4779380000000  0.5767320000000  0.4899330000000 1.0
C      1  0.5302140000000  0.4185200000000  0.4953380000000 1.0
C      1  0.5434770000000  0.5211370000000  0.4899650000000 1.0
C      1  0.4445580000000  0.4841370000000  0.4826040000000 1.0
C      1  0.5419140000000  0.4734160000000  0.5096190000000 1.0
C      1  0.4453490000000  0.5206590000000  0.5117060000000 1.0
C      1  0.5208550000000  0.5444800000000  0.4910100000000 1.0
C      1  0.4779090000000  0.4429430000000  0.4932190000000 1.0
C      1  0.4843550000000  0.5548130000000  0.5142530000000 1.0
C      1  0.5279810000000  0.4446650000000  0.5160050000000 1.0
C      1  0.5263970000000  0.4057570000000  0.5249050000000 1.0
C      1  0.4774090000000  0.5937580000000  0.5194050000000 1.0
C      1  0.5224310000000  0.5901250000000  0.4829710000000 1.0
C      1  0.4728050000000  0.4072820000000  0.4762640000000 1.0
C      1  0.4087660000000  0.5273160000000  0.5257360000000 1.0
C      1  0.5906190000000  0.4759370000000  0.5142980000000 1.0
C      1  0.5921490000000  0.5228380000000  0.4811470000000 1.0
C      1  0.4060320000000  0.4764380000000  0.4761710000000 1.0
C      1  0.4677810000000  0.5805640000000  0.5492300000000 1.0
C      1  0.5308780000000  0.4268420000000  0.5516690000000 1.0
C      1  0.4659000000000  0.4270350000000  0.4476600000000 1.0
C      1  0.5305060000000  0.5767270000000  0.4522550000000 1.0
C      1  0.5818220000000  0.4693830000000  0.5469510000000 1.0
C      1  0.4313710000000  0.5327130000000  0.5526500000000 1.0
C      1  0.4241970000000  0.4712290000000  0.4469910000000 1.0
C      1  0.5786030000000  0.5306520000000  0.4500290000000 1.0
C      1  0.5749890000000  0.5437940000000  0.5245870000000 1.0
C      1  0.4165260000000  0.4528930000000  0.5262240000000 1.0
C      1  0.5867840000000  0.4571270000000  0.4662470000000 1.0
C      1  0.4141310000000  0.5483380000000  0.4717530000000 1.0
C      1  0.5455880000000  0.5911920000000  0.5318400000000 1.0
C      1  0.4600780000000  0.4123710000000  0.5313490000000 1.0
C      1  0.4523780000000  0.5831310000000  0.4742820000000 1.0
C      1  0.5488000000000  0.4174880000000  0.4736430000000 1.0
C      1  0.5014910000000  0.4103040000000  0.5472940000000 1.0
C      1  0.4980560000000  0.5962790000000  0.5462990000000 1.0
C      1  0.4995970000000  0.5899630000000  0.4573070000000 1.0
C      1  0.4962880000000  0.4144390000000  0.4520170000000 1.0
C      1  0.4140020000000  0.5036170000000  0.5497970000000 1.0
C      1  0.5901990000000  0.5010510000000  0.5378360000000 1.0
C      1  0.5966790000000  0.5024660000000  0.4542960000000 1.0
C      1  0.4066520000000  0.4999810000000  0.4516450000000 1.0
C      1  0.5003610000000  0.5590250000000  0.4713930000000 1.0
C      1  0.5055140000000  0.4293210000000  0.4807130000000 1.0
C      1  0.4996340000000  0.4359980000000  0.5260190000000 1.0
C      1  0.5057100000000  0.5665910000000  0.5315900000000 1.0
C      1  0.5657620000000  0.4970770000000  0.4671470000000 1.0
C      1  0.4322740000000  0.5086570000000  0.4699690000000 1.0
C      1  0.4366040000000  0.4944070000000  0.5280290000000 1.0
C      1  0.5583550000000  0.4950740000000  0.5275090000000 1.0
C      1  0.5293660000000  0.5051820000000  0.6047670000000 1.0
C      1  0.4784830000000  0.4951800000000  0.6046860000000 1.0
C      1  0.5419920000000  0.4867540000000  0.4083640000000 1.0
C      1  0.4753180000000  0.5091950000000  0.3925670000000 1.0
C      1  0.5091540000000  0.5208260000000  0.6058700000000 1.0
C      1  0.4928940000000  0.4739870000000  0.6040450000000 1.0
C      1  0.4981720000000  0.5209070000000  0.3953520000000 1.0
C      1  0.5287530000000  0.4647410000000  0.3962490000000 1.0
C      1  0.5493840000000  0.4755790000000  0.5539900000000 1.0
C      1  0.4574400000000  0.5342360000000  0.5686560000000 1.0
C      1  0.5459390000000  0.5213470000000  0.4501230000000 1.0
C      1  0.4505720000000  0.4737320000000  0.4331380000000 1.0
C      1  0.4719150000000  0.5586950000000  0.5698120000000 1.0
C      1  0.5297430000000  0.4540680000000  0.5631670000000 1.0
C      1  0.5228090000000  0.5436420000000  0.4507160000000 1.0
C      1  0.4682940000000  0.4542750000000  0.4356360000000 1.0
C      1  0.5442410000000  0.5642200000000  0.4799360000000 1.0
C      1  0.4513130000000  0.4336280000000  0.4760450000000 1.0
C      1  0.5542700000000  0.4251590000000  0.5273140000000 1.0
C      1  0.4550180000000  0.5681110000000  0.5214830000000 1.0
C      1  0.5653860000000  0.5436580000000  0.4769420000000 1.0
C      1  0.4316620000000  0.4536700000000  0.4747580000000 1.0
C      1  0.4349890000000  0.5489130000000  0.5243130000000 1.0
C      1  0.5663990000000  0.4533710000000  0.5220570000000 1.0
C      1  0.5179380000000  0.4262460000000  0.4319660000000 1.0
C      1  0.4773130000000  0.5757890000000  0.4380380000000 1.0
C      1  0.5171970000000  0.5805700000000  0.5672630000000 1.0
C      1  0.4791700000000  0.4207380000000  0.5653440000000 1.0
C      1  0.4172650000000  0.5227760000000  0.4319140000000 1.0
C      1  0.5809350000000  0.4803250000000  0.4343570000000 1.0
C      1  0.5781160000000  0.5228060000000  0.5581890000000 1.0
C      1  0.4278270000000  0.4781360000000  0.5634790000000 1.0
C      1  0.5036310000000  0.4979500000000  0.5735380000000 1.0
C      1  0.4948040000000  0.4955990000000  0.4302940000000 1.0
END
