TITL C-3289325-7307-471 -0.000673987981958529 125000 -390.702292084316 0 0 74 (C1) n - 1
REM
REM in /nfs/bkarasulu/CARBON/AIRSS/Generating-Clusters/AIREBO/with-SteepDescent/Higher-Symm/SD-CG/HFTN-CG
REM
REM
REM
REM
REM
REM ./C.cell (b20cbc046b6831c77cfcea5457e17084)
REM
REM compiler GCC version 9.2.1 20190827 (Red Hat 9.2.1-1)
REM options -cpp -mtune=generic -march=x86-64 -g -O0 -fpre-include=/usr/include/finclude/math-vector-fortran.h
REM seed -576628162 1816773846 1914452288 850678747 -197322064 -684525938 -1118048942 -951522321 218853333 768351452 -1101159600 1748915664 -2136389511 -755952265 -2004836564 1787090683 -1120369924 1778678304 107254629 -2128651253 1036637157 -1751308808 -1964792920 1670673992 1561660781 1168815978 448791311 -991789439 -432650115 1238927213 1013053021 1721118366 727149595
REM
CELL 1.54180   50.00000   50.00000   50.00000   90.00000   90.00000   90.00000
LATT -1
SFAC C  
C      1  0.5329230000000  0.4918390000000  0.4713270000000 1.0
C      1  0.4467680000000  0.5810890000000  0.4707130000000 1.0
C      1  0.5904450000000  0.4948190000000  0.5335190000000 1.0
C      1  0.5682670000000  0.5426440000000  0.5118150000000 1.0
C      1  0.5510750000000  0.5215820000000  0.5512400000000 1.0
C      1  0.5633090000000  0.4874370000000  0.4458470000000 1.0
C      1  0.5332820000000  0.4778280000000  0.5460640000000 1.0
C      1  0.4197020000000  0.5334870000000  0.5669880000000 1.0
C      1  0.4859800000000  0.4943320000000  0.4424350000000 1.0
C      1  0.5483460000000  0.4449330000000  0.4734870000000 1.0
C      1  0.4733270000000  0.4278510000000  0.4947420000000 1.0
C      1  0.5376620000000  0.5407590000000  0.5016380000000 1.0
C      1  0.4740740000000  0.4921200000000  0.4718450000000 1.0
C      1  0.5413760000000  0.4628260000000  0.4453900000000 1.0
C      1  0.5197530000000  0.5025520000000  0.5542890000000 1.0
C      1  0.5103310000000  0.5279230000000  0.4859980000000 1.0
C      1  0.5276450000000  0.5671130000000  0.5169360000000 1.0
C      1  0.4913490000000  0.4775360000000  0.4911010000000 1.0
C      1  0.5151450000000  0.4561830000000  0.5146560000000 1.0
C      1  0.4416580000000  0.4619410000000  0.5133800000000 1.0
C      1  0.4918270000000  0.5435730000000  0.5696470000000 1.0
C      1  0.4353880000000  0.4898930000000  0.5094990000000 1.0
C      1  0.4928810000000  0.5551280000000  0.4965530000000 1.0
C      1  0.5369520000000  0.5562120000000  0.4650170000000 1.0
C      1  0.4418210000000  0.5294500000000  0.5540340000000 1.0
C      1  0.5172480000000  0.4865170000000  0.4416270000000 1.0
C      1  0.4502270000000  0.5304450000000  0.4723900000000 1.0
C      1  0.4718090000000  0.5198490000000  0.5661190000000 1.0
C      1  0.4434100000000  0.4801120000000  0.4779320000000 1.0
C      1  0.4759020000000  0.5774960000000  0.4573790000000 1.0
C      1  0.5196980000000  0.4614780000000  0.4813760000000 1.0
C      1  0.5319800000000  0.4311720000000  0.5284410000000 1.0
C      1  0.5126910000000  0.4103330000000  0.4727040000000 1.0
C      1  0.5585650000000  0.5089720000000  0.4655840000000 1.0
C      1  0.5254910000000  0.5743200000000  0.4838110000000 1.0
C      1  0.4594690000000  0.5500040000000  0.4493220000000 1.0
C      1  0.5179070000000  0.4973290000000  0.4987960000000 1.0
C      1  0.4554190000000  0.5613800000000  0.5360520000000 1.0
C      1  0.4763170000000  0.5198230000000  0.5186010000000 1.0
C      1  0.5439120000000  0.4835300000000  0.5158710000000 1.0
C      1  0.5646390000000  0.4992210000000  0.5340290000000 1.0
C      1  0.5084800000000  0.4371790000000  0.4603990000000 1.0
C      1  0.5571900000000  0.5349520000000  0.4744170000000 1.0
C      1  0.4898010000000  0.5476240000000  0.4403540000000 1.0
C      1  0.4965400000000  0.5776750000000  0.4782270000000 1.0
C      1  0.4541050000000  0.5017710000000  0.4343030000000 1.0
C      1  0.4646830000000  0.4669250000000  0.5623980000000 1.0
C      1  0.5269940000000  0.5151930000000  0.4341230000000 1.0
C      1  0.4701500000000  0.4418270000000  0.5432300000000 1.0
C      1  0.5237750000000  0.5331020000000  0.5631240000000 1.0
C      1  0.4954060000000  0.4520350000000  0.5635800000000 1.0
C      1  0.5218020000000  0.5862770000000  0.5448990000000 1.0
C      1  0.5251230000000  0.4516920000000  0.5528930000000 1.0
C      1  0.4360260000000  0.5593660000000  0.4802210000000 1.0
C      1  0.4389750000000  0.5053150000000  0.4583420000000 1.0
C      1  0.4752380000000  0.4566430000000  0.5127960000000 1.0
C      1  0.4815740000000  0.5511050000000  0.5245130000000 1.0
C      1  0.4979700000000  0.4101490000000  0.4963490000000 1.0
C      1  0.5129310000000  0.4075790000000  0.5192400000000 1.0
C      1  0.5087930000000  0.4547080000000  0.4330890000000 1.0
C      1  0.5486430000000  0.4515000000000  0.5068610000000 1.0
C      1  0.5412640000000  0.4141460000000  0.4703380000000 1.0
C      1  0.5722420000000  0.5383910000000  0.5365360000000 1.0
C      1  0.4771310000000  0.5229020000000  0.4262580000000 1.0
C      1  0.4642550000000  0.4534860000000  0.4742450000000 1.0
C      1  0.4429250000000  0.4344510000000  0.5049250000000 1.0
C      1  0.4829350000000  0.4561790000000  0.4552570000000 1.0
C      1  0.4899430000000  0.5021710000000  0.5434430000000 1.0
C      1  0.5083820000000  0.5551370000000  0.5422810000000 1.0
C      1  0.4489140000000  0.5073330000000  0.5300100000000 1.0
C      1  0.4774300000000  0.5193970000000  0.4873540000000 1.0
C      1  0.4950830000000  0.4717780000000  0.5358950000000 1.0
C      1  0.5148190000000  0.5371360000000  0.4532260000000 1.0
C      1  0.4545080000000  0.4918430000000  0.5586780000000 1.0
END
