TITL C-3289329-2751-326 0.000782589404521363 125000 -1022.82749755142 0 0 181 (C1) n - 1
REM
REM in /nfs/bkarasulu/CARBON/AIRSS/Generating-Clusters/AIREBO/with-SteepDescent/Higher-Symm/SD-CG/HFTN-CG
REM
REM
REM
REM
REM
REM ./C.cell (b20cbc046b6831c77cfcea5457e17084)
REM
REM compiler GCC version 9.2.1 20190827 (Red Hat 9.2.1-1)
REM options -cpp -mtune=generic -march=x86-64 -g -O0 -fpre-include=/usr/include/finclude/math-vector-fortran.h
REM seed 593962969 1486864411 -1006526123 -667928523 -530411968 -2013461291 -1006646941 -855705146 1898857450 -691518606 1938318153 -1259625944 -1679841076 151366697 631442204 1704240698 -1516048437 972172954 -576865224 462519885 -26271687 -515731481 -67739412 -1233646284 -567470247 -555688228 357867388 846282948 -426699185 -707020382 -42654335 -129065397 359070820
REM
CELL 1.54180   50.00000   50.00000   50.00000   90.00000   90.00000   90.00000
LATT -1
SFAC C  
C      1  0.4122650000000  0.5581800000000  0.5356040000000 1.0
C      1  0.5328870000000  0.4238510000000  0.5543300000000 1.0
C      1  0.5620910000000  0.5281280000000  0.4248070000000 1.0
C      1  0.5782040000000  0.4421420000000  0.5286080000000 1.0
C      1  0.5804430000000  0.5631140000000  0.4666100000000 1.0
C      1  0.4127680000000  0.4412530000000  0.4642130000000 1.0
C      1  0.4618710000000  0.5856980000000  0.5574800000000 1.0
C      1  0.4574290000000  0.4130610000000  0.4487180000000 1.0
C      1  0.5296970000000  0.5791250000000  0.4430620000000 1.0
C      1  0.4426290000000  0.4670860000000  0.4142460000000 1.0
C      1  0.4442940000000  0.5366220000000  0.5825000000000 1.0
C      1  0.5613250000000  0.4607690000000  0.5849760000000 1.0
C      1  0.5569070000000  0.4157120000000  0.5316800000000 1.0
C      1  0.4209040000000  0.5339310000000  0.5578160000000 1.0
C      1  0.5246960000000  0.5606520000000  0.4191770000000 1.0
C      1  0.4391020000000  0.5791440000000  0.5327840000000 1.0
C      1  0.5521080000000  0.5819830000000  0.4675090000000 1.0
C      1  0.4322960000000  0.4138800000000  0.4715250000000 1.0
C      1  0.5827370000000  0.4599460000000  0.5576120000000 1.0
C      1  0.4256010000000  0.4659090000000  0.4437070000000 1.0
C      1  0.5838240000000  0.5352850000000  0.4482780000000 1.0
C      1  0.4477160000000  0.4345030000000  0.4237170000000 1.0
C      1  0.5351060000000  0.4387100000000  0.5826610000000 1.0
C      1  0.4691010000000  0.5595760000000  0.5780740000000 1.0
C      1  0.4356380000000  0.5775840000000  0.4574340000000 1.0
C      1  0.4540550000000  0.4424050000000  0.5917190000000 1.0
C      1  0.5864130000000  0.4550180000000  0.4288920000000 1.0
C      1  0.5547160000000  0.4271600000000  0.4523610000000 1.0
C      1  0.5700700000000  0.5778880000000  0.5384070000000 1.0
C      1  0.4447710000000  0.4279490000000  0.5452050000000 1.0
C      1  0.5456030000000  0.5597910000000  0.5763730000000 1.0
C      1  0.5431790000000  0.4416240000000  0.4050870000000 1.0
C      1  0.4456870000000  0.5642870000000  0.4122990000000 1.0
C      1  0.4172180000000  0.5420260000000  0.4295540000000 1.0
C      1  0.4146670000000  0.4612100000000  0.5630160000000 1.0
C      1  0.5946710000000  0.5419570000000  0.5628710000000 1.0
C      1  0.5797390000000  0.4395710000000  0.4529230000000 1.0
C      1  0.4320180000000  0.4614470000000  0.5846760000000 1.0
C      1  0.4527990000000  0.5784910000000  0.4344610000000 1.0
C      1  0.4218020000000  0.5537280000000  0.4571130000000 1.0
C      1  0.5939870000000  0.5607760000000  0.5396670000000 1.0
C      1  0.4239060000000  0.4449620000000  0.5424180000000 1.0
C      1  0.5698100000000  0.5425260000000  0.5778390000000 1.0
C      1  0.4442480000000  0.5312200000000  0.4119840000000 1.0
C      1  0.5699930000000  0.4538340000000  0.4044440000000 1.0
C      1  0.5403020000000  0.4239820000000  0.4264810000000 1.0
C      1  0.4577420000000  0.4237290000000  0.5713450000000 1.0
C      1  0.5441070000000  0.5736460000000  0.5527300000000 1.0
C      1  0.4796480000000  0.5725070000000  0.4484790000000 1.0
C      1  0.4561710000000  0.4789460000000  0.5757860000000 1.0
C      1  0.5885910000000  0.4504100000000  0.4764760000000 1.0
C      1  0.5147070000000  0.4277760000000  0.4450370000000 1.0
C      1  0.5181960000000  0.5748530000000  0.5374500000000 1.0
C      1  0.4836230000000  0.4296100000000  0.5541640000000 1.0
C      1  0.5449660000000  0.5201450000000  0.5714840000000 1.0
C      1  0.5525860000000  0.4756400000000  0.4238900000000 1.0
C      1  0.4613920000000  0.5215270000000  0.4399690000000 1.0
C      1  0.4281860000000  0.5352070000000  0.4806680000000 1.0
C      1  0.4253600000000  0.4598440000000  0.5174880000000 1.0
C      1  0.5711270000000  0.5327830000000  0.5231110000000 1.0
C      1  0.5795500000000  0.4817980000000  0.4448460000000 1.0
C      1  0.4807560000000  0.4606230000000  0.5650440000000 1.0
C      1  0.4460920000000  0.5853630000000  0.4821390000000 1.0
C      1  0.4289820000000  0.5162010000000  0.4456120000000 1.0
C      1  0.5687270000000  0.5157120000000  0.5483390000000 1.0
C      1  0.4084270000000  0.4868450000000  0.5529780000000 1.0
C      1  0.5223530000000  0.5507290000000  0.5870090000000 1.0
C      1  0.4780240000000  0.5460690000000  0.4271940000000 1.0
C      1  0.5235500000000  0.4592330000000  0.4349780000000 1.0
C      1  0.5385340000000  0.4268440000000  0.4771500000000 1.0
C      1  0.4620340000000  0.4266020000000  0.5207190000000 1.0
C      1  0.5530200000000  0.5891770000000  0.5170640000000 1.0
C      1  0.4560830000000  0.5662280000000  0.5063100000000 1.0
C      1  0.5266320000000  0.4654820000000  0.5657490000000 1.0
C      1  0.5713310000000  0.5076580000000  0.4608690000000 1.0
C      1  0.5376700000000  0.4288650000000  0.5106710000000 1.0
C      1  0.5423600000000  0.5682030000000  0.4961750000000 1.0
C      1  0.4534420000000  0.4326750000000  0.4883850000000 1.0
C      1  0.4960000000000  0.5419950000000  0.5704940000000 1.0
C      1  0.4700030000000  0.4488630000000  0.4366580000000 1.0
C      1  0.5077020000000  0.5386270000000  0.4284070000000 1.0
C      1  0.4376150000000  0.4896990000000  0.4617050000000 1.0
C      1  0.4328010000000  0.5062390000000  0.5439670000000 1.0
C      1  0.5695320000000  0.4839230000000  0.5374120000000 1.0
C      1  0.5715760000000  0.4594050000000  0.5018380000000 1.0
C      1  0.4572060000000  0.5092980000000  0.5674530000000 1.0
C      1  0.5064760000000  0.5654070000000  0.4637720000000 1.0
C      1  0.4301430000000  0.5450200000000  0.5121600000000 1.0
C      1  0.5665400000000  0.5447310000000  0.4916060000000 1.0
C      1  0.4308680000000  0.4579530000000  0.4850060000000 1.0
C      1  0.5516940000000  0.4832440000000  0.5643230000000 1.0
C      1  0.4707910000000  0.4771770000000  0.4304120000000 1.0
C      1  0.5413780000000  0.5053390000000  0.4344900000000 1.0
C      1  0.4843690000000  0.4315280000000  0.4582040000000 1.0
C      1  0.5092260000000  0.4368320000000  0.5375120000000 1.0
C      1  0.4856850000000  0.5720570000000  0.5423940000000 1.0
C      1  0.5209850000000  0.4656020000000  0.4016710000000 1.0
C      1  0.4023980000000  0.5082420000000  0.4645770000000 1.0
C      1  0.4660720000000  0.3945230000000  0.5122450000000 1.0
C      1  0.4859820000000  0.5376210000000  0.3952060000000 1.0
C      1  0.4813980000000  0.4595010000000  0.5990390000000 1.0
C      1  0.5059790000000  0.5340060000000  0.6082760000000 1.0
C      1  0.6059830000000  0.4888200000000  0.4652550000000 1.0
C      1  0.6009530000000  0.5092630000000  0.5559560000000 1.0
C      1  0.3882510000000  0.4897740000000  0.5306100000000 1.0
C      1  0.5308880000000  0.6106910000000  0.5155910000000 1.0
C      1  0.5306120000000  0.3960450000000  0.4880500000000 1.0
C      1  0.4670380000000  0.6071870000000  0.4862140000000 1.0
C      1  0.4623930000000  0.5151640000000  0.3908050000000 1.0
C      1  0.5081790000000  0.3999040000000  0.4633940000000 1.0
C      1  0.3954030000000  0.4689700000000  0.5089520000000 1.0
C      1  0.5408150000000  0.4923900000000  0.3967070000000 1.0
C      1  0.4673010000000  0.4902280000000  0.6046520000000 1.0
C      1  0.5311870000000  0.5141430000000  0.6000640000000 1.0
C      1  0.4882280000000  0.6008740000000  0.4651200000000 1.0
C      1  0.5056410000000  0.6063290000000  0.5345440000000 1.0
C      1  0.4898850000000  0.4019610000000  0.5353920000000 1.0
C      1  0.6003570000000  0.5462950000000  0.5121000000000 1.0
C      1  0.3956680000000  0.5309820000000  0.4889740000000 1.0
C      1  0.6092070000000  0.4691790000000  0.4929060000000 1.0
C      1  0.5372210000000  0.4806710000000  0.6009850000000 1.0
C      1  0.6049700000000  0.5453050000000  0.4822000000000 1.0
C      1  0.4778370000000  0.6108170000000  0.5408020000000 1.0
C      1  0.4583740000000  0.5171520000000  0.6066330000000 1.0
C      1  0.4618700000000  0.4860810000000  0.3929190000000 1.0
C      1  0.5424100000000  0.5216280000000  0.3982330000000 1.0
C      1  0.3911470000000  0.4605470000000  0.4821380000000 1.0
C      1  0.3907210000000  0.5405180000000  0.5156010000000 1.0
C      1  0.6039890000000  0.4641270000000  0.5241470000000 1.0
C      1  0.5190320000000  0.3982130000000  0.5367940000000 1.0
C      1  0.5165980000000  0.6038880000000  0.4623910000000 1.0
C      1  0.4805230000000  0.3919250000000  0.4620450000000 1.0
C      1  0.4769750000000  0.5402330000000  0.6052260000000 1.0
C      1  0.5358590000000  0.6061250000000  0.4852700000000 1.0
C      1  0.6072220000000  0.4823920000000  0.5502250000000 1.0
C      1  0.5130960000000  0.4567410000000  0.6021540000000 1.0
C      1  0.4900810000000  0.4737200000000  0.3933340000000 1.0
C      1  0.5193380000000  0.5426560000000  0.3907210000000 1.0
C      1  0.4569180000000  0.3933420000000  0.4832770000000 1.0
C      1  0.5388690000000  0.3897950000000  0.5153600000000 1.0
C      1  0.4570930000000  0.6043350000000  0.5186600000000 1.0
C      1  0.3947980000000  0.5219220000000  0.5395720000000 1.0
C      1  0.6097350000000  0.5186440000000  0.4627440000000 1.0
C      1  0.3991720000000  0.4794480000000  0.4604240000000 1.0
C      1  0.5222190000000  0.5058960000000  0.5504880000000 1.0
C      1  0.5464690000000  0.5153640000000  0.5092640000000 1.0
C      1  0.5073390000000  0.5465540000000  0.5220030000000 1.0
C      1  0.4846430000000  0.5034790000000  0.5370020000000 1.0
C      1  0.4778920000000  0.4974910000000  0.4536270000000 1.0
C      1  0.5265040000000  0.5003270000000  0.4600180000000 1.0
C      1  0.4557300000000  0.4738620000000  0.5112680000000 1.0
C      1  0.4562230000000  0.5212500000000  0.4943580000000 1.0
C      1  0.5442450000000  0.4739470000000  0.4994440000000 1.0
C      1  0.5090300000000  0.4636210000000  0.5165750000000 1.0
C      1  0.5030780000000  0.5397860000000  0.4828320000000 1.0
C      1  0.4916990000000  0.4581510000000  0.4780470000000 1.0
C      1  0.5013810000000  0.5282270000000  0.5444070000000 1.0
C      1  0.5283960000000  0.5380370000000  0.5015370000000 1.0
C      1  0.5374360000000  0.4894730000000  0.5276670000000 1.0
C      1  0.5034960000000  0.4776700000000  0.5463060000000 1.0
C      1  0.5049750000000  0.4768020000000  0.4546700000000 1.0
C      1  0.5006540000000  0.5135720000000  0.4693470000000 1.0
C      1  0.4787050000000  0.4541750000000  0.5097770000000 1.0
C      1  0.5227790000000  0.4554740000000  0.4865410000000 1.0
C      1  0.4788830000000  0.5412080000000  0.5031080000000 1.0
C      1  0.4591100000000  0.5025800000000  0.5227410000000 1.0
C      1  0.5461900000000  0.4984530000000  0.4809980000000 1.0
C      1  0.4632330000000  0.4919820000000  0.4834790000000 1.0
C      1  0.5789630000000  0.4919670000000  0.5075410000000 1.0
C      1  0.5096440000000  0.5772610000000  0.4941730000000 1.0
C      1  0.4894080000000  0.5093720000000  0.5774890000000 1.0
C      1  0.4219730000000  0.5119880000000  0.5122490000000 1.0
C      1  0.4247620000000  0.4905690000000  0.4925850000000 1.0
C      1  0.5813930000000  0.5141390000000  0.4900690000000 1.0
C      1  0.4852620000000  0.4206510000000  0.4891890000000 1.0
C      1  0.4870360000000  0.5792140000000  0.5118010000000 1.0
C      1  0.5061840000000  0.4253090000000  0.5068930000000 1.0
C      1  0.5076180000000  0.4859760000000  0.5851040000000 1.0
C      1  0.5135020000000  0.5124520000000  0.4243020000000 1.0
C      1  0.4965560000000  0.4920970000000  0.4186870000000 1.0
C      1  0.5007470000000  0.5025560000000  0.4971230000000 1.0
END
