TITL C-3289326-3776-183 0.00163621109084632 125000 -1078.52142683766 0 0 196 (C1) n - 1
REM
REM in /nfs/bkarasulu/CARBON/AIRSS/Generating-Clusters/AIREBO/with-SteepDescent/Higher-Symm/SD-CG/HFTN-CG
REM
REM
REM
REM
REM
REM ./C.cell (b20cbc046b6831c77cfcea5457e17084)
REM
REM compiler GCC version 9.2.1 20190827 (Red Hat 9.2.1-1)
REM options -cpp -mtune=generic -march=x86-64 -g -O0 -fpre-include=/usr/include/finclude/math-vector-fortran.h
REM seed 1123669813 737835648 -1738858035 384899475 58270944 1908300853 1384636603 -530505788 809513163 -1366829123 -1718822223 190456405 481396500 695756956 -1126293047 518206752 -643527407 1011755558 1340446577 1709000129 -241337078 -1170715229 1967867964 850493088 1689996976 -1678704181 462666087 -2105368237 1409365269 451512718 -1401291428 1707985837 500202955
REM
CELL 1.54180   50.00000   50.00000   50.00000   90.00000   90.00000   90.00000
LATT -1
SFAC C  
C      1  0.5492440000000  0.4666320000000  0.5847520000000 1.0
C      1  0.5139530000000  0.4327100000000  0.5158420000000 1.0
C      1  0.4559790000000  0.4793230000000  0.5701710000000 1.0
C      1  0.5575760000000  0.5241820000000  0.5832610000000 1.0
C      1  0.4289740000000  0.4990320000000  0.5636510000000 1.0
C      1  0.3958930000000  0.5449610000000  0.4949110000000 1.0
C      1  0.5930350000000  0.4747240000000  0.4468090000000 1.0
C      1  0.5514680000000  0.4958270000000  0.6010060000000 1.0
C      1  0.5750980000000  0.4639570000000  0.4199510000000 1.0
C      1  0.4879440000000  0.5329830000000  0.5360950000000 1.0
C      1  0.5960580000000  0.4939650000000  0.5399880000000 1.0
C      1  0.3903620000000  0.5604570000000  0.4732060000000 1.0
C      1  0.5437270000000  0.4339980000000  0.4465880000000 1.0
C      1  0.3918100000000  0.4797040000000  0.4434310000000 1.0
C      1  0.4182340000000  0.5718060000000  0.6057450000000 1.0
C      1  0.4910090000000  0.4842510000000  0.4162590000000 1.0
C      1  0.5598840000000  0.4763480000000  0.4545260000000 1.0
C      1  0.4976140000000  0.5549450000000  0.5201020000000 1.0
C      1  0.5408220000000  0.5424420000000  0.6065510000000 1.0
C      1  0.5624240000000  0.5401920000000  0.5212240000000 1.0
C      1  0.4569890000000  0.5673030000000  0.5049090000000 1.0
C      1  0.5013730000000  0.4955280000000  0.6138230000000 1.0
C      1  0.4587620000000  0.4901430000000  0.5387220000000 1.0
C      1  0.5348020000000  0.4061190000000  0.4390380000000 1.0
C      1  0.4250430000000  0.5158200000000  0.4227800000000 1.0
C      1  0.4939820000000  0.5245040000000  0.4464940000000 1.0
C      1  0.4808690000000  0.4400780000000  0.5982580000000 1.0
C      1  0.4596340000000  0.4856030000000  0.3889650000000 1.0
C      1  0.4143950000000  0.5296620000000  0.4455090000000 1.0
C      1  0.4268030000000  0.5002310000000  0.5048290000000 1.0
C      1  0.4797190000000  0.5476020000000  0.4086740000000 1.0
C      1  0.5136190000000  0.4496930000000  0.4863710000000 1.0
C      1  0.4040150000000  0.4583740000000  0.4874840000000 1.0
C      1  0.5653770000000  0.4414100000000  0.4922040000000 1.0
C      1  0.4541400000000  0.4050280000000  0.5079110000000 1.0
C      1  0.5121480000000  0.6038850000000  0.4628950000000 1.0
C      1  0.5848850000000  0.4413920000000  0.4672010000000 1.0
C      1  0.4789650000000  0.4982340000000  0.4418220000000 1.0
C      1  0.4385140000000  0.4330410000000  0.4618970000000 1.0
C      1  0.5214270000000  0.5614990000000  0.6096820000000 1.0
C      1  0.5499600000000  0.4164480000000  0.5601730000000 1.0
C      1  0.4827730000000  0.5509060000000  0.4899870000000 1.0
C      1  0.4876040000000  0.4119640000000  0.5079010000000 1.0
C      1  0.4429310000000  0.5685710000000  0.5520720000000 1.0
C      1  0.5003360000000  0.4251880000000  0.4100940000000 1.0
C      1  0.4604640000000  0.4804070000000  0.6371800000000 1.0
C      1  0.5257840000000  0.4986370000000  0.6176040000000 1.0
C      1  0.5193060000000  0.5480650000000  0.3793510000000 1.0
C      1  0.3937150000000  0.4971900000000  0.4974620000000 1.0
C      1  0.4590530000000  0.4309540000000  0.5810480000000 1.0
C      1  0.4473550000000  0.4344120000000  0.4229520000000 1.0
C      1  0.4841710000000  0.5884520000000  0.5856800000000 1.0
C      1  0.5019810000000  0.4218570000000  0.5694100000000 1.0
C      1  0.5318530000000  0.5157150000000  0.5626810000000 1.0
C      1  0.4820670000000  0.4566340000000  0.4970010000000 1.0
C      1  0.4895470000000  0.4534850000000  0.5682290000000 1.0
C      1  0.4762560000000  0.5088290000000  0.3999830000000 1.0
C      1  0.5321780000000  0.4042730000000  0.5119380000000 1.0
C      1  0.4797380000000  0.3969070000000  0.4626680000000 1.0
C      1  0.5103800000000  0.5076200000000  0.5030850000000 1.0
C      1  0.4204750000000  0.5234060000000  0.5413050000000 1.0
C      1  0.5273940000000  0.5501480000000  0.4111860000000 1.0
C      1  0.4756330000000  0.6127100000000  0.5024560000000 1.0
C      1  0.4599150000000  0.5067490000000  0.5006890000000 1.0
C      1  0.5425330000000  0.4598570000000  0.3793640000000 1.0
C      1  0.5492490000000  0.5913500000000  0.4258430000000 1.0
C      1  0.5080300000000  0.5503250000000  0.4367360000000 1.0
C      1  0.4601640000000  0.5225670000000  0.5284100000000 1.0
C      1  0.5039680000000  0.5780280000000  0.5395220000000 1.0
C      1  0.3995190000000  0.4524520000000  0.4322420000000 1.0
C      1  0.5194520000000  0.5891470000000  0.4927540000000 1.0
C      1  0.3865050000000  0.4841760000000  0.5280420000000 1.0
C      1  0.5527340000000  0.5651580000000  0.4151890000000 1.0
C      1  0.5215340000000  0.4835750000000  0.4197470000000 1.0
C      1  0.5422190000000  0.5945890000000  0.4521130000000 1.0
C      1  0.5789650000000  0.5719460000000  0.4911860000000 1.0
C      1  0.5306470000000  0.4636490000000  0.4425870000000 1.0
C      1  0.4660340000000  0.4195530000000  0.4471690000000 1.0
C      1  0.6124450000000  0.4886410000000  0.5120650000000 1.0
C      1  0.4477590000000  0.5506010000000  0.4519120000000 1.0
C      1  0.5134330000000  0.6066450000000  0.5137250000000 1.0
C      1  0.4392530000000  0.5472590000000  0.6036560000000 1.0
C      1  0.5579410000000  0.5010060000000  0.5172250000000 1.0
C      1  0.4102260000000  0.4660970000000  0.5161120000000 1.0
C      1  0.4818060000000  0.4790930000000  0.4644430000000 1.0
C      1  0.5753290000000  0.5503770000000  0.4198930000000 1.0
C      1  0.4836300000000  0.4789450000000  0.5899980000000 1.0
C      1  0.5932270000000  0.5414100000000  0.4957370000000 1.0
C      1  0.5864420000000  0.5092840000000  0.5046000000000 1.0
C      1  0.4391640000000  0.5471540000000  0.5257180000000 1.0
C      1  0.5753320000000  0.4199230000000  0.5160270000000 1.0
C      1  0.4999840000000  0.4563970000000  0.5358410000000 1.0
C      1  0.5010040000000  0.5247820000000  0.4780910000000 1.0
C      1  0.4321400000000  0.4993330000000  0.5947790000000 1.0
C      1  0.5290400000000  0.5138480000000  0.4277590000000 1.0
C      1  0.4243680000000  0.4161800000000  0.5086200000000 1.0
C      1  0.4452630000000  0.5978170000000  0.5371980000000 1.0
C      1  0.5591660000000  0.4727900000000  0.5040290000000 1.0
C      1  0.5022530000000  0.5028700000000  0.5745990000000 1.0
C      1  0.3942460000000  0.5224540000000  0.5196920000000 1.0
C      1  0.5456300000000  0.4667320000000  0.5530420000000 1.0
C      1  0.5609110000000  0.5344780000000  0.4877380000000 1.0
C      1  0.4723830000000  0.4159070000000  0.5583740000000 1.0
C      1  0.4202040000000  0.4855510000000  0.4248730000000 1.0
C      1  0.4563800000000  0.5321210000000  0.4796380000000 1.0
C      1  0.4148410000000  0.4294210000000  0.4844930000000 1.0
C      1  0.4861670000000  0.6042970000000  0.5336830000000 1.0
C      1  0.5050570000000  0.5249740000000  0.4063030000000 1.0
C      1  0.5010820000000  0.4562000000000  0.4557250000000 1.0
C      1  0.5542010000000  0.4068730000000  0.5304790000000 1.0
C      1  0.4545980000000  0.5942020000000  0.5113130000000 1.0
C      1  0.4887890000000  0.4381620000000  0.3862340000000 1.0
C      1  0.4854330000000  0.5741230000000  0.4291940000000 1.0
C      1  0.4548880000000  0.5257890000000  0.4171120000000 1.0
C      1  0.5261670000000  0.5572090000000  0.5027230000000 1.0
C      1  0.5468890000000  0.5047260000000  0.4790990000000 1.0
C      1  0.4239810000000  0.4831880000000  0.4755370000000 1.0
C      1  0.6026300000000  0.5335120000000  0.4633910000000 1.0
C      1  0.4603250000000  0.4911410000000  0.6115590000000 1.0
C      1  0.4869520000000  0.4386220000000  0.4356270000000 1.0
C      1  0.4731840000000  0.5801460000000  0.4603500000000 1.0
C      1  0.4803690000000  0.6095940000000  0.4736800000000 1.0
C      1  0.5301190000000  0.5222640000000  0.4606900000000 1.0
C      1  0.4295370000000  0.5624150000000  0.5770520000000 1.0
C      1  0.5984560000000  0.4420590000000  0.5145760000000 1.0
C      1  0.5237960000000  0.5454410000000  0.5512960000000 1.0
C      1  0.4591990000000  0.4327510000000  0.4889060000000 1.0
C      1  0.4743620000000  0.4374700000000  0.5356310000000 1.0
C      1  0.6133460000000  0.4597100000000  0.4989920000000 1.0
C      1  0.4532970000000  0.5652770000000  0.4224420000000 1.0
C      1  0.5534620000000  0.5725270000000  0.4687080000000 1.0
C      1  0.5847110000000  0.5608350000000  0.4618910000000 1.0
C      1  0.4513400000000  0.6049170000000  0.4559530000000 1.0
C      1  0.5434460000000  0.4452520000000  0.5272810000000 1.0
C      1  0.4194310000000  0.4490420000000  0.5570050000000 1.0
C      1  0.5059310000000  0.4570710000000  0.6042470000000 1.0
C      1  0.4515790000000  0.4431860000000  0.5191250000000 1.0
C      1  0.4419820000000  0.4511720000000  0.5732590000000 1.0
C      1  0.5304200000000  0.4463870000000  0.5954790000000 1.0
C      1  0.6100030000000  0.5042110000000  0.4472350000000 1.0
C      1  0.5755040000000  0.5044660000000  0.4661890000000 1.0
C      1  0.4442020000000  0.4654590000000  0.4115610000000 1.0
C      1  0.5552790000000  0.5747580000000  0.5717310000000 1.0
C      1  0.4540190000000  0.4715420000000  0.4825490000000 1.0
C      1  0.5423880000000  0.5636120000000  0.5313320000000 1.0
C      1  0.5241590000000  0.5756550000000  0.5647160000000 1.0
C      1  0.4081080000000  0.5575780000000  0.4506310000000 1.0
C      1  0.5192700000000  0.4055880000000  0.4158600000000 1.0
C      1  0.4268290000000  0.5383940000000  0.4952460000000 1.0
C      1  0.4329390000000  0.5793860000000  0.4457820000000 1.0
C      1  0.5035020000000  0.5988490000000  0.4307850000000 1.0
C      1  0.5653480000000  0.4399100000000  0.5600070000000 1.0
C      1  0.5722750000000  0.5532550000000  0.5731270000000 1.0
C      1  0.6048380000000  0.5527940000000  0.5256690000000 1.0
C      1  0.4962160000000  0.3953750000000  0.4839570000000 1.0
C      1  0.5084670000000  0.4852110000000  0.5285900000000 1.0
C      1  0.5726710000000  0.4406670000000  0.4420160000000 1.0
C      1  0.4890830000000  0.5011420000000  0.5450860000000 1.0
C      1  0.4723610000000  0.3975800000000  0.5339900000000 1.0
C      1  0.6050040000000  0.4972620000000  0.4800270000000 1.0
C      1  0.4483650000000  0.5227260000000  0.6073540000000 1.0
C      1  0.4274910000000  0.4624980000000  0.4487780000000 1.0
C      1  0.4434860000000  0.4731080000000  0.5149820000000 1.0
C      1  0.5849900000000  0.4676250000000  0.5584330000000 1.0
C      1  0.5760770000000  0.5271230000000  0.4431350000000 1.0
C      1  0.5733970000000  0.4946480000000  0.4068360000000 1.0
C      1  0.3921440000000  0.5076540000000  0.5508210000000 1.0
C      1  0.4773660000000  0.4577660000000  0.4112940000000 1.0
C      1  0.5006970000000  0.5657680000000  0.4652050000000 1.0
C      1  0.5593580000000  0.5138680000000  0.4206630000000 1.0
C      1  0.5384930000000  0.4721680000000  0.4806240000000 1.0
C      1  0.6085930000000  0.4575750000000  0.4715960000000 1.0
C      1  0.5934590000000  0.5511520000000  0.5528250000000 1.0
C      1  0.5503520000000  0.5921940000000  0.5361200000000 1.0
C      1  0.3846550000000  0.4798560000000  0.4707980000000 1.0
C      1  0.5367520000000  0.4932150000000  0.5411110000000 1.0
C      1  0.4226650000000  0.4332220000000  0.5339920000000 1.0
C      1  0.5279670000000  0.4221030000000  0.5790230000000 1.0
C      1  0.4209650000000  0.5165890000000  0.4697390000000 1.0
C      1  0.5297000000000  0.5517480000000  0.4702640000000 1.0
C      1  0.5368040000000  0.3883560000000  0.4610780000000 1.0
C      1  0.5244350000000  0.3932820000000  0.4861440000000 1.0
C      1  0.5749420000000  0.4581260000000  0.5272400000000 1.0
C      1  0.4966400000000  0.5336490000000  0.5668610000000 1.0
C      1  0.4855440000000  0.4904640000000  0.4962750000000 1.0
C      1  0.5449830000000  0.4670810000000  0.4044770000000 1.0
C      1  0.5392460000000  0.4300600000000  0.4778290000000 1.0
C      1  0.5831470000000  0.5059900000000  0.5692250000000 1.0
C      1  0.5081660000000  0.5766980000000  0.5899770000000 1.0
C      1  0.5793480000000  0.4803940000000  0.5891290000000 1.0
C      1  0.5336260000000  0.5243610000000  0.5124960000000 1.0
C      1  0.4242940000000  0.4165630000000  0.4350190000000 1.0
C      1  0.5811960000000  0.5245280000000  0.5410160000000 1.0
C      1  0.4687310000000  0.5900970000000  0.5591950000000 1.0
C      1  0.4065200000000  0.4764010000000  0.5544040000000 1.0
C      1  0.4550280000000  0.5175180000000  0.4489560000000 1.0
END
