TITL C-3289324-3781-187 0.00077097129403545 125000 -331.267011062637 0 0 60 (C1) n - 1
REM
REM in /nfs/bkarasulu/CARBON/AIRSS/Generating-Clusters/AIREBO/with-SteepDescent/Higher-Symm/SD-CG/HFTN-CG
REM
REM
REM
REM
REM
REM ./C.cell (b20cbc046b6831c77cfcea5457e17084)
REM
REM compiler GCC version 9.2.1 20190827 (Red Hat 9.2.1-1)
REM options -cpp -mtune=generic -march=x86-64 -g -O0 -fpre-include=/usr/include/finclude/math-vector-fortran.h
REM seed 1853665735 1394586554 -1634735896 771418137 1477397434 1046650950 1487919715 -404874170 -1640826912 735887626 1130477892 -568641401 1846322352 2072529789 629562630 1273455041 -1849272531 62204901 375288391 400236917 1843809454 -883717582 821273660 -575618655 649677591 1469836456 67996482 -1652484255 1157003554 -476978276 -1153509973 -413117415 -484174020
REM
CELL 1.54180   50.00000   50.00000   50.00000   90.00000   90.00000   90.00000
LATT -1
SFAC C  
C      1  0.4669460000000  0.4376230000000  0.4727030000000 1.0
C      1  0.4884920000000  0.4498920000000  0.4595710000000 1.0
C      1  0.5150800000000  0.4410380000000  0.4585900000000 1.0
C      1  0.5353010000000  0.4508280000000  0.4755360000000 1.0
C      1  0.5416820000000  0.4373070000000  0.4990570000000 1.0
C      1  0.5313150000000  0.4368010000000  0.5242300000000 1.0
C      1  0.5110940000000  0.4503340000000  0.5377470000000 1.0
C      1  0.4845200000000  0.4410860000000  0.5376510000000 1.0
C      1  0.4642580000000  0.4531500000000  0.5226030000000 1.0
C      1  0.4546650000000  0.4473170000000  0.4957080000000 1.0
C      1  0.4492410000000  0.4961340000000  0.5773200000000 1.0
C      1  0.4125210000000  0.4951360000000  0.5281250000000 1.0
C      1  0.4142900000000  0.4975340000000  0.4662130000000 1.0
C      1  0.4476020000000  0.4931290000000  0.4207430000000 1.0
C      1  0.5024040000000  0.4957720000000  0.4102260000000 1.0
C      1  0.5514100000000  0.4942080000000  0.4262970000000 1.0
C      1  0.5897380000000  0.4892050000000  0.4728160000000 1.0
C      1  0.5830380000000  0.4962860000000  0.5306590000000 1.0
C      1  0.5529090000000  0.4922940000000  0.5783810000000 1.0
C      1  0.4994240000000  0.4956390000000  0.5901700000000 1.0
C      1  0.4758500000000  0.5440440000000  0.4712560000000 1.0
C      1  0.5036640000000  0.5465660000000  0.4542750000000 1.0
C      1  0.5345600000000  0.5365190000000  0.4639760000000 1.0
C      1  0.5540320000000  0.5556000000000  0.4818190000000 1.0
C      1  0.5537580000000  0.5471130000000  0.5143470000000 1.0
C      1  0.5249160000000  0.5456990000000  0.5293680000000 1.0
C      1  0.4967420000000  0.5470120000000  0.5459350000000 1.0
C      1  0.4654620000000  0.5364650000000  0.5374600000000 1.0
C      1  0.4452890000000  0.5540510000000  0.5180280000000 1.0
C      1  0.4473870000000  0.5442230000000  0.4866380000000 1.0
C      1  0.4389480000000  0.4968670000000  0.5475950000000 1.0
C      1  0.4213670000000  0.4977670000000  0.4966970000000 1.0
C      1  0.4410100000000  0.5054630000000  0.4506850000000 1.0
C      1  0.4786590000000  0.4980270000000  0.4311140000000 1.0
C      1  0.5261780000000  0.5042070000000  0.4218720000000 1.0
C      1  0.5613510000000  0.4953920000000  0.4564170000000 1.0
C      1  0.5784280000000  0.5031430000000  0.4996790000000 1.0
C      1  0.5582190000000  0.5058410000000  0.5489070000000 1.0
C      1  0.5220500000000  0.4983700000000  0.5679560000000 1.0
C      1  0.4749130000000  0.5052300000000  0.5809100000000 1.0
C      1  0.4343100000000  0.5273800000000  0.5373070000000 1.0
C      1  0.4261830000000  0.5273770000000  0.5058350000000 1.0
C      1  0.4472960000000  0.5365140000000  0.4538920000000 1.0
C      1  0.4781210000000  0.5263270000000  0.4425180000000 1.0
C      1  0.5166710000000  0.5169280000000  0.4472730000000 1.0
C      1  0.5650990000000  0.5268610000000  0.4649450000000 1.0
C      1  0.5770050000000  0.5337390000000  0.4953840000000 1.0
C      1  0.5534080000000  0.5376300000000  0.5466980000000 1.0
C      1  0.5227640000000  0.5270070000000  0.5575310000000 1.0
C      1  0.4838860000000  0.5183240000000  0.5555270000000 1.0
C      1  0.4596470000000  0.4894860000000  0.4701370000000 1.0
C      1  0.4858210000000  0.4795360000000  0.4572190000000 1.0
C      1  0.5116340000000  0.4935730000000  0.4658540000000 1.0
C      1  0.5384840000000  0.4810360000000  0.4756090000000 1.0
C      1  0.5492360000000  0.4908290000000  0.5032940000000 1.0
C      1  0.5402350000000  0.4908280000000  0.5276500000000 1.0
C      1  0.5144290000000  0.4799570000000  0.5415610000000 1.0
C      1  0.4879700000000  0.4950340000000  0.5361790000000 1.0
C      1  0.4607600000000  0.4835770000000  0.5288800000000 1.0
C      1  0.4483280000000  0.4797470000000  0.4974280000000 1.0
END
