TITL C-3289322-3858-573 0.000597254226712267 125000 -725.252153121969 0 0 136 (C1) n - 1
REM
REM in /nfs/bkarasulu/CARBON/AIRSS/Generating-Clusters/AIREBO/with-SteepDescent/Higher-Symm/SD-CG/HFTN-CG
REM
REM
REM
REM
REM
REM ./C.cell (b20cbc046b6831c77cfcea5457e17084)
REM
REM compiler GCC version 9.2.1 20190827 (Red Hat 9.2.1-1)
REM options -cpp -mtune=generic -march=x86-64 -g -O0 -fpre-include=/usr/include/finclude/math-vector-fortran.h
REM seed -44213838 1710637970 10905801 -590934220 887518433 1687309753 -2101434020 -471967447 -237227974 783774879 1713195387 -17797234 804790204 1217729972 1085411006 1608845263 -636273092 -1900843032 -1931113456 222793564 -59783553 26873030 612335479 -1015241814 557122379 -937791673 934236884 1828891357 328575606 256894278 -113452967 -751841204 1854772639
REM
CELL 1.54180   50.00000   50.00000   50.00000   90.00000   90.00000   90.00000
LATT -1
SFAC C  
C      1  0.5972800000000  0.5034890000000  0.4757180000000 1.0
C      1  0.6020720000000  0.5015210000000  0.5154850000000 1.0
C      1  0.4522770000000  0.4911580000000  0.5639130000000 1.0
C      1  0.4469640000000  0.4922880000000  0.4281330000000 1.0
C      1  0.5568660000000  0.5046560000000  0.4700460000000 1.0
C      1  0.5675960000000  0.4932330000000  0.5358540000000 1.0
C      1  0.5682230000000  0.5660990000000  0.5255640000000 1.0
C      1  0.5702450000000  0.5709900000000  0.4762030000000 1.0
C      1  0.5316870000000  0.4903810000000  0.4627150000000 1.0
C      1  0.5362730000000  0.4985830000000  0.5336570000000 1.0
C      1  0.5086720000000  0.4369160000000  0.4397380000000 1.0
C      1  0.5137180000000  0.4221180000000  0.5697440000000 1.0
C      1  0.5594770000000  0.5541020000000  0.4332230000000 1.0
C      1  0.5532400000000  0.5421190000000  0.5650370000000 1.0
C      1  0.4596440000000  0.5835660000000  0.5250980000000 1.0
C      1  0.4557170000000  0.6042550000000  0.4808970000000 1.0
C      1  0.4899550000000  0.5314290000000  0.5423490000000 1.0
C      1  0.4907530000000  0.5353110000000  0.4650530000000 1.0
C      1  0.5479340000000  0.4590460000000  0.5425250000000 1.0
C      1  0.5398780000000  0.4592450000000  0.4545650000000 1.0
C      1  0.5262970000000  0.5706140000000  0.4579590000000 1.0
C      1  0.5240740000000  0.5741880000000  0.5433250000000 1.0
C      1  0.5056830000000  0.4875240000000  0.5905240000000 1.0
C      1  0.5025950000000  0.4897050000000  0.4061580000000 1.0
C      1  0.5299940000000  0.4417220000000  0.5903180000000 1.0
C      1  0.5222300000000  0.4569420000000  0.4187950000000 1.0
C      1  0.5319140000000  0.4875920000000  0.4232950000000 1.0
C      1  0.5338880000000  0.4686920000000  0.5881060000000 1.0
C      1  0.4794000000000  0.4213390000000  0.4472910000000 1.0
C      1  0.4969290000000  0.4038650000000  0.5819070000000 1.0
C      1  0.4647940000000  0.4011400000000  0.5205310000000 1.0
C      1  0.4603430000000  0.3978110000000  0.4903600000000 1.0
C      1  0.5618500000000  0.4807350000000  0.4384340000000 1.0
C      1  0.5532920000000  0.4754180000000  0.5686760000000 1.0
C      1  0.4543980000000  0.4437090000000  0.4528210000000 1.0
C      1  0.4532920000000  0.4512810000000  0.5616980000000 1.0
C      1  0.5326630000000  0.5436150000000  0.4272120000000 1.0
C      1  0.5197170000000  0.5478970000000  0.5736680000000 1.0
C      1  0.5076570000000  0.5567220000000  0.4234470000000 1.0
C      1  0.4876300000000  0.5557210000000  0.5654970000000 1.0
C      1  0.4284580000000  0.4566940000000  0.4684840000000 1.0
C      1  0.4145760000000  0.4635710000000  0.5347940000000 1.0
C      1  0.4529180000000  0.4915510000000  0.5298320000000 1.0
C      1  0.4507110000000  0.4950810000000  0.4602420000000 1.0
C      1  0.5811550000000  0.5380830000000  0.4459100000000 1.0
C      1  0.5751950000000  0.5236280000000  0.5490650000000 1.0
C      1  0.4964570000000  0.4595750000000  0.5780310000000 1.0
C      1  0.4856190000000  0.4711140000000  0.4257490000000 1.0
C      1  0.5130620000000  0.5153070000000  0.5807100000000 1.0
C      1  0.5068960000000  0.4882930000000  0.3761740000000 1.0
C      1  0.4251810000000  0.5050510000000  0.4783310000000 1.0
C      1  0.4105550000000  0.5161430000000  0.5143840000000 1.0
C      1  0.4823130000000  0.5393050000000  0.4224960000000 1.0
C      1  0.4762760000000  0.5344400000000  0.5895360000000 1.0
C      1  0.4728630000000  0.4460100000000  0.4247160000000 1.0
C      1  0.4721950000000  0.4483360000000  0.5820910000000 1.0
C      1  0.4964550000000  0.4101500000000  0.5202960000000 1.0
C      1  0.4880980000000  0.4093380000000  0.4782440000000 1.0
C      1  0.5787250000000  0.4427730000000  0.5229090000000 1.0
C      1  0.5779790000000  0.4640910000000  0.4633340000000 1.0
C      1  0.5281190000000  0.5240970000000  0.5508700000000 1.0
C      1  0.5310260000000  0.5161430000000  0.4418500000000 1.0
C      1  0.4745740000000  0.5607760000000  0.4764800000000 1.0
C      1  0.4713170000000  0.5495430000000  0.5076290000000 1.0
C      1  0.5804230000000  0.5075310000000  0.4481110000000 1.0
C      1  0.5762920000000  0.4952110000000  0.5678640000000 1.0
C      1  0.5121450000000  0.4520490000000  0.4695450000000 1.0
C      1  0.5167020000000  0.4521530000000  0.5540650000000 1.0
C      1  0.4802190000000  0.4562740000000  0.4663630000000 1.0
C      1  0.4661890000000  0.4545770000000  0.5368610000000 1.0
C      1  0.5845990000000  0.5431160000000  0.5261950000000 1.0
C      1  0.5873900000000  0.5493090000000  0.4724720000000 1.0
C      1  0.5047040000000  0.5838360000000  0.4362290000000 1.0
C      1  0.5001210000000  0.5872110000000  0.5625450000000 1.0
C      1  0.4605670000000  0.5234490000000  0.4753250000000 1.0
C      1  0.4664480000000  0.5216340000000  0.5215350000000 1.0
C      1  0.4831800000000  0.4861630000000  0.4556620000000 1.0
C      1  0.4842570000000  0.4797070000000  0.5356450000000 1.0
C      1  0.4757470000000  0.5031280000000  0.5861000000000 1.0
C      1  0.4739370000000  0.5071070000000  0.4135520000000 1.0
C      1  0.5496380000000  0.4270750000000  0.5315070000000 1.0
C      1  0.5618280000000  0.4378280000000  0.4692540000000 1.0
C      1  0.4816490000000  0.5046280000000  0.5542440000000 1.0
C      1  0.4891950000000  0.5134460000000  0.4423660000000 1.0
C      1  0.5157320000000  0.5475180000000  0.5295560000000 1.0
C      1  0.5214500000000  0.5390020000000  0.4652700000000 1.0
C      1  0.4156940000000  0.5315240000000  0.5373090000000 1.0
C      1  0.4267640000000  0.5296110000000  0.4548530000000 1.0
C      1  0.5529660000000  0.5692080000000  0.5490660000000 1.0
C      1  0.5554290000000  0.5755140000000  0.4530260000000 1.0
C      1  0.4274010000000  0.4702080000000  0.4401560000000 1.0
C      1  0.4287800000000  0.4679640000000  0.5574820000000 1.0
C      1  0.5220720000000  0.4143840000000  0.5395520000000 1.0
C      1  0.5162040000000  0.4114570000000  0.4592220000000 1.0
C      1  0.4535830000000  0.5801910000000  0.4660500000000 1.0
C      1  0.4601690000000  0.5708870000000  0.5517560000000 1.0
C      1  0.5861410000000  0.4721420000000  0.5170260000000 1.0
C      1  0.5907750000000  0.4773790000000  0.4844000000000 1.0
C      1  0.4567440000000  0.5363290000000  0.4440570000000 1.0
C      1  0.4441550000000  0.5262710000000  0.5467860000000 1.0
C      1  0.5072830000000  0.5966590000000  0.4671920000000 1.0
C      1  0.5070290000000  0.6012240000000  0.5338130000000 1.0
C      1  0.4373100000000  0.5618370000000  0.4513660000000 1.0
C      1  0.4362290000000  0.5547410000000  0.5539540000000 1.0
C      1  0.4442580000000  0.4195610000000  0.5312460000000 1.0
C      1  0.4399760000000  0.4178090000000  0.4917780000000 1.0
C      1  0.5138830000000  0.4763770000000  0.5312040000000 1.0
C      1  0.5067680000000  0.4906640000000  0.4774060000000 1.0
C      1  0.4506520000000  0.4448620000000  0.5094130000000 1.0
C      1  0.5371930000000  0.5987870000000  0.5012630000000 1.0
C      1  0.4160540000000  0.4255170000000  0.5127470000000 1.0
C      1  0.4707030000000  0.6026790000000  0.5055150000000 1.0
C      1  0.5629190000000  0.4241010000000  0.5003440000000 1.0
C      1  0.5269690000000  0.5485820000000  0.4974730000000 1.0
C      1  0.4428870000000  0.5653740000000  0.5066020000000 1.0
C      1  0.5582600000000  0.5166780000000  0.4929490000000 1.0
C      1  0.5878140000000  0.5271350000000  0.4982460000000 1.0
C      1  0.5036130000000  0.5147160000000  0.4968140000000 1.0
C      1  0.5236700000000  0.4310290000000  0.5013870000000 1.0
C      1  0.5381080000000  0.4169680000000  0.4780880000000 1.0
C      1  0.5032040000000  0.5978780000000  0.5009390000000 1.0
C      1  0.4983780000000  0.5660680000000  0.4987000000000 1.0
C      1  0.5127960000000  0.4689310000000  0.4990520000000 1.0
C      1  0.4733310000000  0.4655180000000  0.4956090000000 1.0
C      1  0.5402630000000  0.4568690000000  0.5094720000000 1.0
C      1  0.3805810000000  0.5386530000000  0.4762740000000 1.0
C      1  0.3894010000000  0.4619450000000  0.4944100000000 1.0
C      1  0.4359500000000  0.5404440000000  0.4917550000000 1.0
C      1  0.4202320000000  0.4579860000000  0.5017110000000 1.0
C      1  0.4038970000000  0.5301600000000  0.4869510000000 1.0
C      1  0.5054990000000  0.3868250000000  0.4972700000000 1.0
C      1  0.4730540000000  0.4997760000000  0.4963320000000 1.0
C      1  0.4289060000000  0.4901390000000  0.5086110000000 1.0
C      1  0.4901050000000  0.4360560000000  0.4991930000000 1.0
C      1  0.5524370000000  0.5710180000000  0.5003750000000 1.0
C      1  0.5329080000000  0.5173870000000  0.5096370000000 1.0
END
