TITL C-3289329-2751-38 -0.00074389664772435 125000 -439.217981122657 0 0 84 (C1) n - 1
REM
REM in /nfs/bkarasulu/CARBON/AIRSS/Generating-Clusters/AIREBO/with-SteepDescent/Higher-Symm/SD-CG/HFTN-CG
REM
REM
REM
REM
REM
REM ./C.cell (b20cbc046b6831c77cfcea5457e17084)
REM
REM compiler GCC version 9.2.1 20190827 (Red Hat 9.2.1-1)
REM options -cpp -mtune=generic -march=x86-64 -g -O0 -fpre-include=/usr/include/finclude/math-vector-fortran.h
REM seed -1036586204 -1440367609 -1976082402 -1586668347 1211555899 364454031 629454975 -1504110404 -1333531394 -948884826 -1339893823 -2059087527 2133563731 1813028438 930018956 15828472 -1703349573 1240656621 -1034606832 -1862956780 1044163655 -1185706118 1566932445 126379038 1982022729 863801052 -2090739867 -1491808415 -1585509613 1276534213 964049408 -778225889 1666688984
REM
CELL 1.54180   50.00000   50.00000   50.00000   90.00000   90.00000   90.00000
LATT -1
SFAC C  
C      1  0.5186000000000  0.5343660000000  0.5272390000000 1.0
C      1  0.5301660000000  0.4956750000000  0.5266450000000 1.0
C      1  0.5178810000000  0.4649940000000  0.5043410000000 1.0
C      1  0.5282760000000  0.4784170000000  0.4685900000000 1.0
C      1  0.5261990000000  0.5272900000000  0.4848800000000 1.0
C      1  0.5747080000000  0.5133870000000  0.5171400000000 1.0
C      1  0.5766080000000  0.4841920000000  0.5132590000000 1.0
C      1  0.5783610000000  0.4808340000000  0.4844190000000 1.0
C      1  0.5802790000000  0.5068490000000  0.4720520000000 1.0
C      1  0.5761960000000  0.5261760000000  0.4924360000000 1.0
C      1  0.5515730000000  0.5307280000000  0.4422210000000 1.0
C      1  0.5497510000000  0.5640150000000  0.5115010000000 1.0
C      1  0.5481330000000  0.5095440000000  0.5650600000000 1.0
C      1  0.5446280000000  0.4365360000000  0.5377250000000 1.0
C      1  0.5452690000000  0.4493190000000  0.4378210000000 1.0
C      1  0.4850180000000  0.4459260000000  0.5164100000000 1.0
C      1  0.4731820000000  0.4799360000000  0.4472820000000 1.0
C      1  0.4759560000000  0.5438040000000  0.4640460000000 1.0
C      1  0.4802890000000  0.5459930000000  0.5219520000000 1.0
C      1  0.4856830000000  0.4999810000000  0.5648170000000 1.0
C      1  0.4573650000000  0.5076470000000  0.5487400000000 1.0
C      1  0.4548270000000  0.4367440000000  0.5290710000000 1.0
C      1  0.4501240000000  0.4612820000000  0.4641360000000 1.0
C      1  0.4548850000000  0.5341060000000  0.4413640000000 1.0
C      1  0.4543560000000  0.5589040000000  0.5041510000000 1.0
C      1  0.5136550000000  0.5012650000000  0.4494260000000 1.0
C      1  0.5049470000000  0.5704790000000  0.4872140000000 1.0
C      1  0.5062740000000  0.5333010000000  0.5573250000000 1.0
C      1  0.5020760000000  0.4483370000000  0.5592640000000 1.0
C      1  0.5078250000000  0.4456070000000  0.4782760000000 1.0
C      1  0.5532410000000  0.5450280000000  0.4880440000000 1.0
C      1  0.5495080000000  0.5224140000000  0.5348830000000 1.0
C      1  0.5572300000000  0.4785160000000  0.5346420000000 1.0
C      1  0.5588040000000  0.4635320000000  0.4668110000000 1.0
C      1  0.5672790000000  0.5079360000000  0.4468640000000 1.0
C      1  0.5206070000000  0.4256010000000  0.4994010000000 1.0
C      1  0.5175480000000  0.4770220000000  0.4300930000000 1.0
C      1  0.5190230000000  0.5664150000000  0.4634340000000 1.0
C      1  0.5194300000000  0.5644220000000  0.5535150000000 1.0
C      1  0.5138790000000  0.4707220000000  0.5736080000000 1.0
C      1  0.5634560000000  0.4341010000000  0.4804230000000 1.0
C      1  0.5621670000000  0.4788170000000  0.4366110000000 1.0
C      1  0.5570170000000  0.5548850000000  0.4590960000000 1.0
C      1  0.5598820000000  0.5538920000000  0.5380520000000 1.0
C      1  0.5595170000000  0.4826500000000  0.5637590000000 1.0
C      1  0.5430710000000  0.5805220000000  0.4527110000000 1.0
C      1  0.5463910000000  0.5668140000000  0.5595490000000 1.0
C      1  0.5426960000000  0.4659050000000  0.5799640000000 1.0
C      1  0.5455020000000  0.4174440000000  0.4924080000000 1.0
C      1  0.5399750000000  0.4791010000000  0.4121980000000 1.0
C      1  0.4703290000000  0.5251410000000  0.5821140000000 1.0
C      1  0.4863430000000  0.4132260000000  0.5277880000000 1.0
C      1  0.4823840000000  0.4481550000000  0.4448920000000 1.0
C      1  0.4931910000000  0.5300050000000  0.4309280000000 1.0
C      1  0.4848800000000  0.5778250000000  0.5244860000000 1.0
C      1  0.4374990000000  0.5171610000000  0.5253320000000 1.0
C      1  0.4534580000000  0.4690880000000  0.5238820000000 1.0
C      1  0.4396110000000  0.4726710000000  0.4944020000000 1.0
C      1  0.4534960000000  0.5112290000000  0.4664830000000 1.0
C      1  0.4343850000000  0.5396440000000  0.4870840000000 1.0
C      1  0.5192890000000  0.5342760000000  0.4523200000000 1.0
C      1  0.5167390000000  0.5672900000000  0.5189520000000 1.0
C      1  0.5173030000000  0.5046780000000  0.5723690000000 1.0
C      1  0.5162850000000  0.4416300000000  0.5290780000000 1.0
C      1  0.5135440000000  0.4484100000000  0.4448620000000 1.0
C      1  0.4290580000000  0.4431760000000  0.5076420000000 1.0
C      1  0.4356320000000  0.4888580000000  0.4573610000000 1.0
C      1  0.4306880000000  0.5451520000000  0.4600510000000 1.0
C      1  0.4348240000000  0.5452220000000  0.5265350000000 1.0
C      1  0.4392830000000  0.4826410000000  0.5452950000000 1.0
C      1  0.4987500000000  0.5238720000000  0.5038990000000 1.0
C      1  0.5019240000000  0.4928510000000  0.5377730000000 1.0
C      1  0.4833070000000  0.4786330000000  0.5190280000000 1.0
C      1  0.4946110000000  0.4748460000000  0.4719950000000 1.0
C      1  0.4876430000000  0.5137010000000  0.4670040000000 1.0
C      1  0.4589370000000  0.4313090000000  0.4522730000000 1.0
C      1  0.4717030000000  0.5066100000000  0.4312150000000 1.0
C      1  0.4790500000000  0.5615280000000  0.4851140000000 1.0
C      1  0.4739870000000  0.5354580000000  0.5510510000000 1.0
C      1  0.4785700000000  0.4313950000000  0.5528250000000 1.0
C      1  0.4858230000000  0.4951810000000  0.4949310000000 1.0
C      1  0.4033340000000  0.5037050000000  0.4870470000000 1.0
C      1  0.5272040000000  0.4964990000000  0.4955660000000 1.0
C      1  0.4330950000000  0.5062180000000  0.4932440000000 1.0
END
