TITL C-3289320-4661-715 1.03563716816184e-07 125000 -16.7098088457084 0 0 5 (C2v) n - 1
REM
REM in /nfs/bkarasulu/CARBON/AIRSS/Generating-Clusters/AIREBO/with-SteepDescent/Higher-Symm/SD-CG/HFTN-CG
REM
REM
REM
REM
REM
REM ./C.cell (b20cbc046b6831c77cfcea5457e17084)
REM
REM compiler GCC version 9.2.1 20190827 (Red Hat 9.2.1-1)
REM options -cpp -mtune=generic -march=x86-64 -g -O0 -fpre-include=/usr/include/finclude/math-vector-fortran.h
REM seed -810906958 -957147852 -2086563318 -1634808427 -1703434095 344526813 -355433916 -1176614288 -1002723972 -1058501271 -1561171782 -911150097 224544284 1101456690 205624671 683640363 -1856612673 1185458511 -1378186852 -260974984 1221499061 1470963178 -466300378 1280725351 -382742586 264730754 876884160 -1484235486 416635619 -1182633921 2127617470 -1681891638 -664145588
REM
CELL 1.54180   50.00000   50.00000   50.00000   90.00000   90.00000   90.00000
LATT -1
SFAC C  
C      1  0.4800310000000  0.5256490000000  0.4974550000000 1.0
C      1  0.5198110000000  0.4816030000000  0.4974550000000 1.0
C      1  0.5198110000000  0.5214920000000  0.4974550000000 1.0
C      1  0.4800310000000  0.4774450000000  0.4974550000000 1.0
C      1  0.4966440000000  0.5015470000000  0.4974550000000 1.0
END
