TITL C-3289323-3850-779 -96.3536622856849 125000 -397.244387542086 0 0 72 (C1) n - 1
REM
REM in /nfs/bkarasulu/CARBON/AIRSS/Generating-Clusters/AIREBO/with-SteepDescent/Higher-Symm/SD-CG/HFTN-CG
REM
REM
REM
REM
REM
REM ./C.cell (b20cbc046b6831c77cfcea5457e17084)
REM
REM compiler GCC version 9.2.1 20190827 (Red Hat 9.2.1-1)
REM options -cpp -mtune=generic -march=x86-64 -g -O0 -fpre-include=/usr/include/finclude/math-vector-fortran.h
REM seed -535156512 1963410522 1167199343 -1385243164 2054597665 547633867 -1905954217 -374554421 1344990005 -1468234421 171646749 1714325214 -246333904 1626041321 814731736 1124827621 -757973775 -1495781797 -1277800139 -853016470 1720738913 -316244610 -2021005184 1652987636 -1419096470 1179273150 285105211 440737022 473750039 -1774873291 558137462 -447675156 -1726874169
REM
CELL 1.54180   50.00000   50.00000   50.00000   90.00000   90.00000   90.00000
LATT -1
SFAC C  
C      1  0.5193300000000  0.4404580000000  0.4261000000000 1.0
C      1  0.4366150000000  0.5131580000000  0.4591210000000 1.0
C      1  0.4475810000000  0.4288620000000  0.5202880000000 1.0
C      1  0.4860860000000  0.4554920000000  0.5644820000000 1.0
C      1  0.5204400000000  0.5613020000000  0.5681580000000 1.0
C      1  0.4826160000000  0.5484450000000  0.4273730000000 1.0
C      1  0.5570600000000  0.5210060000000  0.5362320000000 1.0
C      1  0.4371480000000  0.4881720000000  0.5497770000000 1.0
C      1  0.5691960000000  0.4890640000000  0.4415110000000 1.0
C      1  0.5510530000000  0.4323900000000  0.4793600000000 1.0
C      1  0.4553150000000  0.5681210000000  0.4873620000000 1.0
C      1  0.5459880000000  0.5694610000000  0.5124230000000 1.0
C      1  0.5143470000000  0.5589430000000  0.4289350000000 1.0
C      1  0.4347780000000  0.4811810000000  0.4519510000000 1.0
C      1  0.4490790000000  0.5734850000000  0.5185320000000 1.0
C      1  0.4884920000000  0.5536530000000  0.5684040000000 1.0
C      1  0.5170130000000  0.4458000000000  0.5686350000000 1.0
C      1  0.4872160000000  0.4484740000000  0.4292590000000 1.0
C      1  0.5635520000000  0.4729490000000  0.5565680000000 1.0
C      1  0.4321980000000  0.5194320000000  0.5565730000000 1.0
C      1  0.5642500000000  0.5191790000000  0.4562640000000 1.0
C      1  0.5534790000000  0.5679670000000  0.4813900000000 1.0
C      1  0.4541150000000  0.4298960000000  0.4883000000000 1.0
C      1  0.5443290000000  0.4283970000000  0.5110060000000 1.0
C      1  0.5085540000000  0.5789800000000  0.5453550000000 1.0
C      1  0.5414460000000  0.5148990000000  0.5589900000000 1.0
C      1  0.5606870000000  0.5457980000000  0.5237630000000 1.0
C      1  0.4820580000000  0.5689960000000  0.4497500000000 1.0
C      1  0.5232780000000  0.4193990000000  0.4482150000000 1.0
C      1  0.4746050000000  0.4328030000000  0.5483440000000 1.0
C      1  0.4567510000000  0.5212020000000  0.4375680000000 1.0
C      1  0.5410680000000  0.4868440000000  0.4282510000000 1.0
C      1  0.4563620000000  0.4801160000000  0.5720670000000 1.0
C      1  0.4340660000000  0.5471540000000  0.4812030000000 1.0
C      1  0.5675340000000  0.4582720000000  0.4813560000000 1.0
C      1  0.4320390000000  0.4535490000000  0.5113980000000 1.0
C      1  0.5069220000000  0.4273820000000  0.5457510000000 1.0
C      1  0.5423810000000  0.4881010000000  0.5676390000000 1.0
C      1  0.5623410000000  0.4533550000000  0.5111590000000 1.0
C      1  0.4919910000000  0.4294060000000  0.4526590000000 1.0
C      1  0.5124710000000  0.5783740000000  0.4527040000000 1.0
C      1  0.4766450000000  0.5740020000000  0.5494040000000 1.0
C      1  0.4585700000000  0.4900830000000  0.4354050000000 1.0
C      1  0.5396240000000  0.5154570000000  0.4379180000000 1.0
C      1  0.4576940000000  0.5126160000000  0.5732790000000 1.0
C      1  0.4341740000000  0.4506780000000  0.4790760000000 1.0
C      1  0.5657970000000  0.5413610000000  0.4926220000000 1.0
C      1  0.4330870000000  0.5479800000000  0.5133820000000 1.0
C      1  0.5653960000000  0.5003950000000  0.5185930000000 1.0
C      1  0.5143900000000  0.5730670000000  0.5148830000000 1.0
C      1  0.5207740000000  0.5307230000000  0.5683690000000 1.0
C      1  0.4280090000000  0.5157320000000  0.4907080000000 1.0
C      1  0.5715430000000  0.4829880000000  0.4708520000000 1.0
C      1  0.4334720000000  0.4846720000000  0.5179700000000 1.0
C      1  0.4869850000000  0.5746230000000  0.4829240000000 1.0
C      1  0.5189080000000  0.4227430000000  0.4809490000000 1.0
C      1  0.4799230000000  0.4216140000000  0.5172350000000 1.0
C      1  0.4881210000000  0.5147550000000  0.4256360000000 1.0
C      1  0.5195510000000  0.4709870000000  0.4255410000000 1.0
C      1  0.4889410000000  0.4881320000000  0.5734730000000 1.0
C      1  0.5666830000000  0.4745080000000  0.5285840000000 1.0
C      1  0.5131830000000  0.4266990000000  0.5143220000000 1.0
C      1  0.5189880000000  0.4754000000000  0.5743610000000 1.0
C      1  0.4357330000000  0.4831010000000  0.4850270000000 1.0
C      1  0.5634080000000  0.5088860000000  0.4886480000000 1.0
C      1  0.4316470000000  0.5182690000000  0.5245230000000 1.0
C      1  0.4859200000000  0.4279990000000  0.4844530000000 1.0
C      1  0.5210980000000  0.5697340000000  0.4816780000000 1.0
C      1  0.4820250000000  0.5716780000000  0.5165310000000 1.0
C      1  0.4880000000000  0.4809100000000  0.4290650000000 1.0
C      1  0.5170900000000  0.5290980000000  0.4311270000000 1.0
C      1  0.4887860000000  0.5211940000000  0.5692850000000 1.0
END
