TITL C-3289328-6581-703 0.000426279178665308 125000 -601.018906156083 0 0 117 (C1) n - 1
REM
REM in /nfs/bkarasulu/CARBON/AIRSS/Generating-Clusters/AIREBO/with-SteepDescent/Higher-Symm/SD-CG/HFTN-CG
REM
REM
REM
REM
REM
REM ./C.cell (b20cbc046b6831c77cfcea5457e17084)
REM
REM compiler GCC version 9.2.1 20190827 (Red Hat 9.2.1-1)
REM options -cpp -mtune=generic -march=x86-64 -g -O0 -fpre-include=/usr/include/finclude/math-vector-fortran.h
REM seed -1637908374 224912906 -966581534 1698729399 2081292913 -1962647989 1586626960 1715270787 331522087 -361089059 -1160156893 -663225343 -1733283207 1716128152 599800560 -557175761 -357235341 -1350544132 1800825606 -1293997966 1134902492 234524958 -1402204236 -1190148444 -876307516 769189833 -1224734207 1852536666 -655927841 -667647488 -1965667149 -490561149 899822111
REM
CELL 1.54180   50.00000   50.00000   50.00000   90.00000   90.00000   90.00000
LATT -1
SFAC C  
C      1  0.4171030000000  0.5167930000000  0.5061230000000 1.0
C      1  0.4127750000000  0.4773540000000  0.5045020000000 1.0
C      1  0.5844630000000  0.5233950000000  0.4975710000000 1.0
C      1  0.5896950000000  0.4760400000000  0.4963460000000 1.0
C      1  0.4096020000000  0.4950370000000  0.5289890000000 1.0
C      1  0.4149380000000  0.4974380000000  0.4818610000000 1.0
C      1  0.5902480000000  0.4991970000000  0.5174990000000 1.0
C      1  0.5852090000000  0.5001370000000  0.4781330000000 1.0
C      1  0.5454660000000  0.4810540000000  0.4239870000000 1.0
C      1  0.5366830000000  0.5163250000000  0.5657320000000 1.0
C      1  0.4554340000000  0.4869280000000  0.5636110000000 1.0
C      1  0.4526380000000  0.5037140000000  0.4187690000000 1.0
C      1  0.5429290000000  0.4341520000000  0.4779590000000 1.0
C      1  0.5489030000000  0.5742120000000  0.5216070000000 1.0
C      1  0.4473700000000  0.5575170000000  0.4782710000000 1.0
C      1  0.4599270000000  0.4323840000000  0.5219450000000 1.0
C      1  0.5180730000000  0.5101300000000  0.4253680000000 1.0
C      1  0.5151780000000  0.4975670000000  0.5810180000000 1.0
C      1  0.4874570000000  0.5149360000000  0.5777500000000 1.0
C      1  0.4845510000000  0.5045950000000  0.4237150000000 1.0
C      1  0.5165460000000  0.4151220000000  0.5041720000000 1.0
C      1  0.5141700000000  0.5796170000000  0.4929020000000 1.0
C      1  0.4839680000000  0.5760250000000  0.5070470000000 1.0
C      1  0.4859110000000  0.4207630000000  0.5033440000000 1.0
C      1  0.5658820000000  0.5599810000000  0.5401430000000 1.0
C      1  0.5546790000000  0.4563230000000  0.4635740000000 1.0
C      1  0.4430440000000  0.5397090000000  0.4496290000000 1.0
C      1  0.4363280000000  0.4442770000000  0.5395300000000 1.0
C      1  0.5571450000000  0.5359770000000  0.5486340000000 1.0
C      1  0.5616460000000  0.4625550000000  0.4366390000000 1.0
C      1  0.4370650000000  0.4583870000000  0.5661850000000 1.0
C      1  0.4394410000000  0.5280420000000  0.4260260000000 1.0
C      1  0.4084220000000  0.5326010000000  0.5417840000000 1.0
C      1  0.4035740000000  0.4655590000000  0.4607180000000 1.0
C      1  0.5923020000000  0.5292660000000  0.4518860000000 1.0
C      1  0.5936740000000  0.4679720000000  0.5422100000000 1.0
C      1  0.4124030000000  0.5521200000000  0.5241120000000 1.0
C      1  0.4065710000000  0.4477870000000  0.4784000000000 1.0
C      1  0.5907750000000  0.4490160000000  0.5256860000000 1.0
C      1  0.5894810000000  0.5490560000000  0.4675190000000 1.0
C      1  0.4484490000000  0.4250860000000  0.4906480000000 1.0
C      1  0.4443610000000  0.5716820000000  0.5090950000000 1.0
C      1  0.5473750000000  0.4276740000000  0.5111280000000 1.0
C      1  0.5576220000000  0.5795220000000  0.4907530000000 1.0
C      1  0.4402020000000  0.4794890000000  0.4275420000000 1.0
C      1  0.4479100000000  0.5196440000000  0.5703360000000 1.0
C      1  0.5522010000000  0.5144700000000  0.4239700000000 1.0
C      1  0.5530160000000  0.4864610000000  0.5678210000000 1.0
C      1  0.5124300000000  0.4286380000000  0.4667800000000 1.0
C      1  0.5181440000000  0.5705470000000  0.5357430000000 1.0
C      1  0.4821680000000  0.4404610000000  0.5462670000000 1.0
C      1  0.4768000000000  0.5587060000000  0.4612800000000 1.0
C      1  0.5148760000000  0.4704920000000  0.4257890000000 1.0
C      1  0.5183920000000  0.5439520000000  0.5578650000000 1.0
C      1  0.4915080000000  0.5398890000000  0.4409740000000 1.0
C      1  0.4806960000000  0.4646970000000  0.5686110000000 1.0
C      1  0.5351450000000  0.4368870000000  0.5419510000000 1.0
C      1  0.5516490000000  0.5705420000000  0.4584370000000 1.0
C      1  0.4610210000000  0.4345610000000  0.4610800000000 1.0
C      1  0.4564370000000  0.5669600000000  0.5410910000000 1.0
C      1  0.5450180000000  0.5452850000000  0.4364770000000 1.0
C      1  0.5440020000000  0.4579930000000  0.5669490000000 1.0
C      1  0.4622170000000  0.4560770000000  0.4358010000000 1.0
C      1  0.4589340000000  0.5492880000000  0.5700680000000 1.0
C      1  0.5458920000000  0.5114560000000  0.4774480000000 1.0
C      1  0.5399080000000  0.4839600000000  0.5303360000000 1.0
C      1  0.4625310000000  0.5050280000000  0.5240820000000 1.0
C      1  0.4553970000000  0.4913890000000  0.4754260000000 1.0
C      1  0.5355360000000  0.4648430000000  0.5025170000000 1.0
C      1  0.5290640000000  0.5241190000000  0.5036020000000 1.0
C      1  0.4775690000000  0.5207290000000  0.4979150000000 1.0
C      1  0.4611320000000  0.4688220000000  0.5004470000000 1.0
C      1  0.4344850000000  0.5126100000000  0.5417730000000 1.0
C      1  0.4288180000000  0.4847840000000  0.4552680000000 1.0
C      1  0.5674040000000  0.5079640000000  0.4516180000000 1.0
C      1  0.5712420000000  0.4910830000000  0.5414770000000 1.0
C      1  0.4410260000000  0.5383960000000  0.5119290000000 1.0
C      1  0.4317110000000  0.4518760000000  0.4985460000000 1.0
C      1  0.5673380000000  0.4528030000000  0.5032930000000 1.0
C      1  0.5636380000000  0.5474760000000  0.4886680000000 1.0
C      1  0.5126130000000  0.4573350000000  0.5732160000000 1.0
C      1  0.5172460000000  0.5499830000000  0.4215490000000 1.0
C      1  0.4928330000000  0.4490880000000  0.4235720000000 1.0
C      1  0.4902790000000  0.5478860000000  0.5767610000000 1.0
C      1  0.5279970000000  0.5866810000000  0.4651880000000 1.0
C      1  0.5054940000000  0.4233430000000  0.5497650000000 1.0
C      1  0.4899490000000  0.4297250000000  0.4471660000000 1.0
C      1  0.4877430000000  0.5770350000000  0.5495480000000 1.0
C      1  0.5287570000000  0.5236690000000  0.4546140000000 1.0
C      1  0.5168350000000  0.4820430000000  0.5508090000000 1.0
C      1  0.4788490000000  0.5248420000000  0.5463800000000 1.0
C      1  0.4734880000000  0.4842170000000  0.4487590000000 1.0
C      1  0.5130460000000  0.4460840000000  0.5178030000000 1.0
C      1  0.5299700000000  0.5519450000000  0.4862100000000 1.0
C      1  0.4731470000000  0.5463990000000  0.5197770000000 1.0
C      1  0.4816000000000  0.4465760000000  0.4848640000000 1.0
C      1  0.4914680000000  0.4894710000000  0.5333780000000 1.0
C      1  0.4988930000000  0.5126430000000  0.4601250000000 1.0
C      1  0.5049910000000  0.4802610000000  0.4547190000000 1.0
C      1  0.5086400000000  0.5185400000000  0.5374840000000 1.0
C      1  0.4986260000000  0.5403670000000  0.4798110000000 1.0
C      1  0.4869380000000  0.4616720000000  0.5214230000000 1.0
C      1  0.5122610000000  0.4598100000000  0.4782140000000 1.0
C      1  0.5071170000000  0.5454660000000  0.5184100000000 1.0
C      1  0.4787210000000  0.4873480000000  0.5938920000000 1.0
C      1  0.4916090000000  0.5338410000000  0.4078690000000 1.0
C      1  0.5160640000000  0.4915080000000  0.3990870000000 1.0
C      1  0.5222130000000  0.4898480000000  0.6092900000000 1.0
C      1  0.4772140000000  0.5838190000000  0.4781900000000 1.0
C      1  0.4624080000000  0.3982830000000  0.5014740000000 1.0
C      1  0.5226020000000  0.3984890000000  0.4787620000000 1.0
C      1  0.5086870000000  0.5991200000000  0.5199130000000 1.0
C      1  0.4555010000000  0.5240680000000  0.4755120000000 1.0
C      1  0.4508100000000  0.4742090000000  0.5324140000000 1.0
C      1  0.5454180000000  0.5155270000000  0.5277360000000 1.0
C      1  0.5497200000000  0.4812890000000  0.4778910000000 1.0
C      1  0.5044900000000  0.5062160000000  0.4997370000000 1.0
END
