TITL C-3289321-8710-354 0.000731540923659698 125000 -897.857201575881 0 0 159 (C1) n - 1
REM
REM in /nfs/bkarasulu/CARBON/AIRSS/Generating-Clusters/AIREBO/with-SteepDescent/Higher-Symm/SD-CG/HFTN-CG
REM
REM
REM
REM
REM
REM ./C.cell (b20cbc046b6831c77cfcea5457e17084)
REM
REM compiler GCC version 9.2.1 20190827 (Red Hat 9.2.1-1)
REM options -cpp -mtune=generic -march=x86-64 -g -O0 -fpre-include=/usr/include/finclude/math-vector-fortran.h
REM seed -357541706 1749033439 -1764756947 -430801749 1796644770 1401621034 -1372203099 -897953616 -1402932647 432473750 311665167 1192193856 -458997400 -1383059156 925830785 357472736 22131958 439107954 1223417555 903955563 -983550342 -1923036308 1239012599 -110081842 -259903220 1174315394 -436663888 1204816121 1531503389 -52782007 1684926893 -1227659732 970225110
REM
CELL 1.54180   50.00000   50.00000   50.00000   90.00000   90.00000   90.00000
LATT -1
SFAC C  
C      1  0.5866950000000  0.5145190000000  0.4617850000000 1.0
C      1  0.4918080000000  0.5187900000000  0.4020430000000 1.0
C      1  0.4082160000000  0.5225480000000  0.4778030000000 1.0
C      1  0.4572560000000  0.5199220000000  0.5896550000000 1.0
C      1  0.5719230000000  0.5129760000000  0.5695470000000 1.0
C      1  0.5844600000000  0.4822090000000  0.4608820000000 1.0
C      1  0.4895110000000  0.4874190000000  0.4019180000000 1.0
C      1  0.4043870000000  0.4896990000000  0.4795410000000 1.0
C      1  0.4549630000000  0.4861800000000  0.5921300000000 1.0
C      1  0.5787310000000  0.4812040000000  0.5737230000000 1.0
C      1  0.4409830000000  0.5869160000000  0.5208810000000 1.0
C      1  0.4988490000000  0.5921560000000  0.5553080000000 1.0
C      1  0.5538140000000  0.5908360000000  0.5150540000000 1.0
C      1  0.5301230000000  0.5900500000000  0.4490900000000 1.0
C      1  0.4608350000000  0.5891770000000  0.4547700000000 1.0
C      1  0.4455000000000  0.4120450000000  0.5219610000000 1.0
C      1  0.5061900000000  0.4122730000000  0.5575610000000 1.0
C      1  0.5582140000000  0.4112190000000  0.5122630000000 1.0
C      1  0.5362630000000  0.4073320000000  0.4494810000000 1.0
C      1  0.4638700000000  0.4049200000000  0.4478450000000 1.0
C      1  0.5559540000000  0.4801920000000  0.4463480000000 1.0
C      1  0.4652810000000  0.4824770000000  0.4236020000000 1.0
C      1  0.4230150000000  0.4764830000000  0.5047850000000 1.0
C      1  0.4854530000000  0.4765830000000  0.5802750000000 1.0
C      1  0.5705500000000  0.4729850000000  0.5417340000000 1.0
C      1  0.5587550000000  0.5265850000000  0.4465800000000 1.0
C      1  0.4696280000000  0.5311500000000  0.4237870000000 1.0
C      1  0.4229880000000  0.5217100000000  0.5084160000000 1.0
C      1  0.4848330000000  0.5243660000000  0.5748330000000 1.0
C      1  0.5662700000000  0.5179980000000  0.5388680000000 1.0
C      1  0.4759400000000  0.5783560000000  0.5647250000000 1.0
C      1  0.5530460000000  0.5816500000000  0.5408510000000 1.0
C      1  0.5529720000000  0.5798360000000  0.4606030000000 1.0
C      1  0.4799040000000  0.5809160000000  0.4367300000000 1.0
C      1  0.4303760000000  0.5749910000000  0.4982340000000 1.0
C      1  0.4817420000000  0.4237320000000  0.5630110000000 1.0
C      1  0.5542060000000  0.4216760000000  0.5374010000000 1.0
C      1  0.5578450000000  0.4191460000000  0.4614410000000 1.0
C      1  0.4812260000000  0.4187010000000  0.4315450000000 1.0
C      1  0.4330360000000  0.4220320000000  0.4991140000000 1.0
C      1  0.5934450000000  0.5543590000000  0.4938990000000 1.0
C      1  0.5260780000000  0.5574050000000  0.4062760000000 1.0
C      1  0.4265850000000  0.5576900000000  0.4451430000000 1.0
C      1  0.4225970000000  0.5482410000000  0.5621280000000 1.0
C      1  0.5417990000000  0.5572440000000  0.5858750000000 1.0
C      1  0.5953090000000  0.4446890000000  0.4933070000000 1.0
C      1  0.5143930000000  0.4501790000000  0.4013180000000 1.0
C      1  0.4079210000000  0.4431750000000  0.4576830000000 1.0
C      1  0.4314900000000  0.4445100000000  0.5673140000000 1.0
C      1  0.5384730000000  0.4480640000000  0.5871360000000 1.0
C      1  0.5906550000000  0.5576740000000  0.5277840000000 1.0
C      1  0.5585280000000  0.5644540000000  0.4145770000000 1.0
C      1  0.4372890000000  0.5585010000000  0.4191210000000 1.0
C      1  0.4027630000000  0.5546160000000  0.5347790000000 1.0
C      1  0.5087520000000  0.5647180000000  0.5829890000000 1.0
C      1  0.5990590000000  0.4361570000000  0.5262060000000 1.0
C      1  0.5306580000000  0.4351700000000  0.4213160000000 1.0
C      1  0.4327990000000  0.4300590000000  0.4464280000000 1.0
C      1  0.4124160000000  0.4409300000000  0.5386230000000 1.0
C      1  0.5088670000000  0.4382700000000  0.6014140000000 1.0
C      1  0.4696040000000  0.5632230000000  0.4154430000000 1.0
C      1  0.4097460000000  0.5526230000000  0.5039540000000 1.0
C      1  0.4759230000000  0.5550180000000  0.5852770000000 1.0
C      1  0.5733870000000  0.5639050000000  0.5469780000000 1.0
C      1  0.5674290000000  0.5593630000000  0.4440230000000 1.0
C      1  0.4691640000000  0.4402390000000  0.4172230000000 1.0
C      1  0.4137150000000  0.4444870000000  0.5072730000000 1.0
C      1  0.4826840000000  0.4431350000000  0.5857240000000 1.0
C      1  0.5757630000000  0.4398840000000  0.5460760000000 1.0
C      1  0.5733990000000  0.4367950000000  0.4463080000000 1.0
C      1  0.5912250000000  0.4525730000000  0.4619730000000 1.0
C      1  0.4845320000000  0.4559240000000  0.4002110000000 1.0
C      1  0.3974700000000  0.4573250000000  0.4817280000000 1.0
C      1  0.4533550000000  0.4546020000000  0.5881830000000 1.0
C      1  0.5680620000000  0.4510070000000  0.5749690000000 1.0
C      1  0.5891830000000  0.5457750000000  0.4635610000000 1.0
C      1  0.4948930000000  0.5500160000000  0.3991900000000 1.0
C      1  0.4079270000000  0.5535030000000  0.4699230000000 1.0
C      1  0.4425340000000  0.5486300000000  0.5881740000000 1.0
C      1  0.5661800000000  0.5449080000000  0.5684360000000 1.0
C      1  0.5532920000000  0.4302170000000  0.4885600000000 1.0
C      1  0.5089740000000  0.4243770000000  0.4435530000000 1.0
C      1  0.4501030000000  0.4212650000000  0.4725140000000 1.0
C      1  0.4645260000000  0.4320980000000  0.5392360000000 1.0
C      1  0.5268840000000  0.4316870000000  0.5443070000000 1.0
C      1  0.5519500000000  0.5721740000000  0.4892840000000 1.0
C      1  0.5063810000000  0.5706820000000  0.4473470000000 1.0
C      1  0.4492900000000  0.5678390000000  0.4762490000000 1.0
C      1  0.4592690000000  0.5696540000000  0.5408780000000 1.0
C      1  0.5244360000000  0.5745880000000  0.5544650000000 1.0
C      1  0.5200750000000  0.4663440000000  0.5196790000000 1.0
C      1  0.5219790000000  0.4712380000000  0.4860190000000 1.0
C      1  0.4955510000000  0.4740870000000  0.4675140000000 1.0
C      1  0.4719070000000  0.4680260000000  0.4880450000000 1.0
C      1  0.4916540000000  0.4623250000000  0.5379070000000 1.0
C      1  0.5137450000000  0.5270740000000  0.5190360000000 1.0
C      1  0.5226500000000  0.5281960000000  0.4862230000000 1.0
C      1  0.4935720000000  0.5291290000000  0.4724540000000 1.0
C      1  0.4745560000000  0.5228320000000  0.4950420000000 1.0
C      1  0.4826010000000  0.5409610000000  0.5226630000000 1.0
C      1  0.5252680000000  0.5585650000000  0.4972550000000 1.0
C      1  0.5010190000000  0.5598200000000  0.4751550000000 1.0
C      1  0.4777280000000  0.5730880000000  0.4871060000000 1.0
C      1  0.4794720000000  0.5725790000000  0.5159120000000 1.0
C      1  0.5232850000000  0.5579370000000  0.5286810000000 1.0
C      1  0.5247570000000  0.4392770000000  0.4908390000000 1.0
C      1  0.5023520000000  0.4414190000000  0.4680900000000 1.0
C      1  0.4739900000000  0.4360290000000  0.4862370000000 1.0
C      1  0.4827570000000  0.4235020000000  0.5133190000000 1.0
C      1  0.5105150000000  0.4337750000000  0.5176360000000 1.0
C      1  0.4492190000000  0.5416680000000  0.5444440000000 1.0
C      1  0.5358950000000  0.5296160000000  0.5660540000000 1.0
C      1  0.5625670000000  0.5401230000000  0.4928460000000 1.0
C      1  0.5134030000000  0.5421190000000  0.4335650000000 1.0
C      1  0.4436370000000  0.5364000000000  0.4654410000000 1.0
C      1  0.4508190000000  0.4618150000000  0.5452230000000 1.0
C      1  0.5269070000000  0.4604600000000  0.5586150000000 1.0
C      1  0.5658730000000  0.4616850000000  0.4913570000000 1.0
C      1  0.5083340000000  0.4668650000000  0.4303200000000 1.0
C      1  0.4306750000000  0.4668790000000  0.4605570000000 1.0
C      1  0.5393530000000  0.5236920000000  0.4227500000000 1.0
C      1  0.4411880000000  0.5219860000000  0.4347010000000 1.0
C      1  0.4285750000000  0.5148740000000  0.5409900000000 1.0
C      1  0.5117410000000  0.5148040000000  0.5824880000000 1.0
C      1  0.5812120000000  0.5216830000000  0.5132060000000 1.0
C      1  0.5384580000000  0.4743910000000  0.4220790000000 1.0
C      1  0.4365270000000  0.4810590000000  0.4330550000000 1.0
C      1  0.4289350000000  0.4839680000000  0.5323850000000 1.0
C      1  0.5188050000000  0.4826470000000  0.5836200000000 1.0
C      1  0.5849570000000  0.4763880000000  0.5150140000000 1.0
C      1  0.6119110000000  0.5360540000000  0.5158090000000 1.0
C      1  0.5518070000000  0.5380920000000  0.3952260000000 1.0
C      1  0.4288930000000  0.5336720000000  0.4052240000000 1.0
C      1  0.3983080000000  0.5267470000000  0.5519230000000 1.0
C      1  0.5201450000000  0.5384980000000  0.6016880000000 1.0
C      1  0.6154020000000  0.4626910000000  0.5140050000000 1.0
C      1  0.5581730000000  0.4468060000000  0.4248860000000 1.0
C      1  0.4448820000000  0.4484110000000  0.4281080000000 1.0
C      1  0.4125470000000  0.4685950000000  0.5546220000000 1.0
C      1  0.5237300000000  0.4653160000000  0.6124580000000 1.0
C      1  0.5480070000000  0.4844740000000  0.4770490000000 1.0
C      1  0.4908200000000  0.4901600000000  0.4417870000000 1.0
C      1  0.4455250000000  0.4812320000000  0.4827370000000 1.0
C      1  0.4721710000000  0.4866780000000  0.5514520000000 1.0
C      1  0.5406260000000  0.4814160000000  0.5383150000000 1.0
C      1  0.5485760000000  0.5159010000000  0.4755880000000 1.0
C      1  0.4925940000000  0.5200640000000  0.4435280000000 1.0
C      1  0.4461190000000  0.5139690000000  0.4871660000000 1.0
C      1  0.4731150000000  0.5187980000000  0.5466750000000 1.0
C      1  0.5345250000000  0.5125980000000  0.5380600000000 1.0
C      1  0.5505680000000  0.4943300000000  0.5869250000000 1.0
C      1  0.5191080000000  0.5006220000000  0.4123950000000 1.0
C      1  0.4347510000000  0.5029170000000  0.5717420000000 1.0
C      1  0.5828690000000  0.4981320000000  0.4910160000000 1.0
C      1  0.4189270000000  0.5034620000000  0.4516940000000 1.0
C      1  0.4833710000000  0.3926850000000  0.5111890000000 1.0
C      1  0.4928280000000  0.5987600000000  0.5287570000000 1.0
C      1  0.4823130000000  0.4777240000000  0.5138240000000 1.0
C      1  0.4901290000000  0.5031020000000  0.5141680000000 1.0
END
