TITL C-3289325-7307-331 -0.00138075954771264 125000 -1014.40327596883 0 0 192 (C1) n - 1
REM
REM in /nfs/bkarasulu/CARBON/AIRSS/Generating-Clusters/AIREBO/with-SteepDescent/Higher-Symm/SD-CG/HFTN-CG
REM
REM
REM
REM
REM
REM ./C.cell (b20cbc046b6831c77cfcea5457e17084)
REM
REM compiler GCC version 9.2.1 20190827 (Red Hat 9.2.1-1)
REM options -cpp -mtune=generic -march=x86-64 -g -O0 -fpre-include=/usr/include/finclude/math-vector-fortran.h
REM seed 1531428100 1547317999 -2061713518 -22847909 2112426233 -1498343674 -1905465012 367774583 -112008673 2009017201 -1729997218 281716711 1303852842 485877516 -1101136852 609501890 -582523638 -1674313610 1681136389 1131056344 1589862597 1351389607 457134814 1455206894 -526915572 2055419304 -1354334601 -1623449464 733725537 328793069 654602500 1922178255 1337682129
REM
CELL 1.54180   50.00000   50.00000   50.00000   90.00000   90.00000   90.00000
LATT -1
SFAC C  
C      1  0.4934080000000  0.5189610000000  0.4310340000000 1.0
C      1  0.5241180000000  0.5190750000000  0.5790610000000 1.0
C      1  0.4935700000000  0.4850940000000  0.4275060000000 1.0
C      1  0.5137970000000  0.4879770000000  0.5711180000000 1.0
C      1  0.5346080000000  0.4289980000000  0.4239730000000 1.0
C      1  0.4578280000000  0.4394630000000  0.5823790000000 1.0
C      1  0.5441620000000  0.5778600000000  0.4249780000000 1.0
C      1  0.4519900000000  0.5716690000000  0.5753380000000 1.0
C      1  0.4306930000000  0.5752590000000  0.5242280000000 1.0
C      1  0.5678340000000  0.5817370000000  0.4723070000000 1.0
C      1  0.4285050000000  0.4163390000000  0.5208020000000 1.0
C      1  0.5665740000000  0.4152160000000  0.4789600000000 1.0
C      1  0.5647200000000  0.5292510000000  0.5251310000000 1.0
C      1  0.4429420000000  0.5296500000000  0.4776530000000 1.0
C      1  0.5574150000000  0.4719510000000  0.5325730000000 1.0
C      1  0.4241150000000  0.4756320000000  0.4633210000000 1.0
C      1  0.4927860000000  0.5221630000000  0.4707460000000 1.0
C      1  0.4986350000000  0.5133120000000  0.5239110000000 1.0
C      1  0.4925860000000  0.4767900000000  0.4754280000000 1.0
C      1  0.5080280000000  0.4808560000000  0.5278540000000 1.0
C      1  0.5987370000000  0.4529270000000  0.5469150000000 1.0
C      1  0.4014250000000  0.4477370000000  0.4458280000000 1.0
C      1  0.5934130000000  0.5493350000000  0.5452030000000 1.0
C      1  0.4069350000000  0.5420530000000  0.4564200000000 1.0
C      1  0.5429030000000  0.5148710000000  0.4778250000000 1.0
C      1  0.4590910000000  0.5112170000000  0.5185930000000 1.0
C      1  0.5510220000000  0.4823830000000  0.4837260000000 1.0
C      1  0.4455060000000  0.4803200000000  0.5202320000000 1.0
C      1  0.5912180000000  0.5679520000000  0.4539790000000 1.0
C      1  0.4139780000000  0.5675990000000  0.5491200000000 1.0
C      1  0.5894480000000  0.4267570000000  0.4593100000000 1.0
C      1  0.4227320000000  0.4261710000000  0.5495150000000 1.0
C      1  0.5505400000000  0.5513810000000  0.4046150000000 1.0
C      1  0.4476640000000  0.5459300000000  0.5971890000000 1.0
C      1  0.5432860000000  0.4558200000000  0.4095290000000 1.0
C      1  0.4521230000000  0.4638070000000  0.5973830000000 1.0
C      1  0.4050940000000  0.4470350000000  0.5536240000000 1.0
C      1  0.5984280000000  0.4473420000000  0.4487700000000 1.0
C      1  0.4047230000000  0.5446900000000  0.5538820000000 1.0
C      1  0.5993040000000  0.5461360000000  0.4451640000000 1.0
C      1  0.4548240000000  0.5144570000000  0.4259020000000 1.0
C      1  0.5520570000000  0.5149700000000  0.5494170000000 1.0
C      1  0.4437160000000  0.4869370000000  0.4425030000000 1.0
C      1  0.5535780000000  0.4885910000000  0.5686250000000 1.0
C      1  0.5219190000000  0.5565410000000  0.4317010000000 1.0
C      1  0.4794700000000  0.5582490000000  0.5771320000000 1.0
C      1  0.5137750000000  0.4507890000000  0.4357310000000 1.0
C      1  0.4842490000000  0.4463690000000  0.5668510000000 1.0
C      1  0.4660570000000  0.4224920000000  0.4476690000000 1.0
C      1  0.5249960000000  0.4141930000000  0.5559220000000 1.0
C      1  0.4664810000000  0.5896200000000  0.4444750000000 1.0
C      1  0.5371040000000  0.5854080000000  0.5577370000000 1.0
C      1  0.3876410000000  0.5130420000000  0.5002690000000 1.0
C      1  0.6127820000000  0.5165680000000  0.5011010000000 1.0
C      1  0.3828530000000  0.4858250000000  0.5010230000000 1.0
C      1  0.6150040000000  0.4883520000000  0.5008930000000 1.0
C      1  0.5236220000000  0.4221850000000  0.5125780000000 1.0
C      1  0.4695450000000  0.4190180000000  0.4901600000000 1.0
C      1  0.5252970000000  0.5784770000000  0.5069880000000 1.0
C      1  0.4713880000000  0.5815620000000  0.4897490000000 1.0
C      1  0.5146600000000  0.6096040000000  0.5044770000000 1.0
C      1  0.4851820000000  0.6107940000000  0.4967120000000 1.0
C      1  0.5149230000000  0.3915120000000  0.5007410000000 1.0
C      1  0.4843170000000  0.3886070000000  0.4937710000000 1.0
C      1  0.5802400000000  0.4314240000000  0.5263850000000 1.0
C      1  0.4182270000000  0.4295760000000  0.4694590000000 1.0
C      1  0.5764560000000  0.5672410000000  0.5213570000000 1.0
C      1  0.4223630000000  0.5669130000000  0.4741790000000 1.0
C      1  0.5197430000000  0.5140720000000  0.4516590000000 1.0
C      1  0.4771220000000  0.5100880000000  0.5484790000000 1.0
C      1  0.5255800000000  0.4886100000000  0.4311830000000 1.0
C      1  0.4863860000000  0.4856410000000  0.5609910000000 1.0
C      1  0.5263740000000  0.5501100000000  0.5727270000000 1.0
C      1  0.4768430000000  0.5475210000000  0.4223310000000 1.0
C      1  0.5279720000000  0.4322490000000  0.5811370000000 1.0
C      1  0.4892800000000  0.4546390000000  0.4172030000000 1.0
C      1  0.5123690000000  0.3918330000000  0.5352870000000 1.0
C      1  0.4797750000000  0.3973060000000  0.4584630000000 1.0
C      1  0.5216100000000  0.6026980000000  0.5377120000000 1.0
C      1  0.4806560000000  0.6082670000000  0.4624710000000 1.0
C      1  0.4925400000000  0.4543220000000  0.5348500000000 1.0
C      1  0.5058800000000  0.4496430000000  0.4648120000000 1.0
C      1  0.4996080000000  0.5470230000000  0.5283430000000 1.0
C      1  0.5057300000000  0.5516710000000  0.4598670000000 1.0
C      1  0.5321120000000  0.4805680000000  0.5461860000000 1.0
C      1  0.4762190000000  0.4888630000000  0.4523430000000 1.0
C      1  0.5213100000000  0.5189350000000  0.5471210000000 1.0
C      1  0.4632480000000  0.5174720000000  0.4588450000000 1.0
C      1  0.5123930000000  0.4491050000000  0.4981800000000 1.0
C      1  0.4821580000000  0.4474290000000  0.5039500000000 1.0
C      1  0.5161520000000  0.5492730000000  0.4921560000000 1.0
C      1  0.4845490000000  0.5545420000000  0.5002210000000 1.0
C      1  0.5390860000000  0.4369410000000  0.5372800000000 1.0
C      1  0.4558290000000  0.4428390000000  0.4718570000000 1.0
C      1  0.5267440000000  0.5577120000000  0.5409550000000 1.0
C      1  0.4727210000000  0.5578320000000  0.4544700000000 1.0
C      1  0.4546740000000  0.5469270000000  0.5011670000000 1.0
C      1  0.5488000000000  0.5466680000000  0.5012960000000 1.0
C      1  0.4426870000000  0.4470500000000  0.4996920000000 1.0
C      1  0.5505940000000  0.4514640000000  0.5087550000000 1.0
C      1  0.5956900000000  0.5162800000000  0.5549490000000 1.0
C      1  0.3992590000000  0.5109270000000  0.4450790000000 1.0
C      1  0.6039840000000  0.4838390000000  0.5608920000000 1.0
C      1  0.3934180000000  0.4792630000000  0.4529980000000 1.0
C      1  0.5663570000000  0.4454350000000  0.5540930000000 1.0
C      1  0.4354230000000  0.4480920000000  0.4466830000000 1.0
C      1  0.5598220000000  0.5540300000000  0.5479120000000 1.0
C      1  0.4396290000000  0.5494630000000  0.4506390000000 1.0
C      1  0.5315250000000  0.4860220000000  0.3988860000000 1.0
C      1  0.4720950000000  0.4837590000000  0.6079830000000 1.0
C      1  0.5416580000000  0.5184580000000  0.4019700000000 1.0
C      1  0.4636720000000  0.5158560000000  0.5992200000000 1.0
C      1  0.4817260000000  0.5092950000000  0.4955920000000 1.0
C      1  0.5218960000000  0.5171590000000  0.5017670000000 1.0
C      1  0.4690680000000  0.4778570000000  0.4983170000000 1.0
C      1  0.5192310000000  0.4824220000000  0.4957870000000 1.0
C      1  0.4612340000000  0.4171350000000  0.5351650000000 1.0
C      1  0.5335760000000  0.4217440000000  0.4739410000000 1.0
C      1  0.4644360000000  0.5745400000000  0.5284110000000 1.0
C      1  0.5342250000000  0.5783870000000  0.4682500000000 1.0
C      1  0.4978070000000  0.5809530000000  0.5268620000000 1.0
C      1  0.5007690000000  0.5827950000000  0.4726370000000 1.0
C      1  0.4948800000000  0.4206500000000  0.5307540000000 1.0
C      1  0.4996030000000  0.4199720000000  0.4742480000000 1.0
C      1  0.4316050000000  0.5121770000000  0.5003070000000 1.0
C      1  0.5708320000000  0.5138500000000  0.4983560000000 1.0
C      1  0.4257490000000  0.4823900000000  0.4925660000000 1.0
C      1  0.5759890000000  0.4821900000000  0.5068100000000 1.0
C      1  0.5395370000000  0.6013970000000  0.4437750000000 1.0
C      1  0.4563440000000  0.5945980000000  0.5546580000000 1.0
C      1  0.5373590000000  0.4082430000000  0.4432040000000 1.0
C      1  0.4465810000000  0.4196680000000  0.5657540000000 1.0
C      1  0.5791940000000  0.5548590000000  0.4897610000000 1.0
C      1  0.4218420000000  0.5506980000000  0.5043070000000 1.0
C      1  0.5791520000000  0.4427280000000  0.4944840000000 1.0
C      1  0.4118120000000  0.4387070000000  0.5013830000000 1.0
C      1  0.4789480000000  0.5121770000000  0.4020040000000 1.0
C      1  0.5281160000000  0.5184040000000  0.6118680000000 1.0
C      1  0.4782570000000  0.4845050000000  0.3905700000000 1.0
C      1  0.5285160000000  0.4869460000000  0.6017760000000 1.0
C      1  0.4369000000000  0.4094550000000  0.4895850000000 1.0
C      1  0.5562030000000  0.4125730000000  0.5105880000000 1.0
C      1  0.4412550000000  0.5837520000000  0.4938870000000 1.0
C      1  0.5573950000000  0.5853770000000  0.5034690000000 1.0
C      1  0.6025580000000  0.4789730000000  0.5277860000000 1.0
C      1  0.3735130000000  0.4760960000000  0.4771800000000 1.0
C      1  0.6109540000000  0.5273370000000  0.5268250000000 1.0
C      1  0.3870070000000  0.5236160000000  0.4743780000000 1.0
C      1  0.4955140000000  0.5262540000000  0.6059210000000 1.0
C      1  0.5095860000000  0.5253550000000  0.3952530000000 1.0
C      1  0.5000690000000  0.4716700000000  0.6048230000000 1.0
C      1  0.5064980000000  0.4774670000000  0.3815030000000 1.0
C      1  0.5705250000000  0.5233940000000  0.5766950000000 1.0
C      1  0.4212860000000  0.5143330000000  0.4228970000000 1.0
C      1  0.5823720000000  0.4916570000000  0.5834850000000 1.0
C      1  0.4334350000000  0.4852750000000  0.4100800000000 1.0
C      1  0.5642980000000  0.5157660000000  0.4272460000000 1.0
C      1  0.4418440000000  0.5146100000000  0.5730630000000 1.0
C      1  0.5655750000000  0.4848340000000  0.4372350000000 1.0
C      1  0.4372790000000  0.4835460000000  0.5657420000000 1.0
C      1  0.5931930000000  0.4796660000000  0.4521110000000 1.0
C      1  0.4111170000000  0.4795610000000  0.5469570000000 1.0
C      1  0.5906760000000  0.5134470000000  0.4487980000000 1.0
C      1  0.4156050000000  0.5133150000000  0.5513010000000 1.0
C      1  0.4981790000000  0.4500070000000  0.3875020000000 1.0
C      1  0.5053860000000  0.4487330000000  0.5870680000000 1.0
C      1  0.5037460000000  0.5505690000000  0.4091340000000 1.0
C      1  0.5010960000000  0.5498910000000  0.5899500000000 1.0
C      1  0.5410710000000  0.4670650000000  0.4478400000000 1.0
C      1  0.4610270000000  0.4682130000000  0.5550270000000 1.0
C      1  0.5421660000000  0.5332390000000  0.4391130000000 1.0
C      1  0.4642900000000  0.5359320000000  0.5623670000000 1.0
C      1  0.4596460000000  0.5420150000000  0.5326240000000 1.0
C      1  0.5471410000000  0.5469410000000  0.4673350000000 1.0
C      1  0.4526680000000  0.4496880000000  0.5303460000000 1.0
C      1  0.5443420000000  0.4525320000000  0.4751900000000 1.0
C      1  0.5929650000000  0.5273910000000  0.4797480000000 1.0
C      1  0.4095000000000  0.5245530000000  0.5197350000000 1.0
C      1  0.5957720000000  0.4689870000000  0.4821960000000 1.0
C      1  0.4051590000000  0.4689440000000  0.5154480000000 1.0
C      1  0.5534060000000  0.5372310000000  0.5990750000000 1.0
C      1  0.4265020000000  0.5455840000000  0.4130890000000 1.0
C      1  0.5573120000000  0.4724460000000  0.5972470000000 1.0
C      1  0.4561990000000  0.4694160000000  0.4005470000000 1.0
C      1  0.5538940000000  0.4449730000000  0.5823590000000 1.0
C      1  0.4590520000000  0.4441730000000  0.4224050000000 1.0
C      1  0.5545570000000  0.5653840000000  0.5797870000000 1.0
C      1  0.4496100000000  0.5678270000000  0.4238160000000 1.0
C      1  0.5301380000000  0.3880980000000  0.4704000000000 1.0
C      1  0.4657720000000  0.3879220000000  0.5183550000000 1.0
C      1  0.5336470000000  0.6114410000000  0.4762330000000 1.0
C      1  0.4649360000000  0.6082570000000  0.5240240000000 1.0
END
