TITL C-3289322-3858-306 0.00344041198338274 125000 -97.6723884849627 0 0 19 (C1) n - 1
REM
REM in /nfs/bkarasulu/CARBON/AIRSS/Generating-Clusters/AIREBO/with-SteepDescent/Higher-Symm/SD-CG/HFTN-CG
REM
REM
REM
REM
REM
REM ./C.cell (b20cbc046b6831c77cfcea5457e17084)
REM
REM compiler GCC version 9.2.1 20190827 (Red Hat 9.2.1-1)
REM options -cpp -mtune=generic -march=x86-64 -g -O0 -fpre-include=/usr/include/finclude/math-vector-fortran.h
REM seed -1191046714 -1411155554 -1471095598 -1104875261 1891531080 -920879244 -480205362 187314216 1050854836 -1824695657 1303647516 254898346 -75505839 -43345196 -369920214 -356337021 2145745690 793604457 -1647309870 -1223093615 1610396474 197851418 -724508063 -419269284 173171751 485923696 1165309556 -1640191967 1843597179 -439484382 1464395250 -553345889 643261512
REM
CELL 1.54180   50.00000   50.00000   50.00000   90.00000   90.00000   90.00000
LATT -1
SFAC C  
C      1  0.4538130000000  0.4880800000000  0.5290890000000 1.0
C      1  0.5227290000000  0.5110840000000  0.5237650000000 1.0
C      1  0.5199830000000  0.4816230000000  0.4870340000000 1.0
C      1  0.4550550000000  0.5273580000000  0.5024310000000 1.0
C      1  0.4947940000000  0.4587210000000  0.5344710000000 1.0
C      1  0.5263640000000  0.5646680000000  0.5433540000000 1.0
C      1  0.5262760000000  0.4577670000000  0.4397030000000 1.0
C      1  0.4959210000000  0.5384650000000  0.4661010000000 1.0
C      1  0.4950690000000  0.5580780000000  0.5411520000000 1.0
C      1  0.5224250000000  0.4611500000000  0.5324120000000 1.0
C      1  0.4804680000000  0.5151020000000  0.4546610000000 1.0
C      1  0.5280580000000  0.4472040000000  0.4157820000000 1.0
C      1  0.5237830000000  0.4707230000000  0.4628440000000 1.0
C      1  0.4809180000000  0.5179520000000  0.4886890000000 1.0
C      1  0.4794700000000  0.4792170000000  0.5225790000000 1.0
C      1  0.5168700000000  0.5357700000000  0.5316090000000 1.0
C      1  0.5312640000000  0.4822460000000  0.5154710000000 1.0
C      1  0.4408470000000  0.5095170000000  0.5176790000000 1.0
C      1  0.4964850000000  0.4983040000000  0.5051060000000 1.0
END
