TITL C-3289324-3781-511 0.00889225061746662 125000 -620.512043526429 0 0 118 (C1) n - 1
REM
REM in /nfs/bkarasulu/CARBON/AIRSS/Generating-Clusters/AIREBO/with-SteepDescent/Higher-Symm/SD-CG/HFTN-CG
REM
REM
REM
REM
REM
REM ./C.cell (b20cbc046b6831c77cfcea5457e17084)
REM
REM compiler GCC version 9.2.1 20190827 (Red Hat 9.2.1-1)
REM options -cpp -mtune=generic -march=x86-64 -g -O0 -fpre-include=/usr/include/finclude/math-vector-fortran.h
REM seed -1791969111 -446030156 -593590347 -1567847746 587156217 -19863345 1649607859 1274165369 831740533 879993317 -161220766 1559350570 19490062 -1516615244 -1053576204 1077230182 -1699515694 -706867845 -973501651 631329163 -795503064 494046288 565755221 -789940019 223816465 224561320 -1290900593 -1577653132 1372627272 798777391 1153422463 1290959110 -1894620071
REM
CELL 1.54180   50.00000   50.00000   50.00000   90.00000   90.00000   90.00000
LATT -1
SFAC C  
C      1  0.4864480000000  0.5227670000000  0.4073970000000 1.0
C      1  0.5247720000000  0.4062490000000  0.4858790000000 1.0
C      1  0.4021350000000  0.4857860000000  0.5315970000000 1.0
C      1  0.5224000000000  0.4746170000000  0.4066660000000 1.0
C      1  0.4836920000000  0.4715400000000  0.5894110000000 1.0
C      1  0.5138380000000  0.5256160000000  0.5995490000000 1.0
C      1  0.4697590000000  0.5918620000000  0.4779770000000 1.0
C      1  0.5220300000000  0.5805010000000  0.5158280000000 1.0
C      1  0.4654500000000  0.4031290000000  0.5147650000000 1.0
C      1  0.5938710000000  0.5250040000000  0.5273330000000 1.0
C      1  0.4083580000000  0.5213110000000  0.4774950000000 1.0
C      1  0.6027610000000  0.4868510000000  0.4716550000000 1.0
C      1  0.5841710000000  0.4605160000000  0.5148910000000 1.0
C      1  0.4682450000000  0.5147020000000  0.5751720000000 1.0
C      1  0.5041590000000  0.5669630000000  0.4462960000000 1.0
C      1  0.4182490000000  0.5478850000000  0.5251340000000 1.0
C      1  0.5802590000000  0.5435380000000  0.4739080000000 1.0
C      1  0.4234630000000  0.4535420000000  0.4858290000000 1.0
C      1  0.5499970000000  0.4893150000000  0.5722650000000 1.0
C      1  0.4611820000000  0.5009580000000  0.4384380000000 1.0
C      1  0.5418430000000  0.5145980000000  0.4206460000000 1.0
C      1  0.4968210000000  0.4359800000000  0.4565700000000 1.0
C      1  0.5022450000000  0.4285540000000  0.5404460000000 1.0
C      1  0.4918100000000  0.5745550000000  0.5537080000000 1.0
C      1  0.5038600000000  0.5311110000000  0.5586690000000 1.0
C      1  0.5344480000000  0.5413180000000  0.4848740000000 1.0
C      1  0.5582700000000  0.4849060000000  0.5328930000000 1.0
C      1  0.5092950000000  0.4704200000000  0.5538200000000 1.0
C      1  0.4880290000000  0.4714190000000  0.4405760000000 1.0
C      1  0.5119200000000  0.5366070000000  0.4349360000000 1.0
C      1  0.4641100000000  0.4420100000000  0.4868660000000 1.0
C      1  0.5286390000000  0.4531620000000  0.5064720000000 1.0
C      1  0.4562700000000  0.5576530000000  0.5138730000000 1.0
C      1  0.4418050000000  0.5155850000000  0.5455560000000 1.0
C      1  0.5623540000000  0.5054860000000  0.4711970000000 1.0
C      1  0.4369350000000  0.4816170000000  0.4701030000000 1.0
C      1  0.4858130000000  0.5620010000000  0.4715760000000 1.0
C      1  0.5754600000000  0.4809260000000  0.4910500000000 1.0
C      1  0.4862720000000  0.4952140000000  0.5573020000000 1.0
C      1  0.5045710000000  0.4404840000000  0.4850520000000 1.0
C      1  0.4806720000000  0.4395400000000  0.5165590000000 1.0
C      1  0.4950870000000  0.5613110000000  0.5234080000000 1.0
C      1  0.4278820000000  0.5324370000000  0.5015220000000 1.0
C      1  0.5768220000000  0.5302520000000  0.4988880000000 1.0
C      1  0.4243940000000  0.4758410000000  0.5078710000000 1.0
C      1  0.5231430000000  0.5078130000000  0.5653380000000 1.0
C      1  0.4912690000000  0.5129810000000  0.4480690000000 1.0
C      1  0.5304500000000  0.4936360000000  0.4398560000000 1.0
C      1  0.5283630000000  0.5039980000000  0.4721710000000 1.0
C      1  0.5009690000000  0.4641590000000  0.5226110000000 1.0
C      1  0.4613850000000  0.5265970000000  0.5027900000000 1.0
C      1  0.5004570000000  0.4855720000000  0.4659820000000 1.0
C      1  0.5294230000000  0.4921140000000  0.5381100000000 1.0
C      1  0.4710680000000  0.5083310000000  0.5298150000000 1.0
C      1  0.4987910000000  0.5275560000000  0.5252270000000 1.0
C      1  0.5087000000000  0.5223120000000  0.4930960000000 1.0
C      1  0.4919420000000  0.4704660000000  0.4904440000000 1.0
C      1  0.5441460000000  0.4830940000000  0.5020050000000 1.0
C      1  0.4603380000000  0.4736020000000  0.4906770000000 1.0
C      1  0.5462210000000  0.5169520000000  0.5054590000000 1.0
C      1  0.4619960000000  0.5603970000000  0.5455140000000 1.0
C      1  0.5711540000000  0.5288630000000  0.4493980000000 1.0
C      1  0.5414470000000  0.4616880000000  0.5607560000000 1.0
C      1  0.5301890000000  0.4396010000000  0.5376190000000 1.0
C      1  0.4667430000000  0.4405840000000  0.4545410000000 1.0
C      1  0.5330300000000  0.5605390000000  0.4585740000000 1.0
C      1  0.4346230000000  0.4517380000000  0.4544240000000 1.0
C      1  0.5618250000000  0.4524030000000  0.5351670000000 1.0
C      1  0.4355940000000  0.5427780000000  0.5455820000000 1.0
C      1  0.4738870000000  0.5428440000000  0.5696220000000 1.0
C      1  0.5456870000000  0.5412060000000  0.4359150000000 1.0
C      1  0.4574500000000  0.4694910000000  0.4380750000000 1.0
C      1  0.5613710000000  0.4714340000000  0.4427840000000 1.0
C      1  0.4745300000000  0.4336410000000  0.5576010000000 1.0
C      1  0.4332640000000  0.5575700000000  0.4709160000000 1.0
C      1  0.4380910000000  0.5221160000000  0.4318100000000 1.0
C      1  0.5600610000000  0.5217930000000  0.5712810000000 1.0
C      1  0.4361580000000  0.4682640000000  0.5655780000000 1.0
C      1  0.5228800000000  0.5655780000000  0.5648280000000 1.0
C      1  0.4727260000000  0.5641810000000  0.4338930000000 1.0
C      1  0.5227740000000  0.4352290000000  0.4400470000000 1.0
C      1  0.5587100000000  0.4428300000000  0.4702400000000 1.0
C      1  0.4423610000000  0.4488630000000  0.5311580000000 1.0
C      1  0.5490520000000  0.5555160000000  0.5363530000000 1.0
C      1  0.5358270000000  0.5738310000000  0.4892550000000 1.0
C      1  0.5755920000000  0.5047420000000  0.5462470000000 1.0
C      1  0.4999790000000  0.5521380000000  0.5854940000000 1.0
C      1  0.4444980000000  0.4264420000000  0.5056720000000 1.0
C      1  0.5461660000000  0.4266920000000  0.4951940000000 1.0
C      1  0.4474430000000  0.5739780000000  0.4918800000000 1.0
C      1  0.4261030000000  0.4939170000000  0.5526040000000 1.0
C      1  0.5832890000000  0.4971290000000  0.4457430000000 1.0
C      1  0.4261810000000  0.5046060000000  0.4573240000000 1.0
C      1  0.4980580000000  0.4472770000000  0.5753920000000 1.0
C      1  0.5037110000000  0.4560730000000  0.4227240000000 1.0
C      1  0.4960350000000  0.5538760000000  0.4103250000000 1.0
C      1  0.5384990000000  0.5832620000000  0.5427420000000 1.0
C      1  0.5719020000000  0.5413910000000  0.5474570000000 1.0
C      1  0.5377410000000  0.5405320000000  0.5828180000000 1.0
C      1  0.4539020000000  0.4184790000000  0.5418550000000 1.0
C      1  0.5404280000000  0.4168130000000  0.4578270000000 1.0
C      1  0.4532870000000  0.5757250000000  0.4530190000000 1.0
C      1  0.4144920000000  0.4570240000000  0.5443980000000 1.0
C      1  0.5869630000000  0.4589520000000  0.4602180000000 1.0
C      1  0.4186650000000  0.5402340000000  0.4513510000000 1.0
C      1  0.4601740000000  0.4586700000000  0.5743870000000 1.0
C      1  0.5430090000000  0.4570260000000  0.4235130000000 1.0
C      1  0.4621250000000  0.5367520000000  0.4197410000000 1.0
C      1  0.5974250000000  0.5049730000000  0.5005410000000 1.0
C      1  0.5011770000000  0.4970100000000  0.5878400000000 1.0
C      1  0.4939860000000  0.5810740000000  0.4974020000000 1.0
C      1  0.4062380000000  0.5026410000000  0.5035910000000 1.0
C      1  0.5044790000000  0.5006460000000  0.4192260000000 1.0
C      1  0.4956690000000  0.4125370000000  0.5023210000000 1.0
C      1  0.4829890000000  0.5306460000000  0.4766710000000 1.0
C      1  0.4554190000000  0.4790200000000  0.5214280000000 1.0
C      1  0.5408050000000  0.4724270000000  0.4698480000000 1.0
C      1  0.5310320000000  0.5383640000000  0.5243000000000 1.0
END
