TITL C-3289329-2751-258 236.986534467666 125000 -597.603317470945 0 0 108 (C3i) n - 1
REM
REM in /nfs/bkarasulu/CARBON/AIRSS/Generating-Clusters/AIREBO/with-SteepDescent/Higher-Symm/SD-CG/HFTN-CG
REM
REM
REM
REM
REM
REM ./C.cell (b20cbc046b6831c77cfcea5457e17084)
REM
REM compiler GCC version 9.2.1 20190827 (Red Hat 9.2.1-1)
REM options -cpp -mtune=generic -march=x86-64 -g -O0 -fpre-include=/usr/include/finclude/math-vector-fortran.h
REM seed -1244473230 -1418877546 -1390084586 -1268520473 930450630 -2125011741 -275525205 -1274331409 -1102537533 -623126986 1357880916 274141447 -299407894 -108647627 -1055145069 -1684318183 -865416352 -2126443908 1699633159 -1228017096 -1799441400 451222865 -1616991103 1801702630 793634401 1538573187 1307360028 1608679283 -313817951 1179195020 -1748828994 891046176 763886284
REM
CELL 1.54180   50.00000   50.00000   50.00000   90.00000   90.00000   90.00000
LATT -1
SFAC C  
C      1  0.4656760000000  0.4844000000000  0.4284640000000 1.0
C      1  0.4693180000000  0.5219280000000  0.5715460000000 1.0
C      1  0.5036580000000  0.5375250000000  0.4284620000000 1.0
C      1  0.5343240000000  0.5156000000000  0.5715360000000 1.0
C      1  0.5306820000000  0.4780720000000  0.4284540000000 1.0
C      1  0.4963420000000  0.4624750000000  0.5715380000000 1.0
C      1  0.4109900000000  0.5045050000000  0.5170150000000 1.0
C      1  0.4593970000000  0.5793370000000  0.4829860000000 1.0
C      1  0.5484050000000  0.5748310000000  0.5170160000000 1.0
C      1  0.5890100000000  0.4954950000000  0.4829860000000 1.0
C      1  0.5406030000000  0.4206630000000  0.5170140000000 1.0
C      1  0.4515950000000  0.4251690000000  0.4829840000000 1.0
C      1  0.4911170000000  0.5497020000000  0.5093630000000 1.0
C      1  0.5386030000000  0.5325450000000  0.4906390000000 1.0
C      1  0.5474860000000  0.4828410000000  0.5093550000000 1.0
C      1  0.5088840000000  0.4502980000000  0.4906360000000 1.0
C      1  0.4613970000000  0.4674550000000  0.5093600000000 1.0
C      1  0.4525140000000  0.5171590000000  0.4906440000000 1.0
C      1  0.5153470000000  0.4042440000000  0.4640940000000 1.0
C      1  0.4247420000000  0.4388280000000  0.5359000000000 1.0
C      1  0.4093980000000  0.5345870000000  0.4641000000000 1.0
C      1  0.4846530000000  0.5957560000000  0.5359060000000 1.0
C      1  0.5752580000000  0.5611720000000  0.4641010000000 1.0
C      1  0.5906020000000  0.4654130000000  0.5359010000000 1.0
C      1  0.4394560000000  0.4857880000000  0.4919720000000 1.0
C      1  0.4574200000000  0.5453250000000  0.5080310000000 1.0
C      1  0.5179630000000  0.5595370000000  0.4919760000000 1.0
C      1  0.5605430000000  0.5142120000000  0.5080280000000 1.0
C      1  0.5425800000000  0.4546750000000  0.4919690000000 1.0
C      1  0.4820370000000  0.4404630000000  0.5080240000000 1.0
C      1  0.5058950000000  0.5187050000000  0.5556840000000 1.0
C      1  0.5191880000000  0.5042520000000  0.4443210000000 1.0
C      1  0.5132770000000  0.4855140000000  0.5556720000000 1.0
C      1  0.4941050000000  0.4812950000000  0.4443150000000 1.0
C      1  0.4808120000000  0.4957480000000  0.5556780000000 1.0
C      1  0.4867230000000  0.5144860000000  0.4443270000000 1.0
C      1  0.4573550000000  0.5414590000000  0.5392540000000 1.0
C      1  0.5145850000000  0.5576570000000  0.4607530000000 1.0
C      1  0.5572290000000  0.5161990000000  0.5392510000000 1.0
C      1  0.5426450000000  0.4585400000000  0.4607460000000 1.0
C      1  0.4854150000000  0.4423440000000  0.5392470000000 1.0
C      1  0.4427700000000  0.4838010000000  0.4607490000000 1.0
C      1  0.4425060000000  0.4641620000000  0.5374470000000 1.0
C      1  0.4402200000000  0.5318690000000  0.4625550000000 1.0
C      1  0.4977090000000  0.5677040000000  0.5374520000000 1.0
C      1  0.5574940000000  0.5358380000000  0.4625530000000 1.0
C      1  0.5597800000000  0.4681320000000  0.5374450000000 1.0
C      1  0.5022910000000  0.4322960000000  0.4625470000000 1.0
C      1  0.4669370000000  0.4578290000000  0.5550720000000 1.0
C      1  0.4469510000000  0.5075470000000  0.4449250000000 1.0
C      1  0.4800090000000  0.5497120000000  0.5550790000000 1.0
C      1  0.5330630000000  0.5421720000000  0.4449280000000 1.0
C      1  0.5530480000000  0.4924530000000  0.5550740000000 1.0
C      1  0.5199910000000  0.4502880000000  0.4449210000000 1.0
C      1  0.5798020000000  0.4688410000000  0.4708460000000 1.0
C      1  0.5129140000000  0.4153130000000  0.5291550000000 1.0
C      1  0.4331150000000  0.4464700000000  0.4708450000000 1.0
C      1  0.4201980000000  0.5311590000000  0.5291550000000 1.0
C      1  0.4870860000000  0.5846870000000  0.4708460000000 1.0
C      1  0.5668850000000  0.5535300000000  0.5291560000000 1.0
C      1  0.4505320000000  0.4576970000000  0.4436050000000 1.0
C      1  0.4386250000000  0.5216880000000  0.5563970000000 1.0
C      1  0.4880990000000  0.5639870000000  0.4436080000000 1.0
C      1  0.5494680000000  0.5423030000000  0.5563960000000 1.0
C      1  0.5613750000000  0.4783120000000  0.4436040000000 1.0
C      1  0.5119010000000  0.4360140000000  0.5563920000000 1.0
C      1  0.4967110000000  0.4817470000000  0.5955250000000 1.0
C      1  0.4825610000000  0.4937140000000  0.4044810000000 1.0
C      1  0.4858240000000  0.5119690000000  0.5955300000000 1.0
C      1  0.5032890000000  0.5182530000000  0.4044760000000 1.0
C      1  0.5174390000000  0.5062860000000  0.5955190000000 1.0
C      1  0.5141760000000  0.4880310000000  0.4044710000000 1.0
C      1  0.5093470000000  0.4789380000000  0.4735990000000 1.0
C      1  0.4864330000000  0.4813720000000  0.5263960000000 1.0
C      1  0.4770850000000  0.5024370000000  0.4736090000000 1.0
C      1  0.4906530000000  0.5210620000000  0.5264000000000 1.0
C      1  0.5135670000000  0.5186280000000  0.4736040000000 1.0
C      1  0.5229150000000  0.4975620000000  0.5263900000000 1.0
C      1  0.5543270000000  0.4166540000000  0.4931240000000 1.0
C      1  0.4549850000000  0.4112780000000  0.5068750000000 1.0
C      1  0.4006550000000  0.4946230000000  0.4931250000000 1.0
C      1  0.4456730000000  0.5833460000000  0.5068770000000 1.0
C      1  0.5450160000000  0.5887220000000  0.4931260000000 1.0
C      1  0.5993450000000  0.5053770000000  0.5068760000000 1.0
C      1  0.4648360000000  0.5520930000000  0.4650200000000 1.0
C      1  0.5275330000000  0.5564980000000  0.5349830000000 1.0
C      1  0.5626990000000  0.5044060000000  0.4650170000000 1.0
C      1  0.5351640000000  0.4479070000000  0.5349800000000 1.0
C      1  0.4724670000000  0.4435020000000  0.4650170000000 1.0
C      1  0.4373010000000  0.4955940000000  0.5349830000000 1.0
C      1  0.5361800000000  0.4942730000000  0.4793890000000 1.0
C      1  0.5131290000000  0.4658040000000  0.5206040000000 1.0
C      1  0.4769480000000  0.4715330000000  0.4793930000000 1.0
C      1  0.4638200000000  0.5057270000000  0.5206100000000 1.0
C      1  0.4868710000000  0.5341970000000  0.4793960000000 1.0
C      1  0.5230520000000  0.5284670000000  0.5206060000000 1.0
C      1  0.3934380000000  0.5144320000000  0.4740180000000 1.0
C      1  0.4592200000000  0.5995000000000  0.5259840000000 1.0
C      1  0.5657810000000  0.5850690000000  0.4740200000000 1.0
C      1  0.6065620000000  0.4855680000000  0.5259830000000 1.0
C      1  0.5407800000000  0.4005000000000  0.4740170000000 1.0
C      1  0.4342200000000  0.4149310000000  0.5259810000000 1.0
C      1  0.4136180000000  0.4672380000000  0.4823670000000 1.0
C      1  0.4284370000000  0.5584270000000  0.5176350000000 1.0
C      1  0.5148180000000  0.5911870000000  0.4823670000000 1.0
C      1  0.5863820000000  0.5327620000000  0.5176340000000 1.0
C      1  0.5715630000000  0.4415720000000  0.4823650000000 1.0
C      1  0.4851820000000  0.4088130000000  0.5176340000000 1.0
END
