TITL C-3289326-3776-517 -0.00222959105222692 125000 -554.280928868474 0 0 106 (C1) n - 1
REM
REM in /nfs/bkarasulu/CARBON/AIRSS/Generating-Clusters/AIREBO/with-SteepDescent/Higher-Symm/SD-CG/HFTN-CG
REM
REM
REM
REM
REM
REM ./C.cell (b20cbc046b6831c77cfcea5457e17084)
REM
REM compiler GCC version 9.2.1 20190827 (Red Hat 9.2.1-1)
REM options -cpp -mtune=generic -march=x86-64 -g -O0 -fpre-include=/usr/include/finclude/math-vector-fortran.h
REM seed 1262678033 -2093564573 154192109 1117207901 250858356 1872259840 -1531253472 650392429 -477336326 1800277841 -756740857 2033449188 -1132406536 -899071877 -1752861322 1144060649 -2109419193 1321838888 31598902 1870599143 604423375 -340300847 875337518 490101531 489259638 -1462091082 -1805272205 -1226573007 -1938306022 -119078588 -163694908 -1546250654 856358024
REM
CELL 1.54180   50.00000   50.00000   50.00000   90.00000   90.00000   90.00000
LATT -1
SFAC C  
C      1  0.5576720000000  0.4565710000000  0.4511860000000 1.0
C      1  0.5066040000000  0.4288210000000  0.4482980000000 1.0
C      1  0.4527080000000  0.4482290000000  0.4387540000000 1.0
C      1  0.4335140000000  0.5066680000000  0.4517560000000 1.0
C      1  0.4572620000000  0.5576530000000  0.4539810000000 1.0
C      1  0.5145720000000  0.5663750000000  0.4523920000000 1.0
C      1  0.5610660000000  0.5355220000000  0.4524400000000 1.0
C      1  0.4719480000000  0.4660650000000  0.4597060000000 1.0
C      1  0.4708490000000  0.5193530000000  0.4567900000000 1.0
C      1  0.5027450000000  0.5133370000000  0.4582530000000 1.0
C      1  0.5167350000000  0.5378580000000  0.4436440000000 1.0
C      1  0.5419520000000  0.5081060000000  0.4535310000000 1.0
C      1  0.4917530000000  0.4957930000000  0.4812010000000 1.0
C      1  0.5037540000000  0.4612660000000  0.4580640000000 1.0
C      1  0.5391650000000  0.4364840000000  0.4541540000000 1.0
C      1  0.4747130000000  0.4274190000000  0.4508140000000 1.0
C      1  0.4346900000000  0.4737030000000  0.4474710000000 1.0
C      1  0.4305990000000  0.5351950000000  0.4484470000000 1.0
C      1  0.4833530000000  0.5793730000000  0.4559260000000 1.0
C      1  0.5469050000000  0.5630750000000  0.4508480000000 1.0
C      1  0.5651550000000  0.4863690000000  0.4525640000000 1.0
C      1  0.4696830000000  0.4865560000000  0.5053610000000 1.0
C      1  0.4616320000000  0.5179920000000  0.5147810000000 1.0
C      1  0.4888550000000  0.5373540000000  0.5199940000000 1.0
C      1  0.5176430000000  0.5335140000000  0.5062690000000 1.0
C      1  0.5308320000000  0.5072260000000  0.5186920000000 1.0
C      1  0.5224310000000  0.4767520000000  0.5059960000000 1.0
C      1  0.4925960000000  0.4631670000000  0.5145750000000 1.0
C      1  0.5508790000000  0.5510650000000  0.5751890000000 1.0
C      1  0.5653130000000  0.4768270000000  0.5655260000000 1.0
C      1  0.5240270000000  0.4376550000000  0.5533210000000 1.0
C      1  0.4794270000000  0.4361930000000  0.5741830000000 1.0
C      1  0.4347800000000  0.4901630000000  0.5614480000000 1.0
C      1  0.4409910000000  0.5268540000000  0.5760710000000 1.0
C      1  0.5080400000000  0.5668230000000  0.5554770000000 1.0
C      1  0.4544080000000  0.4975000000000  0.4769930000000 1.0
C      1  0.4549690000000  0.5356270000000  0.4797850000000 1.0
C      1  0.4963330000000  0.5605560000000  0.4874390000000 1.0
C      1  0.5395820000000  0.5156050000000  0.4869120000000 1.0
C      1  0.5542850000000  0.4793170000000  0.4998910000000 1.0
C      1  0.5171320000000  0.4513650000000  0.4840000000000 1.0
C      1  0.4610290000000  0.4600640000000  0.4884100000000 1.0
C      1  0.4965360000000  0.5451220000000  0.5790030000000 1.0
C      1  0.5450590000000  0.5253730000000  0.5807630000000 1.0
C      1  0.5430880000000  0.4915260000000  0.5833200000000 1.0
C      1  0.5230390000000  0.4657110000000  0.5725660000000 1.0
C      1  0.4898660000000  0.4658690000000  0.5817350000000 1.0
C      1  0.4665120000000  0.4883920000000  0.5733740000000 1.0
C      1  0.4717020000000  0.5216570000000  0.5803170000000 1.0
C      1  0.4879900000000  0.5989970000000  0.4833980000000 1.0
C      1  0.5619550000000  0.5653460000000  0.4783580000000 1.0
C      1  0.5841340000000  0.4900860000000  0.4759520000000 1.0
C      1  0.5475350000000  0.4161420000000  0.4765350000000 1.0
C      1  0.4693920000000  0.4223550000000  0.4784380000000 1.0
C      1  0.4175770000000  0.4764900000000  0.4725900000000 1.0
C      1  0.4170830000000  0.5502670000000  0.4727720000000 1.0
C      1  0.5856820000000  0.4885110000000  0.5517690000000 1.0
C      1  0.5548150000000  0.4506480000000  0.5535840000000 1.0
C      1  0.4915950000000  0.4277340000000  0.5508590000000 1.0
C      1  0.4228170000000  0.4692600000000  0.5475080000000 1.0
C      1  0.4273350000000  0.5204500000000  0.5479010000000 1.0
C      1  0.4867800000000  0.5751040000000  0.5374980000000 1.0
C      1  0.5379410000000  0.5635830000000  0.5521870000000 1.0
C      1  0.4769780000000  0.5077260000000  0.4284180000000 1.0
C      1  0.5007690000000  0.5206800000000  0.4190260000000 1.0
C      1  0.5348310000000  0.5197920000000  0.4223850000000 1.0
C      1  0.5339340000000  0.4956310000000  0.4020230000000 1.0
C      1  0.5186330000000  0.4771570000000  0.4156390000000 1.0
C      1  0.4924140000000  0.4676780000000  0.4101690000000 1.0
C      1  0.4746010000000  0.4797300000000  0.4286480000000 1.0
C      1  0.4284290000000  0.4553890000000  0.4938900000000 1.0
C      1  0.4259220000000  0.5253720000000  0.4941780000000 1.0
C      1  0.4669440000000  0.5613400000000  0.4932060000000 1.0
C      1  0.5446550000000  0.5773000000000  0.5008530000000 1.0
C      1  0.5708480000000  0.5108010000000  0.4994380000000 1.0
C      1  0.5505450000000  0.4466260000000  0.4913010000000 1.0
C      1  0.4981650000000  0.4260960000000  0.4966190000000 1.0
C      1  0.5167530000000  0.5651210000000  0.5133120000000 1.0
C      1  0.5671240000000  0.5367260000000  0.5211410000000 1.0
C      1  0.5664860000000  0.4628880000000  0.5241370000000 1.0
C      1  0.5162530000000  0.4397550000000  0.5219840000000 1.0
C      1  0.4581240000000  0.4415510000000  0.5167970000000 1.0
C      1  0.4322140000000  0.5010920000000  0.5171350000000 1.0
C      1  0.4612770000000  0.5567360000000  0.5244730000000 1.0
C      1  0.5772010000000  0.5371910000000  0.4789460000000 1.0
C      1  0.5789850000000  0.4578740000000  0.4764150000000 1.0
C      1  0.5176400000000  0.4096330000000  0.4741240000000 1.0
C      1  0.4417950000000  0.4254770000000  0.4846700000000 1.0
C      1  0.4062580000000  0.5012200000000  0.4804750000000 1.0
C      1  0.4381980000000  0.5718950000000  0.4782700000000 1.0
C      1  0.5186300000000  0.5848720000000  0.4791740000000 1.0
C      1  0.5156580000000  0.5176770000000  0.5712610000000 1.0
C      1  0.5362960000000  0.5002200000000  0.5511160000000 1.0
C      1  0.5210010000000  0.4749950000000  0.5399200000000 1.0
C      1  0.4913650000000  0.4692180000000  0.5488080000000 1.0
C      1  0.4677930000000  0.4871590000000  0.5393710000000 1.0
C      1  0.4672480000000  0.5180870000000  0.5472270000000 1.0
C      1  0.4959610000000  0.5293970000000  0.5495500000000 1.0
C      1  0.4793380000000  0.4251090000000  0.5249270000000 1.0
C      1  0.4229990000000  0.4725100000000  0.5199390000000 1.0
C      1  0.4310370000000  0.5421450000000  0.5233190000000 1.0
C      1  0.4948880000000  0.5911540000000  0.5125630000000 1.0
C      1  0.5532930000000  0.5596330000000  0.5277010000000 1.0
C      1  0.5848560000000  0.4906550000000  0.5229910000000 1.0
C      1  0.5499030000000  0.4341050000000  0.5231200000000 1.0
C      1  0.5176110000000  0.4854860000000  0.4462720000000 1.0
END
