TITL C-3289329-2751-129 -0.00162958977305995 125000 -722.168490231248 0 0 135 (C1) n - 1
REM
REM in /nfs/bkarasulu/CARBON/AIRSS/Generating-Clusters/AIREBO/with-SteepDescent/Higher-Symm/SD-CG/HFTN-CG
REM
REM
REM
REM
REM
REM ./C.cell (b20cbc046b6831c77cfcea5457e17084)
REM
REM compiler GCC version 9.2.1 20190827 (Red Hat 9.2.1-1)
REM options -cpp -mtune=generic -march=x86-64 -g -O0 -fpre-include=/usr/include/finclude/math-vector-fortran.h
REM seed 1271335181 -912849275 -1568846828 1301386110 497772765 2025673382 -1569841929 14233358 1277670594 473326765 -2058275194 376678596 1194735755 -882270930 438243668 1279540873 -2127132372 -1814373511 -1952004943 -625703712 -380256446 -631907861 -1822595942 851722882 -1269722703 86407055 -28212272 1960806042 1936570890 1463786912 1515303567 -727453411 196017875
REM
CELL 1.54180   50.00000   50.00000   50.00000   90.00000   90.00000   90.00000
LATT -1
SFAC C  
C      1  0.5785390000000  0.5474420000000  0.4621150000000 1.0
C      1  0.4081540000000  0.5160400000000  0.5338780000000 1.0
C      1  0.5266380000000  0.4140460000000  0.4418940000000 1.0
C      1  0.4991390000000  0.4952870000000  0.5100530000000 1.0
C      1  0.5245860000000  0.4141530000000  0.5521190000000 1.0
C      1  0.5400910000000  0.5063740000000  0.4638260000000 1.0
C      1  0.4810250000000  0.5401400000000  0.5920880000000 1.0
C      1  0.5530160000000  0.4222470000000  0.5477200000000 1.0
C      1  0.4734190000000  0.4877600000000  0.5915650000000 1.0
C      1  0.5484040000000  0.5138080000000  0.4955300000000 1.0
C      1  0.4292140000000  0.4658750000000  0.5775050000000 1.0
C      1  0.5831060000000  0.4798240000000  0.5100200000000 1.0
C      1  0.4523310000000  0.5379690000000  0.5476590000000 1.0
C      1  0.4104590000000  0.5293290000000  0.5070320000000 1.0
C      1  0.4150670000000  0.4477170000000  0.4978250000000 1.0
C      1  0.5299050000000  0.5241550000000  0.3988930000000 1.0
C      1  0.4756120000000  0.5137210000000  0.5424710000000 1.0
C      1  0.5437950000000  0.4410200000000  0.4477970000000 1.0
C      1  0.4685390000000  0.5737950000000  0.4861260000000 1.0
C      1  0.5012730000000  0.5417480000000  0.4781790000000 1.0
C      1  0.5160030000000  0.5409930000000  0.5281180000000 1.0
C      1  0.5281670000000  0.5415230000000  0.5598640000000 1.0
C      1  0.5493200000000  0.4846610000000  0.5758910000000 1.0
C      1  0.4174230000000  0.4233630000000  0.5088270000000 1.0
C      1  0.5398950000000  0.5081690000000  0.5865640000000 1.0
C      1  0.5194380000000  0.4995440000000  0.3885060000000 1.0
C      1  0.4684430000000  0.4065650000000  0.5155570000000 1.0
C      1  0.4555090000000  0.5187300000000  0.4882030000000 1.0
C      1  0.5122170000000  0.4420940000000  0.5579480000000 1.0
C      1  0.5215090000000  0.4978400000000  0.4283630000000 1.0
C      1  0.4279120000000  0.5235950000000  0.5597100000000 1.0
C      1  0.4707280000000  0.5245180000000  0.4363330000000 1.0
C      1  0.4595510000000  0.4545170000000  0.4533050000000 1.0
C      1  0.4441670000000  0.5100120000000  0.4208260000000 1.0
C      1  0.4603800000000  0.4656420000000  0.5782410000000 1.0
C      1  0.4471770000000  0.5346080000000  0.4593070000000 1.0
C      1  0.4760250000000  0.4205090000000  0.4918500000000 1.0
C      1  0.4994980000000  0.5757710000000  0.4404870000000 1.0
C      1  0.5277120000000  0.5741800000000  0.5612320000000 1.0
C      1  0.5591610000000  0.4990320000000  0.5246750000000 1.0
C      1  0.5893470000000  0.5089240000000  0.5368180000000 1.0
C      1  0.5393950000000  0.4724930000000  0.4609450000000 1.0
C      1  0.5788790000000  0.5024520000000  0.4901030000000 1.0
C      1  0.5756380000000  0.4542180000000  0.4903230000000 1.0
C      1  0.4464770000000  0.5342850000000  0.5868150000000 1.0
C      1  0.5556770000000  0.4971360000000  0.4276840000000 1.0
C      1  0.5923420000000  0.5325580000000  0.5125430000000 1.0
C      1  0.5586140000000  0.5369560000000  0.5454250000000 1.0
C      1  0.5107010000000  0.5254910000000  0.5842740000000 1.0
C      1  0.5672910000000  0.5496930000000  0.5192820000000 1.0
C      1  0.5757740000000  0.4415200000000  0.4379970000000 1.0
C      1  0.4381730000000  0.5015810000000  0.5119030000000 1.0
C      1  0.5729190000000  0.5373310000000  0.4173380000000 1.0
C      1  0.4733890000000  0.5426420000000  0.4964460000000 1.0
C      1  0.4640130000000  0.5585600000000  0.5707020000000 1.0
C      1  0.5349450000000  0.5810260000000  0.4995940000000 1.0
C      1  0.5206750000000  0.4778080000000  0.5276110000000 1.0
C      1  0.4434680000000  0.5718500000000  0.5079850000000 1.0
C      1  0.4219560000000  0.4672260000000  0.4494250000000 1.0
C      1  0.5543550000000  0.4295120000000  0.4969100000000 1.0
C      1  0.4419940000000  0.4450560000000  0.5316720000000 1.0
C      1  0.5296600000000  0.5306120000000  0.4323780000000 1.0
C      1  0.4514520000000  0.5661900000000  0.4510160000000 1.0
C      1  0.4337160000000  0.4928380000000  0.5575680000000 1.0
C      1  0.5317180000000  0.4633030000000  0.5761680000000 1.0
C      1  0.5635900000000  0.4123210000000  0.5222920000000 1.0
C      1  0.5724460000000  0.4646290000000  0.4623770000000 1.0
C      1  0.5509010000000  0.5455250000000  0.4906300000000 1.0
C      1  0.4441650000000  0.4955620000000  0.4661190000000 1.0
C      1  0.5608070000000  0.5258600000000  0.4451590000000 1.0
C      1  0.4906320000000  0.5934650000000  0.4840240000000 1.0
C      1  0.4999540000000  0.4508510000000  0.5276990000000 1.0
C      1  0.4750680000000  0.5829860000000  0.5554930000000 1.0
C      1  0.4983740000000  0.5992990000000  0.5097630000000 1.0
C      1  0.4832630000000  0.4710040000000  0.4712500000000 1.0
C      1  0.4947990000000  0.4866910000000  0.4009990000000 1.0
C      1  0.5049110000000  0.5878830000000  0.5649270000000 1.0
C      1  0.4540970000000  0.4652960000000  0.5071700000000 1.0
C      1  0.4964730000000  0.4171890000000  0.4446620000000 1.0
C      1  0.5085520000000  0.5923210000000  0.4618720000000 1.0
C      1  0.5615900000000  0.4594500000000  0.5219240000000 1.0
C      1  0.4574210000000  0.4526340000000  0.4194210000000 1.0
C      1  0.4041980000000  0.4874920000000  0.5313450000000 1.0
C      1  0.4818610000000  0.4496440000000  0.4989020000000 1.0
C      1  0.4812440000000  0.3998990000000  0.4285050000000 1.0
C      1  0.4825400000000  0.5524330000000  0.4517620000000 1.0
C      1  0.5984300000000  0.5363050000000  0.4838230000000 1.0
C      1  0.5112810000000  0.5621260000000  0.5035390000000 1.0
C      1  0.4568390000000  0.4868550000000  0.5333700000000 1.0
C      1  0.5130270000000  0.4222410000000  0.5147660000000 1.0
C      1  0.4900010000000  0.4464010000000  0.4405280000000 1.0
C      1  0.4926500000000  0.5732490000000  0.5297910000000 1.0
C      1  0.4752200000000  0.4373710000000  0.5783450000000 1.0
C      1  0.5054650000000  0.4989440000000  0.5493140000000 1.0
C      1  0.5358280000000  0.5113730000000  0.5461160000000 1.0
C      1  0.5306900000000  0.5448640000000  0.4632360000000 1.0
C      1  0.5365670000000  0.5902640000000  0.4706500000000 1.0
C      1  0.4930880000000  0.4118540000000  0.5384040000000 1.0
C      1  0.5617560000000  0.4506490000000  0.5504850000000 1.0
C      1  0.5921540000000  0.5099040000000  0.4641570000000 1.0
C      1  0.4768610000000  0.5020150000000  0.4588400000000 1.0
C      1  0.4683320000000  0.4296350000000  0.5481240000000 1.0
C      1  0.5186640000000  0.4123750000000  0.4893710000000 1.0
C      1  0.4995690000000  0.4588330000000  0.5838850000000 1.0
C      1  0.4843800000000  0.5410750000000  0.5242730000000 1.0
C      1  0.4735300000000  0.4912080000000  0.4968180000000 1.0
C      1  0.5048390000000  0.5708480000000  0.4133290000000 1.0
C      1  0.4146220000000  0.4788580000000  0.5026570000000 1.0
C      1  0.5068580000000  0.5450820000000  0.4030710000000 1.0
C      1  0.4373800000000  0.5835520000000  0.4766420000000 1.0
C      1  0.4210440000000  0.4622500000000  0.5459780000000 1.0
C      1  0.5597120000000  0.5701360000000  0.4703120000000 1.0
C      1  0.5484770000000  0.5861790000000  0.5459880000000 1.0
C      1  0.4215910000000  0.5557870000000  0.4648160000000 1.0
C      1  0.4306720000000  0.4928410000000  0.4375830000000 1.0
C      1  0.4380390000000  0.4579300000000  0.4779110000000 1.0
C      1  0.4951800000000  0.4103340000000  0.4747400000000 1.0
C      1  0.4181950000000  0.5545300000000  0.4973300000000 1.0
C      1  0.4954480000000  0.5166180000000  0.4171540000000 1.0
C      1  0.4422600000000  0.4135420000000  0.5226740000000 1.0
C      1  0.5069340000000  0.5085350000000  0.4733640000000 1.0
C      1  0.4744810000000  0.4623020000000  0.5471180000000 1.0
C      1  0.5215760000000  0.4817250000000  0.4884040000000 1.0
C      1  0.4845440000000  0.4641230000000  0.4117600000000 1.0
C      1  0.4518230000000  0.5688460000000  0.5350240000000 1.0
C      1  0.5431550000000  0.4170230000000  0.4711200000000 1.0
C      1  0.5334100000000  0.4550120000000  0.5057940000000 1.0
C      1  0.4163270000000  0.5060950000000  0.4829070000000 1.0
C      1  0.5081530000000  0.4731290000000  0.4475420000000 1.0
C      1  0.5543930000000  0.5779040000000  0.5195470000000 1.0
C      1  0.5709590000000  0.4834540000000  0.5525160000000 1.0
C      1  0.5205380000000  0.5172640000000  0.5098120000000 1.0
C      1  0.5789360000000  0.4904810000000  0.4472790000000 1.0
C      1  0.5038440000000  0.4923910000000  0.5804180000000 1.0
C      1  0.4702750000000  0.5136760000000  0.5760520000000 1.0
END
