TITL C-3289327-5623-695 -0.00643306687066793 125000 -1079.62537131936 0 0 191 (C1) n - 1
REM
REM in /nfs/bkarasulu/CARBON/AIRSS/Generating-Clusters/AIREBO/with-SteepDescent/Higher-Symm/SD-CG/HFTN-CG
REM
REM
REM
REM
REM
REM ./C.cell (b20cbc046b6831c77cfcea5457e17084)
REM
REM compiler GCC version 9.2.1 20190827 (Red Hat 9.2.1-1)
REM options -cpp -mtune=generic -march=x86-64 -g -O0 -fpre-include=/usr/include/finclude/math-vector-fortran.h
REM seed -1670375962 -923655088 1027445908 211346268 698308544 1843703347 747763316 -116105065 -1479378615 -1545021208 893762850 78897387 -937996129 -2087363591 123798127 1156450548 1190813098 -1111763138 1846310840 747808634 -193208353 1241200087 939031020 -1548771168 -1917222966 -446224829 -2117206351 -1438242998 1324296663 -1252531847 -1720527800 920375304 -900939337
REM
CELL 1.54180   50.00000   50.00000   50.00000   90.00000   90.00000   90.00000
LATT -1
SFAC C  
C      1  0.5258280000000  0.4817060000000  0.6026720000000 1.0
C      1  0.5264660000000  0.5174480000000  0.3945860000000 1.0
C      1  0.4738840000000  0.4816390000000  0.6096170000000 1.0
C      1  0.4744550000000  0.5190940000000  0.3891190000000 1.0
C      1  0.4650490000000  0.4340210000000  0.4800700000000 1.0
C      1  0.4540350000000  0.5706260000000  0.5295120000000 1.0
C      1  0.5410620000000  0.4337380000000  0.4855090000000 1.0
C      1  0.5398730000000  0.5651670000000  0.5141820000000 1.0
C      1  0.4508230000000  0.5368760000000  0.4006130000000 1.0
C      1  0.4492470000000  0.4656700000000  0.6003680000000 1.0
C      1  0.5528600000000  0.5326260000000  0.4035430000000 1.0
C      1  0.5500410000000  0.4640680000000  0.5949000000000 1.0
C      1  0.4495360000000  0.5141010000000  0.4535950000000 1.0
C      1  0.4515840000000  0.4888830000000  0.5424860000000 1.0
C      1  0.5511610000000  0.5176110000000  0.4549380000000 1.0
C      1  0.5493540000000  0.4804570000000  0.5440500000000 1.0
C      1  0.3898870000000  0.5389210000000  0.5386650000000 1.0
C      1  0.3979890000000  0.4602820000000  0.4657110000000 1.0
C      1  0.6031930000000  0.5368960000000  0.5384340000000 1.0
C      1  0.6040490000000  0.4614950000000  0.4621130000000 1.0
C      1  0.5873630000000  0.5234640000000  0.5576120000000 1.0
C      1  0.5886200000000  0.4750400000000  0.4425430000000 1.0
C      1  0.4024650000000  0.5233370000000  0.5598750000000 1.0
C      1  0.4073400000000  0.4740320000000  0.4436790000000 1.0
C      1  0.4021230000000  0.5241520000000  0.4801940000000 1.0
C      1  0.3991020000000  0.4729350000000  0.5245060000000 1.0
C      1  0.6036700000000  0.5221340000000  0.4789060000000 1.0
C      1  0.6033670000000  0.4765830000000  0.5218810000000 1.0
C      1  0.5726930000000  0.4158830000000  0.4583300000000 1.0
C      1  0.5716600000000  0.5827060000000  0.5397410000000 1.0
C      1  0.4388440000000  0.4231480000000  0.4613100000000 1.0
C      1  0.4257030000000  0.5813640000000  0.5444170000000 1.0
C      1  0.5529800000000  0.5964970000000  0.5162760000000 1.0
C      1  0.5539410000000  0.4026550000000  0.4804190000000 1.0
C      1  0.4368380000000  0.5946440000000  0.5148080000000 1.0
C      1  0.4473120000000  0.4070150000000  0.4906850000000 1.0
C      1  0.5356280000000  0.5588200000000  0.4142250000000 1.0
C      1  0.5324490000000  0.4387710000000  0.5819650000000 1.0
C      1  0.4715860000000  0.5607340000000  0.4145620000000 1.0
C      1  0.4677430000000  0.4395530000000  0.5891270000000 1.0
C      1  0.4141000000000  0.4960470000000  0.5309650000000 1.0
C      1  0.4277380000000  0.5022820000000  0.4849220000000 1.0
C      1  0.5792690000000  0.5001710000000  0.5263060000000 1.0
C      1  0.5801650000000  0.4980310000000  0.4741090000000 1.0
C      1  0.5188400000000  0.4028930000000  0.5477910000000 1.0
C      1  0.5163480000000  0.5959650000000  0.4510040000000 1.0
C      1  0.4867140000000  0.4074620000000  0.5487790000000 1.0
C      1  0.4832120000000  0.5928850000000  0.4524030000000 1.0
C      1  0.5665960000000  0.5355890000000  0.4761680000000 1.0
C      1  0.5662990000000  0.4626090000000  0.5234560000000 1.0
C      1  0.4383260000000  0.5407240000000  0.4869290000000 1.0
C      1  0.4366440000000  0.4603550000000  0.5186450000000 1.0
C      1  0.5194200000000  0.5310250000000  0.4252240000000 1.0
C      1  0.5171200000000  0.4676660000000  0.5726790000000 1.0
C      1  0.4862460000000  0.5322500000000  0.4180330000000 1.0
C      1  0.4841680000000  0.4662970000000  0.5811120000000 1.0
C      1  0.5058830000000  0.5069630000000  0.5523260000000 1.0
C      1  0.5111690000000  0.4990180000000  0.4489230000000 1.0
C      1  0.4842620000000  0.5124830000000  0.5716190000000 1.0
C      1  0.4906020000000  0.4941220000000  0.4291730000000 1.0
C      1  0.5141930000000  0.5056670000000  0.6131280000000 1.0
C      1  0.5139120000000  0.4932740000000  0.3853550000000 1.0
C      1  0.4859750000000  0.5055750000000  0.6152850000000 1.0
C      1  0.4854910000000  0.4937260000000  0.3850670000000 1.0
C      1  0.4856090000000  0.6064830000000  0.5000460000000 1.0
C      1  0.4840260000000  0.3931920000000  0.4981260000000 1.0
C      1  0.5149520000000  0.6058220000000  0.5011930000000 1.0
C      1  0.5135670000000  0.3916670000000  0.4985670000000 1.0
C      1  0.4721280000000  0.4285030000000  0.4261100000000 1.0
C      1  0.4735500000000  0.5646420000000  0.5691400000000 1.0
C      1  0.5247960000000  0.4333900000000  0.4280190000000 1.0
C      1  0.5244280000000  0.5675190000000  0.5702350000000 1.0
C      1  0.4751600000000  0.4143760000000  0.5183330000000 1.0
C      1  0.4748160000000  0.5851740000000  0.4820300000000 1.0
C      1  0.5256040000000  0.4129330000000  0.5169920000000 1.0
C      1  0.5267670000000  0.5854820000000  0.4814770000000 1.0
C      1  0.4282600000000  0.4703400000000  0.5814430000000 1.0
C      1  0.4303000000000  0.5302550000000  0.4190390000000 1.0
C      1  0.5727330000000  0.4683840000000  0.5787580000000 1.0
C      1  0.5748670000000  0.5294750000000  0.4209660000000 1.0
C      1  0.5465490000000  0.4929590000000  0.4749970000000 1.0
C      1  0.5447700000000  0.5058850000000  0.5243400000000 1.0
C      1  0.4590150000000  0.4926260000000  0.4757060000000 1.0
C      1  0.4602340000000  0.5155130000000  0.5310360000000 1.0
C      1  0.5131440000000  0.5549850000000  0.5931110000000 1.0
C      1  0.5127610000000  0.4450070000000  0.4053680000000 1.0
C      1  0.4854530000000  0.5542650000000  0.5919630000000 1.0
C      1  0.4846210000000  0.4449160000000  0.4065450000000 1.0
C      1  0.4848360000000  0.5732340000000  0.5396760000000 1.0
C      1  0.4876700000000  0.4254980000000  0.4561460000000 1.0
C      1  0.5188300000000  0.5776370000000  0.5382190000000 1.0
C      1  0.5213080000000  0.4225770000000  0.4600780000000 1.0
C      1  0.5510360000000  0.4077280000000  0.5468660000000 1.0
C      1  0.5501160000000  0.5911800000000  0.4502310000000 1.0
C      1  0.4542220000000  0.4094460000000  0.5516770000000 1.0
C      1  0.4506840000000  0.5920390000000  0.4515160000000 1.0
C      1  0.4256160000000  0.5221210000000  0.5124070000000 1.0
C      1  0.4283380000000  0.4713930000000  0.4891620000000 1.0
C      1  0.5724650000000  0.5244860000000  0.5034120000000 1.0
C      1  0.5729380000000  0.4735290000000  0.4966970000000 1.0
C      1  0.6038320000000  0.5293870000000  0.5094770000000 1.0
C      1  0.6041940000000  0.4691240000000  0.4909750000000 1.0
C      1  0.3951210000000  0.5312800000000  0.5094070000000 1.0
C      1  0.3979740000000  0.4672750000000  0.4968210000000 1.0
C      1  0.4838090000000  0.4149900000000  0.5817270000000 1.0
C      1  0.4903250000000  0.5826140000000  0.4238390000000 1.0
C      1  0.5137490000000  0.4155940000000  0.5768200000000 1.0
C      1  0.5199010000000  0.5838750000000  0.4201530000000 1.0
C      1  0.4201460000000  0.4349300000000  0.5032020000000 1.0
C      1  0.4167410000000  0.5634020000000  0.5001930000000 1.0
C      1  0.5740300000000  0.4339580000000  0.4939180000000 1.0
C      1  0.5724560000000  0.5642120000000  0.5044280000000 1.0
C      1  0.5161360000000  0.4711920000000  0.4610610000000 1.0
C      1  0.5145800000000  0.5311430000000  0.5371780000000 1.0
C      1  0.4874930000000  0.4593160000000  0.4575440000000 1.0
C      1  0.4930510000000  0.5488650000000  0.5176580000000 1.0
C      1  0.5666150000000  0.4592440000000  0.4290830000000 1.0
C      1  0.5649980000000  0.5393970000000  0.5694630000000 1.0
C      1  0.4320960000000  0.4625770000000  0.4272310000000 1.0
C      1  0.4206700000000  0.5393350000000  0.5808920000000 1.0
C      1  0.4239780000000  0.4467290000000  0.5671270000000 1.0
C      1  0.4257260000000  0.5517050000000  0.4356290000000 1.0
C      1  0.5801140000000  0.4445730000000  0.5660290000000 1.0
C      1  0.5811910000000  0.5537980000000  0.4336410000000 1.0
C      1  0.5209900000000  0.5527510000000  0.4887250000000 1.0
C      1  0.5187810000000  0.4451860000000  0.5085620000000 1.0
C      1  0.4872850000000  0.5572980000000  0.4880600000000 1.0
C      1  0.4847940000000  0.4445960000000  0.5056790000000 1.0
C      1  0.5462200000000  0.4783130000000  0.4139860000000 1.0
C      1  0.5440960000000  0.5201830000000  0.5825990000000 1.0
C      1  0.4424680000000  0.4886500000000  0.4076500000000 1.0
C      1  0.4462860000000  0.5176450000000  0.5823000000000 1.0
C      1  0.5378640000000  0.4555910000000  0.4455410000000 1.0
C      1  0.5368950000000  0.5454850000000  0.5526460000000 1.0
C      1  0.4623850000000  0.4680750000000  0.4399420000000 1.0
C      1  0.4460350000000  0.5534700000000  0.5645810000000 1.0
C      1  0.4736400000000  0.5276280000000  0.5983260000000 1.0
C      1  0.4731280000000  0.4738490000000  0.4082010000000 1.0
C      1  0.5263140000000  0.5302260000000  0.6022040000000 1.0
C      1  0.5264160000000  0.4691620000000  0.3958970000000 1.0
C      1  0.5577410000000  0.4040020000000  0.5142990000000 1.0
C      1  0.5588150000000  0.5947180000000  0.4827420000000 1.0
C      1  0.4420490000000  0.4075950000000  0.5221710000000 1.0
C      1  0.4420390000000  0.5905210000000  0.4844420000000 1.0
C      1  0.4784200000000  0.3946950000000  0.4673370000000 1.0
C      1  0.4878220000000  0.6047870000000  0.5302690000000 1.0
C      1  0.5105100000000  0.3951230000000  0.4685950000000 1.0
C      1  0.5205480000000  0.6103960000000  0.5318530000000 1.0
C      1  0.4686640000000  0.4661630000000  0.5264460000000 1.0
C      1  0.4681620000000  0.5337830000000  0.4741540000000 1.0
C      1  0.5212810000000  0.4620590000000  0.5385760000000 1.0
C      1  0.5228410000000  0.5360540000000  0.4586920000000 1.0
C      1  0.4637860000000  0.4893630000000  0.5717170000000 1.0
C      1  0.4631560000000  0.5085530000000  0.4258720000000 1.0
C      1  0.5315990000000  0.4978300000000  0.5665930000000 1.0
C      1  0.5367640000000  0.5020390000000  0.4298820000000 1.0
C      1  0.4426200000000  0.5402470000000  0.5356500000000 1.0
C      1  0.4494920000000  0.4607860000000  0.4694350000000 1.0
C      1  0.5542240000000  0.5373450000000  0.5274660000000 1.0
C      1  0.5553790000000  0.4612370000000  0.4715440000000 1.0
C      1  0.4450920000000  0.5711780000000  0.4325280000000 1.0
C      1  0.4450960000000  0.4287400000000  0.5697860000000 1.0
C      1  0.5592140000000  0.5714980000000  0.4323730000000 1.0
C      1  0.5584730000000  0.4267970000000  0.5661720000000 1.0
C      1  0.5917450000000  0.5630520000000  0.5273620000000 1.0
C      1  0.5931630000000  0.4346530000000  0.4711280000000 1.0
C      1  0.4064910000000  0.5652940000000  0.5262820000000 1.0
C      1  0.4145800000000  0.4363250000000  0.4758180000000 1.0
C      1  0.4205250000000  0.5728470000000  0.5746360000000 1.0
C      1  0.4440600000000  0.4326480000000  0.4327730000000 1.0
C      1  0.5664930000000  0.5723000000000  0.5660470000000 1.0
C      1  0.5687010000000  0.4264920000000  0.4317700000000 1.0
C      1  0.4150870000000  0.5490890000000  0.4631390000000 1.0
C      1  0.4129620000000  0.4480940000000  0.5399500000000 1.0
C      1  0.5921100000000  0.5492150000000  0.4615630000000 1.0
C      1  0.5914640000000  0.4491710000000  0.5384560000000 1.0
C      1  0.5224600000000  0.5238570000000  0.5072720000000 1.0
C      1  0.5233320000000  0.4742510000000  0.4914020000000 1.0
C      1  0.4819310000000  0.5199110000000  0.5170430000000 1.0
C      1  0.4834430000000  0.4727690000000  0.4866670000000 1.0
C      1  0.4260180000000  0.4986230000000  0.5627070000000 1.0
C      1  0.4248660000000  0.5012780000000  0.4338570000000 1.0
C      1  0.5771520000000  0.4926430000000  0.5593970000000 1.0
C      1  0.5800690000000  0.5058190000000  0.4410110000000 1.0
C      1  0.5830350000000  0.5730690000000  0.4786830000000 1.0
C      1  0.5827750000000  0.4253630000000  0.5206360000000 1.0
C      1  0.4123980000000  0.5801670000000  0.4738190000000 1.0
C      1  0.4117140000000  0.4172370000000  0.5273300000000 1.0
C      1  0.4980430000000  0.5175970000000  0.4728910000000 1.0
C      1  0.4974940000000  0.4836150000000  0.5311840000000 1.0
C      1  0.5010880000000  0.4982340000000  0.5006880000000 1.0
END
