TITL C-3289330-4660-616 0.000970029150499688 125000 -621.545964739291 0 0 116 (C1) n - 1
REM
REM in /nfs/bkarasulu/CARBON/AIRSS/Generating-Clusters/AIREBO/with-SteepDescent/Higher-Symm/SD-CG/HFTN-CG
REM
REM
REM
REM
REM
REM ./C.cell (b20cbc046b6831c77cfcea5457e17084)
REM
REM compiler GCC version 9.2.1 20190827 (Red Hat 9.2.1-1)
REM options -cpp -mtune=generic -march=x86-64 -g -O0 -fpre-include=/usr/include/finclude/math-vector-fortran.h
REM seed 270199314 -152474552 1458561862 -1973747328 -1172324185 -78312261 1127199138 2097206157 -1413768309 -520480318 -1428584888 696409231 -1234894425 -1267157628 -454703211 -686989416 -1147503747 -157302398 -321395929 -1092886435 -1807748418 263350895 -113313757 142691746 -2031248468 1191159512 -123707787 -1203776342 237759344 -1028148376 1998157023 -1853183756 1311624102
REM
CELL 1.54180   50.00000   50.00000   50.00000   90.00000   90.00000   90.00000
LATT -1
SFAC C  
C      1  0.4505740000000  0.4881650000000  0.4734240000000 1.0
C      1  0.4699680000000  0.4612530000000  0.5101170000000 1.0
C      1  0.4526340000000  0.4610980000000  0.5574610000000 1.0
C      1  0.4506460000000  0.5261690000000  0.5330460000000 1.0
C      1  0.4487520000000  0.5574670000000  0.5258160000000 1.0
C      1  0.4577250000000  0.5500630000000  0.4750140000000 1.0
C      1  0.4513140000000  0.5026790000000  0.4454820000000 1.0
C      1  0.4832400000000  0.5554190000000  0.4268630000000 1.0
C      1  0.4876420000000  0.4825010000000  0.4071920000000 1.0
C      1  0.4798100000000  0.4221890000000  0.4282090000000 1.0
C      1  0.4909330000000  0.4158750000000  0.5334740000000 1.0
C      1  0.5032730000000  0.4596250000000  0.5982270000000 1.0
C      1  0.4953160000000  0.5473360000000  0.5800240000000 1.0
C      1  0.4854610000000  0.5876690000000  0.5086740000000 1.0
C      1  0.5063580000000  0.4112700000000  0.5104950000000 1.0
C      1  0.5115460000000  0.4343480000000  0.5879770000000 1.0
C      1  0.5131420000000  0.5252110000000  0.5889410000000 1.0
C      1  0.5054710000000  0.6014830000000  0.5307320000000 1.0
C      1  0.5139630000000  0.5853060000000  0.4612090000000 1.0
C      1  0.5063510000000  0.5115690000000  0.4093010000000 1.0
C      1  0.5015800000000  0.4400600000000  0.4291100000000 1.0
C      1  0.5660010000000  0.5091810000000  0.5403090000000 1.0
C      1  0.5553310000000  0.5328880000000  0.5200620000000 1.0
C      1  0.5551080000000  0.5419220000000  0.4748500000000 1.0
C      1  0.5551720000000  0.4936440000000  0.4642810000000 1.0
C      1  0.5598720000000  0.4627640000000  0.4731070000000 1.0
C      1  0.5544270000000  0.4610680000000  0.5066350000000 1.0
C      1  0.5549790000000  0.4771000000000  0.5366360000000 1.0
C      1  0.4525960000000  0.4355890000000  0.5054870000000 1.0
C      1  0.4236580000000  0.4752370000000  0.5545360000000 1.0
C      1  0.4333840000000  0.5267650000000  0.5604540000000 1.0
C      1  0.4242700000000  0.5599660000000  0.5053800000000 1.0
C      1  0.4275440000000  0.5444300000000  0.4602670000000 1.0
C      1  0.4260440000000  0.4900230000000  0.4292220000000 1.0
C      1  0.4327290000000  0.4453260000000  0.4517770000000 1.0
C      1  0.5434290000000  0.4418990000000  0.4590750000000 1.0
C      1  0.5523310000000  0.4302180000000  0.5189800000000 1.0
C      1  0.5395680000000  0.4701060000000  0.5661360000000 1.0
C      1  0.5533660000000  0.5311820000000  0.5620480000000 1.0
C      1  0.5469590000000  0.5648650000000  0.5182490000000 1.0
C      1  0.5445480000000  0.5614450000000  0.4520860000000 1.0
C      1  0.5424780000000  0.4969110000000  0.4333740000000 1.0
C      1  0.5288440000000  0.5803830000000  0.5425180000000 1.0
C      1  0.5389190000000  0.5778840000000  0.4813280000000 1.0
C      1  0.5323920000000  0.5252360000000  0.4207300000000 1.0
C      1  0.5326550000000  0.4488630000000  0.4303390000000 1.0
C      1  0.5350890000000  0.4129120000000  0.5048840000000 1.0
C      1  0.5355750000000  0.4386100000000  0.5651040000000 1.0
C      1  0.5405810000000  0.5189760000000  0.5843600000000 1.0
C      1  0.4308170000000  0.4616130000000  0.5028860000000 1.0
C      1  0.4190990000000  0.4837040000000  0.5265020000000 1.0
C      1  0.4205030000000  0.5160110000000  0.5298730000000 1.0
C      1  0.4120980000000  0.5330650000000  0.5023920000000 1.0
C      1  0.4142730000000  0.5235760000000  0.4749540000000 1.0
C      1  0.4143350000000  0.4983250000000  0.4600590000000 1.0
C      1  0.4236160000000  0.4671760000000  0.4701250000000 1.0
C      1  0.5096930000000  0.5622090000000  0.5609650000000 1.0
C      1  0.5158930000000  0.5727290000000  0.5058150000000 1.0
C      1  0.5161120000000  0.5508620000000  0.4360820000000 1.0
C      1  0.5148000000000  0.4777100000000  0.4280630000000 1.0
C      1  0.5118100000000  0.4313680000000  0.4667870000000 1.0
C      1  0.5034230000000  0.4310760000000  0.5554780000000 1.0
C      1  0.5078650000000  0.4800220000000  0.5736030000000 1.0
C      1  0.4952650000000  0.5077640000000  0.5700500000000 1.0
C      1  0.4981230000000  0.5560970000000  0.5295810000000 1.0
C      1  0.4928960000000  0.5601330000000  0.4591420000000 1.0
C      1  0.4900580000000  0.4994380000000  0.4365820000000 1.0
C      1  0.4943900000000  0.4587350000000  0.4566020000000 1.0
C      1  0.4931040000000  0.4160820000000  0.4860470000000 1.0
C      1  0.5014940000000  0.4621530000000  0.5486120000000 1.0
C      1  0.5243080000000  0.5287310000000  0.5179460000000 1.0
C      1  0.5228370000000  0.5390050000000  0.4856390000000 1.0
C      1  0.5290580000000  0.5125130000000  0.4676600000000 1.0
C      1  0.5160060000000  0.4846410000000  0.4672240000000 1.0
C      1  0.5220720000000  0.4679050000000  0.4966320000000 1.0
C      1  0.5229430000000  0.4678120000000  0.5300030000000 1.0
C      1  0.5234970000000  0.4966640000000  0.5241280000000 1.0
C      1  0.5480710000000  0.4917520000000  0.5885340000000 1.0
C      1  0.5492960000000  0.5577670000000  0.5575800000000 1.0
C      1  0.5655560000000  0.5829670000000  0.5007680000000 1.0
C      1  0.5534170000000  0.5511660000000  0.4236020000000 1.0
C      1  0.5518960000000  0.4721530000000  0.4156350000000 1.0
C      1  0.5391540000000  0.4138400000000  0.4761860000000 1.0
C      1  0.5559530000000  0.4263060000000  0.5457480000000 1.0
C      1  0.4886370000000  0.4673660000000  0.4889870000000 1.0
C      1  0.4740760000000  0.4728900000000  0.5378770000000 1.0
C      1  0.4726250000000  0.5063360000000  0.5315920000000 1.0
C      1  0.4991930000000  0.5238550000000  0.5403650000000 1.0
C      1  0.4917870000000  0.5421290000000  0.4992260000000 1.0
C      1  0.4839510000000  0.5289540000000  0.4702200000000 1.0
C      1  0.4836840000000  0.4949400000000  0.4696830000000 1.0
C      1  0.4723290000000  0.5788640000000  0.4786960000000 1.0
C      1  0.4691790000000  0.5243330000000  0.4296040000000 1.0
C      1  0.4634670000000  0.4561840000000  0.4426560000000 1.0
C      1  0.4656860000000  0.4198270000000  0.4820370000000 1.0
C      1  0.4516610000000  0.4307670000000  0.5544910000000 1.0
C      1  0.4639710000000  0.5064540000000  0.5775290000000 1.0
C      1  0.4698160000000  0.5585080000000  0.5464920000000 1.0
C      1  0.5934230000000  0.5100820000000  0.5260760000000 1.0
C      1  0.5966900000000  0.5300410000000  0.5060070000000 1.0
C      1  0.5861700000000  0.5288610000000  0.4794690000000 1.0
C      1  0.5935430000000  0.5048170000000  0.4659360000000 1.0
C      1  0.5905230000000  0.4774780000000  0.4728170000000 1.0
C      1  0.5873470000000  0.4691420000000  0.5014460000000 1.0
C      1  0.6022880000000  0.4838200000000  0.5202600000000 1.0
C      1  0.4450820000000  0.4870540000000  0.5757430000000 1.0
C      1  0.4647510000000  0.5373200000000  0.5687450000000 1.0
C      1  0.4520710000000  0.5799310000000  0.5038070000000 1.0
C      1  0.4550920000000  0.5484160000000  0.4433230000000 1.0
C      1  0.4581880000000  0.4793310000000  0.4229750000000 1.0
C      1  0.4579560000000  0.4244760000000  0.4535370000000 1.0
C      1  0.4631650000000  0.4210040000000  0.5316870000000 1.0
C      1  0.5522030000000  0.5130430000000  0.4925610000000 1.0
C      1  0.4792320000000  0.5037290000000  0.5022340000000 1.0
C      1  0.5072690000000  0.5053120000000  0.5000790000000 1.0
C      1  0.4308500000000  0.4951660000000  0.4973420000000 1.0
END
