TITL C-3289322-3858-171 0.000492077684816525 125000 -733.368247086017 0 0 133 (C1) n - 1
REM
REM in /nfs/bkarasulu/CARBON/AIRSS/Generating-Clusters/AIREBO/with-SteepDescent/Higher-Symm/SD-CG/HFTN-CG
REM
REM
REM
REM
REM
REM ./C.cell (b20cbc046b6831c77cfcea5457e17084)
REM
REM compiler GCC version 9.2.1 20190827 (Red Hat 9.2.1-1)
REM options -cpp -mtune=generic -march=x86-64 -g -O0 -fpre-include=/usr/include/finclude/math-vector-fortran.h
REM seed 1522815961 -1372517374 1904469741 -1380132437 2081026159 -571774971 -147082497 58024689 -920047611 -1222139524 18537138 -470285777 -1237436655 1531618550 -161875462 -1401769379 -1651420018 -1532539343 -1799086493 -618679430 -1699948359 723753511 1741816526 20566067 -459508095 1488120021 -1098191946 1360790587 -1379109072 625911272 1913038601 628466652 534533570
REM
CELL 1.54180   50.00000   50.00000   50.00000   90.00000   90.00000   90.00000
LATT -1
SFAC C  
C      1  0.4486900000000  0.5279740000000  0.4769260000000 1.0
C      1  0.4682040000000  0.5124290000000  0.4027110000000 1.0
C      1  0.4147670000000  0.4341390000000  0.5239070000000 1.0
C      1  0.5085800000000  0.4790980000000  0.4513360000000 1.0
C      1  0.5153940000000  0.4180140000000  0.5562110000000 1.0
C      1  0.5078060000000  0.5222240000000  0.4044810000000 1.0
C      1  0.4244880000000  0.5738670000000  0.4903120000000 1.0
C      1  0.4310630000000  0.4905690000000  0.5264670000000 1.0
C      1  0.5233220000000  0.4793700000000  0.5485730000000 1.0
C      1  0.5883090000000  0.4581500000000  0.4524920000000 1.0
C      1  0.5052190000000  0.5696020000000  0.5300160000000 1.0
C      1  0.5381790000000  0.5716670000000  0.5381840000000 1.0
C      1  0.4081440000000  0.5128630000000  0.4788610000000 1.0
C      1  0.5122470000000  0.5439860000000  0.5514510000000 1.0
C      1  0.4720660000000  0.5308870000000  0.4259230000000 1.0
C      1  0.4803860000000  0.4752900000000  0.5747880000000 1.0
C      1  0.5042090000000  0.4918430000000  0.5019910000000 1.0
C      1  0.4548280000000  0.4685350000000  0.5367550000000 1.0
C      1  0.6016050000000  0.5240740000000  0.5056700000000 1.0
C      1  0.5328690000000  0.5273740000000  0.5849660000000 1.0
C      1  0.4429880000000  0.5824770000000  0.5176060000000 1.0
C      1  0.4829280000000  0.4195320000000  0.4607160000000 1.0
C      1  0.4518420000000  0.5518000000000  0.4357350000000 1.0
C      1  0.4948570000000  0.5938250000000  0.4751430000000 1.0
C      1  0.4888360000000  0.5289040000000  0.5090030000000 1.0
C      1  0.5493980000000  0.5261860000000  0.4839970000000 1.0
C      1  0.5523840000000  0.4859370000000  0.5122660000000 1.0
C      1  0.4768100000000  0.5104270000000  0.5349400000000 1.0
C      1  0.5892280000000  0.4939680000000  0.4702090000000 1.0
C      1  0.4562660000000  0.4797680000000  0.4899510000000 1.0
C      1  0.5313620000000  0.5777220000000  0.4551750000000 1.0
C      1  0.5752680000000  0.5561630000000  0.4888850000000 1.0
C      1  0.4120490000000  0.4663230000000  0.5009880000000 1.0
C      1  0.4402490000000  0.4918980000000  0.4424430000000 1.0
C      1  0.4217860000000  0.5316470000000  0.5703760000000 1.0
C      1  0.4746570000000  0.5916590000000  0.4951730000000 1.0
C      1  0.4472720000000  0.5071640000000  0.5516960000000 1.0
C      1  0.4560700000000  0.5709000000000  0.4819100000000 1.0
C      1  0.4204960000000  0.5442310000000  0.4742960000000 1.0
C      1  0.5662180000000  0.5475180000000  0.5524860000000 1.0
C      1  0.4883350000000  0.4865360000000  0.4040520000000 1.0
C      1  0.4162050000000  0.5516250000000  0.5131310000000 1.0
C      1  0.5027930000000  0.4157270000000  0.4333820000000 1.0
C      1  0.4161890000000  0.5141500000000  0.4485060000000 1.0
C      1  0.5228200000000  0.4453970000000  0.5083840000000 1.0
C      1  0.5707710000000  0.4371480000000  0.5060580000000 1.0
C      1  0.5608620000000  0.4709460000000  0.4631250000000 1.0
C      1  0.5374800000000  0.5853430000000  0.4847110000000 1.0
C      1  0.5504330000000  0.4827560000000  0.5784340000000 1.0
C      1  0.5472140000000  0.4239980000000  0.5151250000000 1.0
C      1  0.5808940000000  0.5238710000000  0.4797600000000 1.0
C      1  0.5657070000000  0.5595570000000  0.5221360000000 1.0
C      1  0.5515450000000  0.4192910000000  0.4653770000000 1.0
C      1  0.4847280000000  0.4409280000000  0.4274040000000 1.0
C      1  0.6015330000000  0.4772970000000  0.5139170000000 1.0
C      1  0.5081070000000  0.4986050000000  0.4289390000000 1.0
C      1  0.5696450000000  0.5879820000000  0.4944880000000 1.0
C      1  0.4402680000000  0.5378710000000  0.5219740000000 1.0
C      1  0.5570290000000  0.5571440000000  0.4601710000000 1.0
C      1  0.5124800000000  0.4645650000000  0.3971550000000 1.0
C      1  0.5383820000000  0.5550720000000  0.5678590000000 1.0
C      1  0.5273580000000  0.4939870000000  0.4012840000000 1.0
C      1  0.4654700000000  0.5686300000000  0.4535650000000 1.0
C      1  0.5042030000000  0.5133440000000  0.5854390000000 1.0
C      1  0.5004770000000  0.4498010000000  0.5979350000000 1.0
C      1  0.4671680000000  0.5676910000000  0.5531700000000 1.0
C      1  0.5298750000000  0.4659770000000  0.5946660000000 1.0
C      1  0.5343050000000  0.4736080000000  0.4683280000000 1.0
C      1  0.4812950000000  0.4572580000000  0.4851350000000 1.0
C      1  0.4545820000000  0.4611980000000  0.4394000000000 1.0
C      1  0.4829060000000  0.4151100000000  0.5470700000000 1.0
C      1  0.5439480000000  0.5140580000000  0.4189220000000 1.0
C      1  0.4814310000000  0.5345730000000  0.5863550000000 1.0
C      1  0.5280460000000  0.4156590000000  0.4729120000000 1.0
C      1  0.4068240000000  0.4778700000000  0.5466660000000 1.0
C      1  0.5698200000000  0.5201100000000  0.5581810000000 1.0
C      1  0.4909220000000  0.4106170000000  0.5142910000000 1.0
C      1  0.4885810000000  0.5563570000000  0.5681910000000 1.0
C      1  0.5728950000000  0.4385700000000  0.4756410000000 1.0
C      1  0.4347100000000  0.4770270000000  0.4701160000000 1.0
C      1  0.5015740000000  0.4841090000000  0.5959860000000 1.0
C      1  0.4141840000000  0.5052110000000  0.5593060000000 1.0
C      1  0.5430070000000  0.5144180000000  0.5129820000000 1.0
C      1  0.5544450000000  0.5102350000000  0.5797710000000 1.0
C      1  0.5284760000000  0.4726810000000  0.4978520000000 1.0
C      1  0.5142560000000  0.5142810000000  0.5205990000000 1.0
C      1  0.5008330000000  0.4295450000000  0.4878380000000 1.0
C      1  0.5567700000000  0.4729500000000  0.5489620000000 1.0
C      1  0.5878340000000  0.4889210000000  0.4400840000000 1.0
C      1  0.4564900000000  0.4320850000000  0.4569840000000 1.0
C      1  0.4932440000000  0.4648870000000  0.5472290000000 1.0
C      1  0.4447040000000  0.5469510000000  0.5504030000000 1.0
C      1  0.5360410000000  0.5983520000000  0.4333760000000 1.0
C      1  0.4322280000000  0.4165400000000  0.5006350000000 1.0
C      1  0.4771950000000  0.4828760000000  0.5155250000000 1.0
C      1  0.4854400000000  0.4600930000000  0.4536440000000 1.0
C      1  0.4264610000000  0.5427260000000  0.4420240000000 1.0
C      1  0.4545520000000  0.4833460000000  0.5737970000000 1.0
C      1  0.4993310000000  0.5662850000000  0.4556840000000 1.0
C      1  0.5278490000000  0.4462920000000  0.5419990000000 1.0
C      1  0.5455310000000  0.5936530000000  0.5166880000000 1.0
C      1  0.5618120000000  0.5377790000000  0.4352750000000 1.0
C      1  0.4760390000000  0.5808220000000  0.5255260000000 1.0
C      1  0.4493990000000  0.5095230000000  0.5049960000000 1.0
C      1  0.4646250000000  0.5455320000000  0.4995010000000 1.0
C      1  0.5421100000000  0.5456590000000  0.5082330000000 1.0
C      1  0.4844170000000  0.4496610000000  0.5181290000000 1.0
C      1  0.6079920000000  0.4784570000000  0.4872370000000 1.0
C      1  0.4668770000000  0.4443900000000  0.5536270000000 1.0
C      1  0.5023930000000  0.5466200000000  0.4832670000000 1.0
C      1  0.4540260000000  0.5286920000000  0.5773470000000 1.0
C      1  0.4926270000000  0.4350160000000  0.5736210000000 1.0
C      1  0.5084380000000  0.5101710000000  0.5518520000000 1.0
C      1  0.5228140000000  0.4096490000000  0.5258920000000 1.0
C      1  0.4606310000000  0.4254890000000  0.5156330000000 1.0
C      1  0.4397020000000  0.4528460000000  0.5143470000000 1.0
C      1  0.5748340000000  0.4629590000000  0.5219140000000 1.0
C      1  0.4328100000000  0.4286110000000  0.4737890000000 1.0
C      1  0.5232150000000  0.5260400000000  0.4685930000000 1.0
C      1  0.5401070000000  0.4448930000000  0.5716620000000 1.0
C      1  0.4598090000000  0.5161260000000  0.4518300000000 1.0
C      1  0.4174200000000  0.4531170000000  0.4736540000000 1.0
C      1  0.5722290000000  0.5001510000000  0.5361170000000 1.0
C      1  0.5007310000000  0.5441120000000  0.4295640000000 1.0
C      1  0.5283190000000  0.5332630000000  0.4402570000000 1.0
C      1  0.4107010000000  0.4956790000000  0.4997020000000 1.0
C      1  0.5061960000000  0.5014560000000  0.4731080000000 1.0
C      1  0.4001530000000  0.4499970000000  0.5429410000000 1.0
C      1  0.4557160000000  0.4833840000000  0.4133650000000 1.0
C      1  0.5994360000000  0.5037870000000  0.5238730000000 1.0
C      1  0.5090000000000  0.4397080000000  0.4088790000000 1.0
C      1  0.5198960000000  0.5647720000000  0.5026970000000 1.0
C      1  0.5755060000000  0.5079450000000  0.4258290000000 1.0
END
