TITL C-3289325-7307-190 -0.000608435205151226 125000 -235.791209371385 0 0 41 (C1) n - 1
REM
REM in /nfs/bkarasulu/CARBON/AIRSS/Generating-Clusters/AIREBO/with-SteepDescent/Higher-Symm/SD-CG/HFTN-CG
REM
REM
REM
REM
REM
REM ./C.cell (b20cbc046b6831c77cfcea5457e17084)
REM
REM compiler GCC version 9.2.1 20190827 (Red Hat 9.2.1-1)
REM options -cpp -mtune=generic -march=x86-64 -g -O0 -fpre-include=/usr/include/finclude/math-vector-fortran.h
REM seed 541244083 -141743715 654540429 821989473 1512307802 -199061201 914594061 -184516854 1619499472 -214087652 426443398 1899215777 -1936398640 1146647012 914678277 -419446874 1608960314 801384534 -1938435678 -1055688537 -66972960 1381355227 -337632015 72577986 -1635211620 -854564189 781435918 1997654942 1608437907 -1734344747 309407825 -159163110 -1764526997
REM
CELL 1.54180   50.00000   50.00000   50.00000   90.00000   90.00000   90.00000
LATT -1
SFAC C  
C      1  0.4788150000000  0.5744260000000  0.5044760000000 1.0
C      1  0.5025910000000  0.4850210000000  0.5636910000000 1.0
C      1  0.5517470000000  0.4894800000000  0.4759060000000 1.0
C      1  0.4829200000000  0.4358190000000  0.4991150000000 1.0
C      1  0.5307050000000  0.4354080000000  0.5044850000000 1.0
C      1  0.5255040000000  0.5578030000000  0.4997030000000 1.0
C      1  0.4907770000000  0.5269420000000  0.4413390000000 1.0
C      1  0.5014440000000  0.5244400000000  0.5590770000000 1.0
C      1  0.4945380000000  0.4883600000000  0.4160220000000 1.0
C      1  0.5635880000000  0.5011050000000  0.5223800000000 1.0
C      1  0.4400650000000  0.4993520000000  0.4743800000000 1.0
C      1  0.4404370000000  0.5041480000000  0.5138050000000 1.0
C      1  0.4780530000000  0.5031660000000  0.5621440000000 1.0
C      1  0.5001920000000  0.5653420000000  0.4833660000000 1.0
C      1  0.5633290000000  0.4755530000000  0.5015170000000 1.0
C      1  0.4729290000000  0.5025120000000  0.4348850000000 1.0
C      1  0.5126180000000  0.5050230000000  0.4363630000000 1.0
C      1  0.5265210000000  0.5055420000000  0.5610860000000 1.0
C      1  0.5040670000000  0.4356390000000  0.5216430000000 1.0
C      1  0.5041870000000  0.5640680000000  0.5228020000000 1.0
C      1  0.5095550000000  0.4429470000000  0.4829870000000 1.0
C      1  0.5551720000000  0.5139030000000  0.4953990000000 1.0
C      1  0.4373800000000  0.4779180000000  0.4978650000000 1.0
C      1  0.4433880000000  0.5254130000000  0.4918050000000 1.0
C      1  0.4645170000000  0.5014010000000  0.5336990000000 1.0
C      1  0.5232480000000  0.4904870000000  0.4625770000000 1.0
C      1  0.4685150000000  0.5434690000000  0.4938000000000 1.0
C      1  0.5475170000000  0.4555370000000  0.5148550000000 1.0
C      1  0.5031430000000  0.4624650000000  0.5402110000000 1.0
C      1  0.4900540000000  0.5385740000000  0.4693380000000 1.0
C      1  0.5050740000000  0.4677780000000  0.4705670000000 1.0
C      1  0.4614580000000  0.4904580000000  0.4575750000000 1.0
C      1  0.4648510000000  0.4619190000000  0.4990870000000 1.0
C      1  0.5449240000000  0.4932590000000  0.5433920000000 1.0
C      1  0.5348810000000  0.5325330000000  0.4903090000000 1.0
C      1  0.4947590000000  0.5413470000000  0.5373260000000 1.0
C      1  0.4739480000000  0.5294930000000  0.5223190000000 1.0
C      1  0.5353650000000  0.4670990000000  0.5375970000000 1.0
C      1  0.5158370000000  0.5207190000000  0.4729800000000 1.0
C      1  0.4781180000000  0.4737380000000  0.4723150000000 1.0
C      1  0.4765220000000  0.4736510000000  0.5259220000000 1.0
END
