TITL C-3289331-6719-309 0.0208273597016146 125000 -1049.96878172609 0 0 195 (C1) n - 1
REM
REM in /nfs/bkarasulu/CARBON/AIRSS/Generating-Clusters/AIREBO/with-SteepDescent/Higher-Symm/SD-CG/HFTN-CG
REM
REM
REM
REM
REM
REM ./C.cell (b20cbc046b6831c77cfcea5457e17084)
REM
REM compiler GCC version 9.2.1 20190827 (Red Hat 9.2.1-1)
REM options -cpp -mtune=generic -march=x86-64 -g -O0 -fpre-include=/usr/include/finclude/math-vector-fortran.h
REM seed 1046445991 -52704257 -1281276409 506588358 -1467365170 934630855 -1253954188 1881173207 -1427971785 -938033502 871415665 1731053623 956227604 -1313749107 -1675759372 -1627602565 2147452424 49257269 -1059262733 -1915508008 716752368 103595627 -1887051186 1429478894 309497123 -1881489847 1810750890 1393379919 -1532557545 1031082818 -1995473305 1419730202 -737368206
REM
CELL 1.54180   50.00000   50.00000   50.00000   90.00000   90.00000   90.00000
LATT -1
SFAC C  
C      1  0.4292640000000  0.5269280000000  0.4096450000000 1.0
C      1  0.4782380000000  0.5521370000000  0.4236300000000 1.0
C      1  0.5348130000000  0.5379100000000  0.4181590000000 1.0
C      1  0.5616420000000  0.4859300000000  0.4127790000000 1.0
C      1  0.5128180000000  0.4640310000000  0.4174970000000 1.0
C      1  0.4910310000000  0.4439360000000  0.4077590000000 1.0
C      1  0.4419990000000  0.4782950000000  0.4163730000000 1.0
C      1  0.4337080000000  0.4989380000000  0.5228690000000 1.0
C      1  0.4501930000000  0.5540060000000  0.5174170000000 1.0
C      1  0.5115590000000  0.5524470000000  0.5243620000000 1.0
C      1  0.5651360000000  0.5254740000000  0.5210320000000 1.0
C      1  0.5619340000000  0.4664150000000  0.5162080000000 1.0
C      1  0.5175640000000  0.4382880000000  0.5280630000000 1.0
C      1  0.4633240000000  0.4489300000000  0.5298770000000 1.0
C      1  0.4952280000000  0.4707960000000  0.5220920000000 1.0
C      1  0.4634510000000  0.4825780000000  0.5249390000000 1.0
C      1  0.4627810000000  0.5161580000000  0.5190930000000 1.0
C      1  0.4787860000000  0.5451420000000  0.5196200000000 1.0
C      1  0.5331010000000  0.5274720000000  0.5237530000000 1.0
C      1  0.5561200000000  0.4969900000000  0.5121320000000 1.0
C      1  0.5282420000000  0.4694800000000  0.5197080000000 1.0
C      1  0.6090330000000  0.5306810000000  0.5076830000000 1.0
C      1  0.6041600000000  0.4373860000000  0.5163130000000 1.0
C      1  0.5121970000000  0.3780150000000  0.5051410000000 1.0
C      1  0.4226700000000  0.4133210000000  0.5080280000000 1.0
C      1  0.3856630000000  0.5096010000000  0.5135640000000 1.0
C      1  0.4404630000000  0.6077700000000  0.5045320000000 1.0
C      1  0.5459610000000  0.6094220000000  0.5083930000000 1.0
C      1  0.4794260000000  0.5268300000000  0.5985950000000 1.0
C      1  0.5042330000000  0.5388220000000  0.6019170000000 1.0
C      1  0.5287420000000  0.5259890000000  0.6095430000000 1.0
C      1  0.5364660000000  0.4973880000000  0.6044270000000 1.0
C      1  0.5228780000000  0.4721400000000  0.6013730000000 1.0
C      1  0.4832790000000  0.4984880000000  0.5842890000000 1.0
C      1  0.4345910000000  0.4999080000000  0.5943680000000 1.0
C      1  0.4704970000000  0.6024970000000  0.5550470000000 1.0
C      1  0.5530840000000  0.5880820000000  0.5712550000000 1.0
C      1  0.6060040000000  0.5238570000000  0.5681990000000 1.0
C      1  0.5825370000000  0.4264600000000  0.5644640000000 1.0
C      1  0.5017440000000  0.3862130000000  0.5665900000000 1.0
C      1  0.4244090000000  0.4322450000000  0.5724890000000 1.0
C      1  0.4117380000000  0.5348770000000  0.5597250000000 1.0
C      1  0.5403020000000  0.5900640000000  0.4454680000000 1.0
C      1  0.5855650000000  0.5136570000000  0.4483170000000 1.0
C      1  0.5843700000000  0.4386670000000  0.4461350000000 1.0
C      1  0.4987630000000  0.4184250000000  0.4516540000000 1.0
C      1  0.4294590000000  0.4319180000000  0.4373620000000 1.0
C      1  0.4035360000000  0.5066150000000  0.4483270000000 1.0
C      1  0.4487220000000  0.5859820000000  0.4445400000000 1.0
C      1  0.4779600000000  0.4762250000000  0.4527370000000 1.0
C      1  0.4545050000000  0.4952590000000  0.4405990000000 1.0
C      1  0.4646960000000  0.5266800000000  0.4413150000000 1.0
C      1  0.5122290000000  0.5342860000000  0.4509200000000 1.0
C      1  0.5373330000000  0.5151860000000  0.4433490000000 1.0
C      1  0.5355100000000  0.4857170000000  0.4533800000000 1.0
C      1  0.5097930000000  0.4698120000000  0.4484100000000 1.0
C      1  0.4929410000000  0.5803230000000  0.4617280000000 1.0
C      1  0.5544320000000  0.5554460000000  0.4593700000000 1.0
C      1  0.5780040000000  0.4672400000000  0.4527070000000 1.0
C      1  0.5395850000000  0.4373790000000  0.4605720000000 1.0
C      1  0.4572190000000  0.4325390000000  0.4428730000000 1.0
C      1  0.4221630000000  0.4590830000000  0.4654710000000 1.0
C      1  0.4204540000000  0.5396320000000  0.4625340000000 1.0
C      1  0.6095510000000  0.4261260000000  0.4905840000000 1.0
C      1  0.4985900000000  0.3742270000000  0.4823520000000 1.0
C      1  0.4077270000000  0.4117680000000  0.4848470000000 1.0
C      1  0.3745770000000  0.5234340000000  0.4915810000000 1.0
C      1  0.4400180000000  0.6230010000000  0.4802250000000 1.0
C      1  0.5598840000000  0.6168550000000  0.4862380000000 1.0
C      1  0.6232510000000  0.5306430000000  0.4774800000000 1.0
C      1  0.5337530000000  0.4011400000000  0.5019190000000 1.0
C      1  0.4526480000000  0.4144100000000  0.5058200000000 1.0
C      1  0.4020420000000  0.4854040000000  0.5026390000000 1.0
C      1  0.4292150000000  0.5805330000000  0.4964770000000 1.0
C      1  0.5179810000000  0.5962240000000  0.4984410000000 1.0
C      1  0.5987600000000  0.5593680000000  0.4954570000000 1.0
C      1  0.6018190000000  0.4651300000000  0.5166430000000 1.0
C      1  0.5168440000000  0.4259800000000  0.4982430000000 1.0
C      1  0.4675690000000  0.4433990000000  0.4961390000000 1.0
C      1  0.4333820000000  0.4898020000000  0.4901190000000 1.0
C      1  0.4537240000000  0.5598830000000  0.4850820000000 1.0
C      1  0.5199270000000  0.5661110000000  0.4943740000000 1.0
C      1  0.5729360000000  0.5402140000000  0.4934070000000 1.0
C      1  0.5841090000000  0.4769160000000  0.4926610000000 1.0
C      1  0.4647000000000  0.3774080000000  0.5420290000000 1.0
C      1  0.3790520000000  0.4600300000000  0.5003540000000 1.0
C      1  0.3951330000000  0.5799240000000  0.4959450000000 1.0
C      1  0.5023990000000  0.6253870000000  0.5073540000000 1.0
C      1  0.5962200000000  0.5771460000000  0.5167500000000 1.0
C      1  0.6311410000000  0.5000710000000  0.5202060000000 1.0
C      1  0.5649060000000  0.3879010000000  0.5063750000000 1.0
C      1  0.4716830000000  0.5502540000000  0.5586090000000 1.0
C      1  0.4986260000000  0.5300720000000  0.5634530000000 1.0
C      1  0.5260230000000  0.5139840000000  0.5513180000000 1.0
C      1  0.5349780000000  0.4809060000000  0.5510190000000 1.0
C      1  0.5048480000000  0.4739210000000  0.5613020000000 1.0
C      1  0.4810400000000  0.4500540000000  0.5568590000000 1.0
C      1  0.4576980000000  0.4866040000000  0.5561860000000 1.0
C      1  0.5863230000000  0.5106020000000  0.5800930000000 1.0
C      1  0.5581790000000  0.4377510000000  0.5748200000000 1.0
C      1  0.4945350000000  0.4087010000000  0.5803890000000 1.0
C      1  0.4159410000000  0.4588780000000  0.5808550000000 1.0
C      1  0.4285230000000  0.5423290000000  0.5866200000000 1.0
C      1  0.4928430000000  0.5883100000000  0.5706220000000 1.0
C      1  0.5488160000000  0.5628170000000  0.5818250000000 1.0
C      1  0.5841660000000  0.5051200000000  0.5405420000000 1.0
C      1  0.5564200000000  0.4333280000000  0.5217830000000 1.0
C      1  0.4966770000000  0.4168230000000  0.5414250000000 1.0
C      1  0.4294270000000  0.4480190000000  0.5273970000000 1.0
C      1  0.4263880000000  0.5321520000000  0.5226400000000 1.0
C      1  0.4840660000000  0.5918460000000  0.5187940000000 1.0
C      1  0.5535110000000  0.5643740000000  0.5375530000000 1.0
C      1  0.5992080000000  0.5355740000000  0.5389070000000 1.0
C      1  0.5860800000000  0.4270180000000  0.5356660000000 1.0
C      1  0.5168920000000  0.3904440000000  0.5364410000000 1.0
C      1  0.4330270000000  0.4167430000000  0.5402480000000 1.0
C      1  0.3976540000000  0.5217920000000  0.5357850000000 1.0
C      1  0.4583550000000  0.6078320000000  0.5263020000000 1.0
C      1  0.5446220000000  0.5958840000000  0.5395780000000 1.0
C      1  0.5513240000000  0.6104860000000  0.4606000000000 1.0
C      1  0.6098500000000  0.5256880000000  0.4543590000000 1.0
C      1  0.6020020000000  0.4254890000000  0.4639350000000 1.0
C      1  0.5009620000000  0.3929070000000  0.4623390000000 1.0
C      1  0.4124700000000  0.4266700000000  0.4620610000000 1.0
C      1  0.3903170000000  0.5252760000000  0.4690210000000 1.0
C      1  0.4391700000000  0.6093980000000  0.4558980000000 1.0
C      1  0.5626530000000  0.4958920000000  0.5942540000000 1.0
C      1  0.5308540000000  0.4470070000000  0.5871140000000 1.0
C      1  0.4767870000000  0.4362210000000  0.5884290000000 1.0
C      1  0.4391440000000  0.5071590000000  0.5682630000000 1.0
C      1  0.4579610000000  0.5437740000000  0.5875410000000 1.0
C      1  0.5092730000000  0.5592330000000  0.5773350000000 1.0
C      1  0.5496430000000  0.5464540000000  0.6055530000000 1.0
C      1  0.5798380000000  0.4890510000000  0.4352740000000 1.0
C      1  0.5543960000000  0.4396840000000  0.4362290000000 1.0
C      1  0.4815430000000  0.4254980000000  0.4309830000000 1.0
C      1  0.4216210000000  0.4603960000000  0.4306930000000 1.0
C      1  0.4118510000000  0.5303540000000  0.4308920000000 1.0
C      1  0.4764840000000  0.5774750000000  0.4397210000000 1.0
C      1  0.5473980000000  0.5630560000000  0.4299130000000 1.0
C      1  0.5054460000000  0.5457530000000  0.4094190000000 1.0
C      1  0.5506260000000  0.5112140000000  0.4046620000000 1.0
C      1  0.5449810000000  0.4609360000000  0.4171390000000 1.0
C      1  0.4990310000000  0.4297000000000  0.3846810000000 1.0
C      1  0.4647970000000  0.4617710000000  0.4024500000000 1.0
C      1  0.4301930000000  0.5009970000000  0.3984860000000 1.0
C      1  0.4513000000000  0.5440200000000  0.4078530000000 1.0
C      1  0.5217260000000  0.5646840000000  0.4605250000000 1.0
C      1  0.5613090000000  0.5244220000000  0.4656190000000 1.0
C      1  0.5545470000000  0.4704930000000  0.4771090000000 1.0
C      1  0.5083220000000  0.4446440000000  0.4711090000000 1.0
C      1  0.4634520000000  0.4511590000000  0.4632840000000 1.0
C      1  0.4271380000000  0.4901900000000  0.4566970000000 1.0
C      1  0.4474120000000  0.5535320000000  0.4531090000000 1.0
C      1  0.4099440000000  0.5613520000000  0.5168910000000 1.0
C      1  0.5134840000000  0.6038330000000  0.5309460000000 1.0
C      1  0.5847950000000  0.5630430000000  0.5382580000000 1.0
C      1  0.6078200000000  0.4861800000000  0.5340750000000 1.0
C      1  0.5487290000000  0.4017390000000  0.5317610000000 1.0
C      1  0.4650020000000  0.4055910000000  0.5362460000000 1.0
C      1  0.4005790000000  0.4592160000000  0.5233850000000 1.0
C      1  0.5239170000000  0.4776280000000  0.4901020000000 1.0
C      1  0.4907900000000  0.4673550000000  0.4894420000000 1.0
C      1  0.4670410000000  0.4935180000000  0.4867020000000 1.0
C      1  0.4642120000000  0.5275960000000  0.4874140000000 1.0
C      1  0.4933200000000  0.5451700000000  0.4895620000000 1.0
C      1  0.5191120000000  0.5263040000000  0.4951170000000 1.0
C      1  0.5411520000000  0.5067640000000  0.4865550000000 1.0
C      1  0.5429270000000  0.4478530000000  0.5494280000000 1.0
C      1  0.5096020000000  0.4347990000000  0.5672550000000 1.0
C      1  0.4362780000000  0.4637560000000  0.5567520000000 1.0
C      1  0.4446620000000  0.5336030000000  0.5513330000000 1.0
C      1  0.4930410000000  0.5717670000000  0.5432130000000 1.0
C      1  0.5345720000000  0.5461070000000  0.5587380000000 1.0
C      1  0.5644340000000  0.4911780000000  0.5617070000000 1.0
C      1  0.4244060000000  0.5226020000000  0.4897140000000 1.0
C      1  0.4794320000000  0.5820020000000  0.4876990000000 1.0
C      1  0.5498760000000  0.5589640000000  0.5059220000000 1.0
C      1  0.6086730000000  0.4988470000000  0.4963690000000 1.0
C      1  0.5533780000000  0.4383610000000  0.4881950000000 1.0
C      1  0.4888640000000  0.4171720000000  0.4922550000000 1.0
C      1  0.4360320000000  0.4560640000000  0.4950240000000 1.0
C      1  0.4811810000000  0.5451630000000  0.3280310000000 1.0
C      1  0.4883030000000  0.5003530000000  0.5505410000000 1.0
C      1  0.4913530000000  0.5074550000000  0.4500430000000 1.0
C      1  0.4845030000000  0.5311620000000  0.3499350000000 1.0
C      1  0.4591780000000  0.4934730000000  0.6071900000000 1.0
C      1  0.4917060000000  0.4663800000000  0.5916480000000 1.0
C      1  0.4995410000000  0.4948020000000  0.4193580000000 1.0
C      1  0.4647200000000  0.4863110000000  0.6329080000000 1.0
C      1  0.4902140000000  0.5180560000000  0.3724000000000 1.0
C      1  0.4978890000000  0.5011890000000  0.5172380000000 1.0
C      1  0.4936690000000  0.5058990000000  0.3958490000000 1.0
C      1  0.4702510000000  0.4819490000000  0.6581510000000 1.0
C      1  0.4973630000000  0.5062510000000  0.4835170000000 1.0
END
