TITL C-3289325-7307-672 -6.07253799924916e-06 125000 -24.3502196642568 0 0 8 (C4v) n - 1
REM
REM in /nfs/bkarasulu/CARBON/AIRSS/Generating-Clusters/AIREBO/with-SteepDescent/Higher-Symm/SD-CG/HFTN-CG
REM
REM
REM
REM
REM
REM ./C.cell (b20cbc046b6831c77cfcea5457e17084)
REM
REM compiler GCC version 9.2.1 20190827 (Red Hat 9.2.1-1)
REM options -cpp -mtune=generic -march=x86-64 -g -O0 -fpre-include=/usr/include/finclude/math-vector-fortran.h
REM seed -399411269 897631206 571294914 -1136709536 -531543525 -170420655 759587028 -2110611223 -1278097691 -1032260322 779742529 -1124280640 1191313206 287179997 -1854022043 406451506 -555120507 -1373381859 -2047708046 -878036059 2111500910 606391641 484773575 -2047617194 1081179879 -114356315 -525006700 1543849785 1837759349 -977782156 -1574847523 -1707210667 511286955
REM
CELL 1.54180   50.00000   50.00000   50.00000   90.00000   90.00000   90.00000
LATT -1
SFAC C  
C      1  0.5275930000000  0.5203430000000  0.4952930000000 1.0
C      1  0.5292030000000  0.4738430000000  0.4952930000000 1.0
C      1  0.4826850000000  0.4729090000000  0.4952930000000 1.0
C      1  0.4809560000000  0.5195210000000  0.4952920000000 1.0
C      1  0.4624250000000  0.5370660000000  0.4952920000000 1.0
C      1  0.5051390000000  0.4966260000000  0.4626330000000 1.0
C      1  0.5051380000000  0.4966270000000  0.5279530000000 1.0
C      1  0.5056500000000  0.4961420000000  0.4952930000000 1.0
END
