TITL C-3289331-6719-46 -0.00218920681821346 125000 -372.047517959271 0 0 76 (C1) n - 1
REM
REM in /nfs/bkarasulu/CARBON/AIRSS/Generating-Clusters/AIREBO/with-SteepDescent/Higher-Symm/SD-CG/HFTN-CG
REM
REM
REM
REM
REM
REM ./C.cell (b20cbc046b6831c77cfcea5457e17084)
REM
REM compiler GCC version 9.2.1 20190827 (Red Hat 9.2.1-1)
REM options -cpp -mtune=generic -march=x86-64 -g -O0 -fpre-include=/usr/include/finclude/math-vector-fortran.h
REM seed 542189435 429554681 -903658998 -1047711419 384263737 630957314 -888760957 -336241965 1973910587 1702556498 -91803083 1444420731 1864483144 1442313120 -621163975 34716927 -992446758 1319566418 -1652272538 -1563128555 566407007 -829858805 853499695 939653673 521982350 -1623034673 -707402573 907148473 539137277 965244248 -599665113 -1756537541 362266282
REM
CELL 1.54180   50.00000   50.00000   50.00000   90.00000   90.00000   90.00000
LATT -1
SFAC C  
C      1  0.4976240000000  0.5709500000000  0.5371420000000 1.0
C      1  0.5237370000000  0.5695870000000  0.5265720000000 1.0
C      1  0.5339540000000  0.5756680000000  0.4985800000000 1.0
C      1  0.5245780000000  0.5659880000000  0.4704140000000 1.0
C      1  0.4936520000000  0.5737340000000  0.4652270000000 1.0
C      1  0.4665750000000  0.5727420000000  0.4851380000000 1.0
C      1  0.4706450000000  0.5719180000000  0.5187570000000 1.0
C      1  0.4525800000000  0.5306870000000  0.4359470000000 1.0
C      1  0.4292300000000  0.5468390000000  0.4993020000000 1.0
C      1  0.4551470000000  0.5456100000000  0.5573900000000 1.0
C      1  0.5131400000000  0.5391250000000  0.5736040000000 1.0
C      1  0.5754330000000  0.5477410000000  0.5391940000000 1.0
C      1  0.5671090000000  0.5376350000000  0.4720380000000 1.0
C      1  0.5166810000000  0.5409350000000  0.4313980000000 1.0
C      1  0.5265930000000  0.4506520000000  0.4336540000000 1.0
C      1  0.4735160000000  0.4541300000000  0.4464000000000 1.0
C      1  0.4261320000000  0.4522540000000  0.4848340000000 1.0
C      1  0.4509720000000  0.4481190000000  0.5403610000000 1.0
C      1  0.5053910000000  0.4600150000000  0.5831840000000 1.0
C      1  0.5549130000000  0.4565100000000  0.5412230000000 1.0
C      1  0.5701380000000  0.4526070000000  0.4788490000000 1.0
C      1  0.4724460000000  0.4971120000000  0.4289320000000 1.0
C      1  0.4268500000000  0.4977830000000  0.4768610000000 1.0
C      1  0.4457600000000  0.4966390000000  0.5347250000000 1.0
C      1  0.4933660000000  0.4919560000000  0.5788610000000 1.0
C      1  0.5528770000000  0.4984870000000  0.5505990000000 1.0
C      1  0.5684800000000  0.4938470000000  0.4916860000000 1.0
C      1  0.5361660000000  0.4916290000000  0.4449960000000 1.0
C      1  0.4703950000000  0.4939990000000  0.4863130000000 1.0
C      1  0.4720140000000  0.4911220000000  0.5202020000000 1.0
C      1  0.4989530000000  0.5073490000000  0.5331300000000 1.0
C      1  0.5211690000000  0.4861390000000  0.5185390000000 1.0
C      1  0.5394850000000  0.5047030000000  0.5009800000000 1.0
C      1  0.5076940000000  0.5101690000000  0.4690420000000 1.0
C      1  0.4868310000000  0.4858440000000  0.4576870000000 1.0
C      1  0.4351480000000  0.4638260000000  0.5145250000000 1.0
C      1  0.4779920000000  0.4655690000000  0.5639130000000 1.0
C      1  0.5304070000000  0.4606000000000  0.5613860000000 1.0
C      1  0.5649820000000  0.4653640000000  0.5099490000000 1.0
C      1  0.5480220000000  0.4611270000000  0.4543830000000 1.0
C      1  0.5028930000000  0.4657340000000  0.4354420000000 1.0
C      1  0.4460170000000  0.4583980000000  0.4648540000000 1.0
C      1  0.5408810000000  0.5472650000000  0.5388230000000 1.0
C      1  0.5460300000000  0.5441790000000  0.4961430000000 1.0
C      1  0.5329490000000  0.5452400000000  0.4531910000000 1.0
C      1  0.4735140000000  0.5486230000000  0.4541870000000 1.0
C      1  0.4493210000000  0.5477820000000  0.4780710000000 1.0
C      1  0.4474660000000  0.5543070000000  0.5308210000000 1.0
C      1  0.4934200000000  0.5557590000000  0.5601790000000 1.0
C      1  0.4535370000000  0.5165120000000  0.4671870000000 1.0
C      1  0.4369350000000  0.5244500000000  0.5198310000000 1.0
C      1  0.4804600000000  0.5246210000000  0.5558690000000 1.0
C      1  0.5258100000000  0.5190750000000  0.5504080000000 1.0
C      1  0.5586750000000  0.5245320000000  0.5208440000000 1.0
C      1  0.5412090000000  0.5158970000000  0.4682910000000 1.0
C      1  0.4912190000000  0.5223250000000  0.4418950000000 1.0
C      1  0.4744560000000  0.4529450000000  0.4802610000000 1.0
C      1  0.4683840000000  0.4606900000000  0.5080470000000 1.0
C      1  0.4844590000000  0.4521850000000  0.5359720000000 1.0
C      1  0.5160850000000  0.4569050000000  0.5321630000000 1.0
C      1  0.5402120000000  0.4423300000000  0.5134960000000 1.0
C      1  0.5363440000000  0.4493280000000  0.4828000000000 1.0
C      1  0.5067050000000  0.4525730000000  0.4816570000000 1.0
C      1  0.4233240000000  0.4952290000000  0.5090200000000 1.0
C      1  0.4646290000000  0.4964020000000  0.5605210000000 1.0
C      1  0.5254230000000  0.4920130000000  0.5709940000000 1.0
C      1  0.5727900000000  0.4940990000000  0.5264040000000 1.0
C      1  0.5671230000000  0.4954270000000  0.4601630000000 1.0
C      1  0.5081070000000  0.4973050000000  0.4262310000000 1.0
C      1  0.4475620000000  0.4875650000000  0.4503720000000 1.0
C      1  0.4912540000000  0.3966220000000  0.4765240000000 1.0
C      1  0.5139500000000  0.5413230000000  0.5002150000000 1.0
C      1  0.4979230000000  0.4209880000000  0.4801870000000 1.0
C      1  0.5010510000000  0.5149920000000  0.5000620000000 1.0
C      1  0.5004560000000  0.4804540000000  0.4946760000000 1.0
C      1  0.4959130000000  0.5634040000000  0.4979750000000 1.0
END
