TITL C-3289322-3858-426 -0.000867628599284619 125000 -418.9959772501 0 0 73 (C1) n - 1
REM
REM in /nfs/bkarasulu/CARBON/AIRSS/Generating-Clusters/AIREBO/with-SteepDescent/Higher-Symm/SD-CG/HFTN-CG
REM
REM
REM
REM
REM
REM ./C.cell (b20cbc046b6831c77cfcea5457e17084)
REM
REM compiler GCC version 9.2.1 20190827 (Red Hat 9.2.1-1)
REM options -cpp -mtune=generic -march=x86-64 -g -O0 -fpre-include=/usr/include/finclude/math-vector-fortran.h
REM seed -277469799 -190637740 1448031962 934568878 -506644666 274550792 423481332 -189171381 -988697292 -73182866 1060203191 -351106596 -240667968 647896437 -1687468302 -430440832 320593028 -1544245661 529759435 -894412805 -1296502856 -76469441 -2079730655 -1074940997 -188647500 -228834163 518148346 -358896374 1890541310 -2092252087 1436744397 -1330238350 352795955
REM
CELL 1.54180   50.00000   50.00000   50.00000   90.00000   90.00000   90.00000
LATT -1
SFAC C  
C      1  0.4769950000000  0.4358760000000  0.5323670000000 1.0
C      1  0.5427200000000  0.4431310000000  0.5332030000000 1.0
C      1  0.5316190000000  0.4314020000000  0.4692880000000 1.0
C      1  0.4689310000000  0.4284210000000  0.4724800000000 1.0
C      1  0.6107180000000  0.4807330000000  0.4885030000000 1.0
C      1  0.4682710000000  0.4750210000000  0.4295950000000 1.0
C      1  0.3941960000000  0.4790150000000  0.5137070000000 1.0
C      1  0.5020610000000  0.4590380000000  0.6007960000000 1.0
C      1  0.5218410000000  0.4559970000000  0.5530380000000 1.0
C      1  0.5506670000000  0.4463900000000  0.4837260000000 1.0
C      1  0.4861270000000  0.4364420000000  0.4516050000000 1.0
C      1  0.4546690000000  0.4447030000000  0.5169470000000 1.0
C      1  0.4437460000000  0.5330950000000  0.4587110000000 1.0
C      1  0.4641070000000  0.5364560000000  0.5555610000000 1.0
C      1  0.5583120000000  0.5304900000000  0.5401990000000 1.0
C      1  0.5397200000000  0.5383270000000  0.4433820000000 1.0
C      1  0.4773370000000  0.5371160000000  0.5002600000000 1.0
C      1  0.5031870000000  0.5391630000000  0.5227430000000 1.0
C      1  0.5270540000000  0.5373730000000  0.4985790000000 1.0
C      1  0.5014080000000  0.5390030000000  0.4763110000000 1.0
C      1  0.4472830000000  0.5416480000000  0.4850030000000 1.0
C      1  0.4898460000000  0.5475940000000  0.5518510000000 1.0
C      1  0.5569810000000  0.5409040000000  0.5143310000000 1.0
C      1  0.5140130000000  0.5493800000000  0.4477230000000 1.0
C      1  0.5818240000000  0.4909260000000  0.5268910000000 1.0
C      1  0.5185760000000  0.5019240000000  0.4179120000000 1.0
C      1  0.4137460000000  0.4977670000000  0.4728620000000 1.0
C      1  0.4858080000000  0.4989800000000  0.5774050000000 1.0
C      1  0.5636790000000  0.4657230000000  0.4674750000000 1.0
C      1  0.4733450000000  0.4473440000000  0.4289910000000 1.0
C      1  0.4399310000000  0.4652830000000  0.5301590000000 1.0
C      1  0.5203430000000  0.4497620000000  0.5829070000000 1.0
C      1  0.5326050000000  0.5707280000000  0.4949260000000 1.0
C      1  0.4928420000000  0.5707100000000  0.4851150000000 1.0
C      1  0.4711470000000  0.5707520000000  0.5020740000000 1.0
C      1  0.5162870000000  0.5710150000000  0.5173020000000 1.0
C      1  0.4434770000000  0.5453110000000  0.5378830000000 1.0
C      1  0.5422670000000  0.5431780000000  0.5599230000000 1.0
C      1  0.5604450000000  0.5466600000000  0.4613150000000 1.0
C      1  0.4584770000000  0.5471040000000  0.4387660000000 1.0
C      1  0.4380030000000  0.5023590000000  0.5143960000000 1.0
C      1  0.5121030000000  0.5045440000000  0.5626640000000 1.0
C      1  0.5664120000000  0.5025540000000  0.4824110000000 1.0
C      1  0.4956920000000  0.5153240000000  0.4377980000000 1.0
C      1  0.4584850000000  0.4908350000000  0.5375110000000 1.0
C      1  0.5336920000000  0.4861310000000  0.5438830000000 1.0
C      1  0.5443120000000  0.4911880000000  0.4591910000000 1.0
C      1  0.4552520000000  0.4851130000000  0.4530560000000 1.0
C      1  0.4877640000000  0.4912650000000  0.4185440000000 1.0
C      1  0.4145360000000  0.4913220000000  0.5001810000000 1.0
C      1  0.4881320000000  0.4826190000000  0.5997610000000 1.0
C      1  0.5874610000000  0.4901590000000  0.4993690000000 1.0
C      1  0.5108130000000  0.4475190000000  0.4594160000000 1.0
C      1  0.4595330000000  0.4484440000000  0.4896030000000 1.0
C      1  0.4947440000000  0.4552770000000  0.5389640000000 1.0
C      1  0.5423080000000  0.4552680000000  0.5089360000000 1.0
C      1  0.5648580000000  0.5337870000000  0.4861060000000 1.0
C      1  0.4859220000000  0.5441440000000  0.4348330000000 1.0
C      1  0.4394980000000  0.5334520000000  0.5125980000000 1.0
C      1  0.5153430000000  0.5356110000000  0.5617690000000 1.0
C      1  0.4670040000000  0.4765060000000  0.4804270000000 1.0
C      1  0.4866120000000  0.4821500000000  0.5274570000000 1.0
C      1  0.5263020000000  0.4827290000000  0.5107750000000 1.0
C      1  0.5148790000000  0.4767780000000  0.4680150000000 1.0
C      1  0.5397820000000  0.5104820000000  0.4362800000000 1.0
C      1  0.4354310000000  0.5054330000000  0.4562830000000 1.0
C      1  0.4640330000000  0.5084350000000  0.5617340000000 1.0
C      1  0.5608120000000  0.5019930000000  0.5419230000000 1.0
C      1  0.5369570000000  0.5066400000000  0.4951640000000 1.0
C      1  0.4999740000000  0.5073260000000  0.4669380000000 1.0
C      1  0.4685510000000  0.5048100000000  0.4999710000000 1.0
C      1  0.5037460000000  0.5084310000000  0.5313900000000 1.0
C      1  0.4962920000000  0.4857470000000  0.4950530000000 1.0
END
