TITL C-3289324-3781-99 -0.00139189002567109 125000 -120.833801349215 0 0 25 (C1) n - 1
REM
REM in /nfs/bkarasulu/CARBON/AIRSS/Generating-Clusters/AIREBO/with-SteepDescent/Higher-Symm/SD-CG/HFTN-CG
REM
REM
REM
REM
REM
REM ./C.cell (b20cbc046b6831c77cfcea5457e17084)
REM
REM compiler GCC version 9.2.1 20190827 (Red Hat 9.2.1-1)
REM options -cpp -mtune=generic -march=x86-64 -g -O0 -fpre-include=/usr/include/finclude/math-vector-fortran.h
REM seed -70561140 -258113307 89175984 -1392980895 -966088010 188489121 101197216 -1753781949 -1558005597 -1102547258 -691454276 -2066248484 -71570529 -239758417 -1854638982 -1012440282 1268503262 1841414895 -1887710974 1375750212 212345221 1386712421 -72320958 189079629 1861848012 -992283752 1988495358 1285180056 2140049804 456646673 -1784651312 -902259695 526789777
REM
CELL 1.54180   50.00000   50.00000   50.00000   90.00000   90.00000   90.00000
LATT -1
SFAC C  
C      1  0.4594160000000  0.5475080000000  0.5028590000000 1.0
C      1  0.5464780000000  0.5411760000000  0.4772490000000 1.0
C      1  0.4760460000000  0.4440650000000  0.5151860000000 1.0
C      1  0.5403030000000  0.4625460000000  0.4719110000000 1.0
C      1  0.4571780000000  0.5376290000000  0.4743980000000 1.0
C      1  0.5447590000000  0.5491010000000  0.5052170000000 1.0
C      1  0.4578140000000  0.4534630000000  0.4909510000000 1.0
C      1  0.5308370000000  0.4473080000000  0.4523010000000 1.0
C      1  0.4720870000000  0.4983300000000  0.5181240000000 1.0
C      1  0.5458880000000  0.4931430000000  0.4845310000000 1.0
C      1  0.4612300000000  0.5249080000000  0.5262490000000 1.0
C      1  0.5619460000000  0.5165300000000  0.4760520000000 1.0
C      1  0.4537710000000  0.4869480000000  0.4919380000000 1.0
C      1  0.5328940000000  0.4982690000000  0.5155370000000 1.0
C      1  0.4433500000000  0.5090070000000  0.4755550000000 1.0
C      1  0.5447310000000  0.5245370000000  0.5254510000000 1.0
C      1  0.4252560000000  0.5310010000000  0.4903590000000 1.0
C      1  0.5745050000000  0.5329330000000  0.5182980000000 1.0
C      1  0.4324430000000  0.4661760000000  0.5095020000000 1.0
C      1  0.5454960000000  0.4700320000000  0.5300220000000 1.0
C      1  0.4322090000000  0.5377190000000  0.5198310000000 1.0
C      1  0.5845720000000  0.5208350000000  0.4938610000000 1.0
C      1  0.4604430000000  0.4694960000000  0.5270660000000 1.0
C      1  0.5499150000000  0.4649030000000  0.5018570000000 1.0
C      1  0.5023470000000  0.4982520000000  0.5153250000000 1.0
END
