TITL C-3289331-6719-551 -0.00103648474165812 125000 -409.916866940012 0 0 87 (C1) n - 1
REM
REM in /nfs/bkarasulu/CARBON/AIRSS/Generating-Clusters/AIREBO/with-SteepDescent/Higher-Symm/SD-CG/HFTN-CG
REM
REM
REM
REM
REM
REM ./C.cell (b20cbc046b6831c77cfcea5457e17084)
REM
REM compiler GCC version 9.2.1 20190827 (Red Hat 9.2.1-1)
REM options -cpp -mtune=generic -march=x86-64 -g -O0 -fpre-include=/usr/include/finclude/math-vector-fortran.h
REM seed 839407996 321602052 134242477 -205151764 -567226001 -798529760 1904300504 1072974484 973160199 -1887248111 1599686364 135836170 682654276 2043819848 -1302622728 1798769456 -555808141 -678333099 1733590265 1785788749 -1734415383 -74346805 596031284 -1713655223 351846911 -1800399951 531183868 -781297104 -716783666 61392150 -1547550612 73288130 555931329
REM
CELL 1.54180   50.00000   50.00000   50.00000   90.00000   90.00000   90.00000
LATT -1
SFAC C  
C      1  0.5517250000000  0.5047410000000  0.5588950000000 1.0
C      1  0.5462210000000  0.4343250000000  0.5066840000000 1.0
C      1  0.5530890000000  0.4991000000000  0.4443970000000 1.0
C      1  0.5467350000000  0.5725300000000  0.4826050000000 1.0
C      1  0.4450170000000  0.4944000000000  0.5571920000000 1.0
C      1  0.4510160000000  0.4323170000000  0.4952500000000 1.0
C      1  0.4491810000000  0.4992750000000  0.4455680000000 1.0
C      1  0.4487460000000  0.5575090000000  0.5080910000000 1.0
C      1  0.4826870000000  0.5420560000000  0.5502030000000 1.0
C      1  0.4713010000000  0.4496180000000  0.5442580000000 1.0
C      1  0.4861340000000  0.4556080000000  0.4512670000000 1.0
C      1  0.4759300000000  0.5500270000000  0.4554430000000 1.0
C      1  0.5427560000000  0.5418110000000  0.5473670000000 1.0
C      1  0.5331030000000  0.4511730000000  0.5402370000000 1.0
C      1  0.5433930000000  0.4516260000000  0.4540000000000 1.0
C      1  0.5364380000000  0.5474080000000  0.4579320000000 1.0
C      1  0.5272200000000  0.4888280000000  0.5680700000000 1.0
C      1  0.5463530000000  0.4178600000000  0.4836230000000 1.0
C      1  0.5286940000000  0.5107730000000  0.4286820000000 1.0
C      1  0.5352640000000  0.5665000000000  0.5077410000000 1.0
C      1  0.4725160000000  0.4838590000000  0.5759570000000 1.0
C      1  0.4762310000000  0.4261840000000  0.4764200000000 1.0
C      1  0.4727150000000  0.5135850000000  0.4236340000000 1.0
C      1  0.4774040000000  0.5758540000000  0.5154690000000 1.0
C      1  0.4326840000000  0.5348750000000  0.4884430000000 1.0
C      1  0.4311240000000  0.5143060000000  0.5329890000000 1.0
C      1  0.4297110000000  0.4763120000000  0.5197780000000 1.0
C      1  0.4373410000000  0.4840400000000  0.4735720000000 1.0
C      1  0.5506240000000  0.5230740000000  0.4770260000000 1.0
C      1  0.5538900000000  0.5166680000000  0.5271120000000 1.0
C      1  0.5495730000000  0.4671620000000  0.5149030000000 1.0
C      1  0.5545880000000  0.4786750000000  0.4715480000000 1.0
C      1  0.5081250000000  0.5040400000000  0.4549150000000 1.0
C      1  0.5095150000000  0.5445200000000  0.5044830000000 1.0
C      1  0.5052880000000  0.4954320000000  0.5429380000000 1.0
C      1  0.5077700000000  0.4567040000000  0.4966980000000 1.0
C      1  0.4763650000000  0.5159640000000  0.4573600000000 1.0
C      1  0.4777750000000  0.5418600000000  0.5164010000000 1.0
C      1  0.4734320000000  0.4835750000000  0.5419620000000 1.0
C      1  0.4784800000000  0.4590880000000  0.4847100000000 1.0
C      1  0.4660050000000  0.5281750000000  0.4873570000000 1.0
C      1  0.4648310000000  0.5136230000000  0.5285650000000 1.0
C      1  0.4625000000000  0.4714670000000  0.5121260000000 1.0
C      1  0.4707810000000  0.4897550000000  0.4777010000000 1.0
C      1  0.5170290000000  0.5222450000000  0.4822160000000 1.0
C      1  0.5201330000000  0.5191800000000  0.5237990000000 1.0
C      1  0.5178780000000  0.4794270000000  0.5164760000000 1.0
C      1  0.5206520000000  0.4782930000000  0.4736050000000 1.0
C      1  0.5836310000000  0.4944320000000  0.4796270000000 1.0
C      1  0.5804470000000  0.5232120000000  0.4933760000000 1.0
C      1  0.5837040000000  0.5027670000000  0.5184370000000 1.0
C      1  0.5811800000000  0.4742790000000  0.5045410000000 1.0
C      1  0.4053720000000  0.4951070000000  0.4701360000000 1.0
C      1  0.4024990000000  0.5193550000000  0.4905840000000 1.0
C      1  0.4016130000000  0.5053360000000  0.5186830000000 1.0
C      1  0.4052360000000  0.4804940000000  0.4982090000000 1.0
C      1  0.5271020000000  0.5624600000000  0.5355410000000 1.0
C      1  0.5180190000000  0.4620610000000  0.5609310000000 1.0
C      1  0.5316040000000  0.4278270000000  0.4613810000000 1.0
C      1  0.5196230000000  0.5374530000000  0.4346390000000 1.0
C      1  0.4988020000000  0.5670930000000  0.5390990000000 1.0
C      1  0.4906570000000  0.4575320000000  0.5667300000000 1.0
C      1  0.5027880000000  0.4268690000000  0.4585530000000 1.0
C      1  0.4917860000000  0.5409010000000  0.4304560000000 1.0
C      1  0.4713500000000  0.4335090000000  0.5208020000000 1.0
C      1  0.4731870000000  0.4800480000000  0.4310770000000 1.0
C      1  0.4674390000000  0.5676240000000  0.4815420000000 1.0
C      1  0.4679700000000  0.5169610000000  0.5681720000000 1.0
C      1  0.5233710000000  0.4265600000000  0.5257180000000 1.0
C      1  0.5359540000000  0.4726720000000  0.4365070000000 1.0
C      1  0.5204420000000  0.5742720000000  0.4665650000000 1.0
C      1  0.5304200000000  0.5283390000000  0.5709500000000 1.0
C      1  0.5751440000000  0.5287050000000  0.4541410000000 1.0
C      1  0.5780070000000  0.5405700000000  0.5289210000000 1.0
C      1  0.5683180000000  0.4744090000000  0.5420550000000 1.0
C      1  0.5802670000000  0.4566680000000  0.4680130000000 1.0
C      1  0.4231440000000  0.5533350000000  0.4664460000000 1.0
C      1  0.4245960000000  0.5408220000000  0.5440660000000 1.0
C      1  0.4203330000000  0.4662780000000  0.5441680000000 1.0
C      1  0.4327550000000  0.4508200000000  0.4797030000000 1.0
C      1  0.5015190000000  0.5208530000000  0.5652060000000 1.0
C      1  0.5055160000000  0.4764000000000  0.4354200000000 1.0
C      1  0.4987580000000  0.5676960000000  0.4827300000000 1.0
C      1  0.4982300000000  0.4311160000000  0.5125200000000 1.0
C      1  0.4375660000000  0.5037500000000  0.5012890000000 1.0
C      1  0.5490920000000  0.4974720000000  0.4993930000000 1.0
C      1  0.4995640000000  0.4954150000000  0.4928260000000 1.0
END
