TITL C-3289329-2751-231 -0.000279859877245119 125000 -558.278827831489 0 0 104 (C1) n - 1
REM
REM in /nfs/bkarasulu/CARBON/AIRSS/Generating-Clusters/AIREBO/with-SteepDescent/Higher-Symm/SD-CG/HFTN-CG
REM
REM
REM
REM
REM
REM ./C.cell (b20cbc046b6831c77cfcea5457e17084)
REM
REM compiler GCC version 9.2.1 20190827 (Red Hat 9.2.1-1)
REM options -cpp -mtune=generic -march=x86-64 -g -O0 -fpre-include=/usr/include/finclude/math-vector-fortran.h
REM seed -943670847 1321841884 2003145911 1428973633 1099959308 407794624 -1293430978 2051332763 -1194237350 -941850821 -476900703 434908623 -1425083162 -1848494205 2125718992 -58345089 815150197 1154511956 -1407130148 1972997531 982152609 1034590613 -828998533 1890505114 1887105270 -608431214 -248428485 1893171958 1457039582 1308356725 1239238397 -465620681 -1136154329
REM
CELL 1.54180   50.00000   50.00000   50.00000   90.00000   90.00000   90.00000
LATT -1
SFAC C  
C      1  0.5912130000000  0.5165780000000  0.4528310000000 1.0
C      1  0.4664730000000  0.5939720000000  0.5191470000000 1.0
C      1  0.5150250000000  0.4649970000000  0.5919850000000 1.0
C      1  0.6009100000000  0.4948360000000  0.5203930000000 1.0
C      1  0.4134730000000  0.5002820000000  0.4517100000000 1.0
C      1  0.4109990000000  0.5175730000000  0.5326120000000 1.0
C      1  0.4660320000000  0.4038430000000  0.4905540000000 1.0
C      1  0.5320310000000  0.4028210000000  0.5258310000000 1.0
C      1  0.5402670000000  0.5874490000000  0.4955860000000 1.0
C      1  0.5104790000000  0.5386220000000  0.4140010000000 1.0
C      1  0.4920820000000  0.5386470000000  0.5849730000000 1.0
C      1  0.4817220000000  0.4698850000000  0.3977650000000 1.0
C      1  0.4091440000000  0.5267180000000  0.4568220000000 1.0
C      1  0.5379020000000  0.5866610000000  0.5202940000000 1.0
C      1  0.4878570000000  0.4698550000000  0.5904000000000 1.0
C      1  0.4004020000000  0.4925470000000  0.5273230000000 1.0
C      1  0.5846750000000  0.4896630000000  0.4552030000000 1.0
C      1  0.5901510000000  0.5186390000000  0.5281110000000 1.0
C      1  0.5281410000000  0.3935900000000  0.5005410000000 1.0
C      1  0.4541800000000  0.4118070000000  0.5158570000000 1.0
C      1  0.4699350000000  0.5912540000000  0.4918190000000 1.0
C      1  0.4852670000000  0.5323820000000  0.4069740000000 1.0
C      1  0.5166670000000  0.5354810000000  0.5865550000000 1.0
C      1  0.5080580000000  0.4692560000000  0.4056460000000 1.0
C      1  0.5099590000000  0.4526820000000  0.5290870000000 1.0
C      1  0.5293280000000  0.5176050000000  0.4529360000000 1.0
C      1  0.4531130000000  0.5281960000000  0.5126320000000 1.0
C      1  0.5190080000000  0.5483980000000  0.4630410000000 1.0
C      1  0.4816370000000  0.5391610000000  0.5275410000000 1.0
C      1  0.4870300000000  0.4533600000000  0.4767050000000 1.0
C      1  0.5242770000000  0.4809210000000  0.5375090000000 1.0
C      1  0.4786910000000  0.4829840000000  0.4627440000000 1.0
C      1  0.4606870000000  0.5167190000000  0.5437450000000 1.0
C      1  0.4588720000000  0.4711660000000  0.4856620000000 1.0
C      1  0.5376340000000  0.4618060000000  0.5139480000000 1.0
C      1  0.5429980000000  0.5306630000000  0.4812010000000 1.0
C      1  0.4782260000000  0.4544480000000  0.5273300000000 1.0
C      1  0.4747100000000  0.5133350000000  0.4552690000000 1.0
C      1  0.5390180000000  0.5293150000000  0.5126800000000 1.0
C      1  0.4871120000000  0.5408490000000  0.4711660000000 1.0
C      1  0.5136950000000  0.5398210000000  0.5303110000000 1.0
C      1  0.5173930000000  0.4570010000000  0.4674320000000 1.0
C      1  0.4666110000000  0.4834240000000  0.5402120000000 1.0
C      1  0.5237030000000  0.4869850000000  0.4600910000000 1.0
C      1  0.5302570000000  0.5126590000000  0.5400310000000 1.0
C      1  0.5411970000000  0.4729870000000  0.4857020000000 1.0
C      1  0.4479940000000  0.4652510000000  0.5161170000000 1.0
C      1  0.4594330000000  0.5277760000000  0.4805570000000 1.0
C      1  0.5068680000000  0.4175960000000  0.5685710000000 1.0
C      1  0.5533680000000  0.5103570000000  0.4033820000000 1.0
C      1  0.4091120000000  0.5625760000000  0.5075020000000 1.0
C      1  0.5196500000000  0.6005780000000  0.4503200000000 1.0
C      1  0.5104300000000  0.5881680000000  0.5891470000000 1.0
C      1  0.5353660000000  0.3895150000000  0.4383420000000 1.0
C      1  0.5642110000000  0.4914540000000  0.6031870000000 1.0
C      1  0.4534590000000  0.4615140000000  0.4330590000000 1.0
C      1  0.4453500000000  0.5201750000000  0.5951110000000 1.0
C      1  0.4246000000000  0.4556670000000  0.4722810000000 1.0
C      1  0.5868240000000  0.4481680000000  0.5144660000000 1.0
C      1  0.5839090000000  0.5885050000000  0.5036350000000 1.0
C      1  0.5022090000000  0.4122110000000  0.5930770000000 1.0
C      1  0.4372770000000  0.5162500000000  0.4170000000000 1.0
C      1  0.5782590000000  0.5637380000000  0.5060390000000 1.0
C      1  0.5177660000000  0.6188540000000  0.4326070000000 1.0
C      1  0.5136980000000  0.5794870000000  0.5653720000000 1.0
C      1  0.5263560000000  0.4095170000000  0.4538100000000 1.0
C      1  0.4250890000000  0.5201120000000  0.6106190000000 1.0
C      1  0.5752300000000  0.5081540000000  0.3904030000000 1.0
C      1  0.5608400000000  0.5094660000000  0.5827470000000 1.0
C      1  0.6074540000000  0.4313070000000  0.5178770000000 1.0
C      1  0.4170940000000  0.4473630000000  0.4982300000000 1.0
C      1  0.4000200000000  0.5863590000000  0.5058410000000 1.0
C      1  0.4848010000000  0.4232840000000  0.5198200000000 1.0
C      1  0.5128530000000  0.4895750000000  0.4300220000000 1.0
C      1  0.4285290000000  0.5212640000000  0.4821200000000 1.0
C      1  0.4928000000000  0.5693540000000  0.4846270000000 1.0
C      1  0.5166020000000  0.5718190000000  0.5362340000000 1.0
C      1  0.5157620000000  0.4064300000000  0.4792400000000 1.0
C      1  0.5334750000000  0.5142250000000  0.5724390000000 1.0
C      1  0.4666170000000  0.5151770000000  0.4244490000000 1.0
C      1  0.4806430000000  0.4916640000000  0.5675540000000 1.0
C      1  0.4145960000000  0.4714420000000  0.5177610000000 1.0
C      1  0.5700950000000  0.4837620000000  0.4838380000000 1.0
C      1  0.5714290000000  0.5341670000000  0.5089650000000 1.0
C      1  0.5112850000000  0.4213330000000  0.5388210000000 1.0
C      1  0.4788340000000  0.4837320000000  0.4286920000000 1.0
C      1  0.5719660000000  0.5176290000000  0.4805770000000 1.0
C      1  0.5206770000000  0.5807980000000  0.4732750000000 1.0
C      1  0.4893550000000  0.5690040000000  0.5185880000000 1.0
C      1  0.4915070000000  0.4231990000000  0.4864220000000 1.0
C      1  0.4693850000000  0.5201790000000  0.5765450000000 1.0
C      1  0.5286270000000  0.5154660000000  0.4196430000000 1.0
C      1  0.5145960000000  0.4881330000000  0.5671440000000 1.0
C      1  0.5892480000000  0.4744350000000  0.5054570000000 1.0
C      1  0.4306620000000  0.4858960000000  0.4736770000000 1.0
C      1  0.4197830000000  0.5344620000000  0.5094840000000 1.0
C      1  0.4362900000000  0.4318520000000  0.5158040000000 1.0
C      1  0.4125330000000  0.5194960000000  0.4116490000000 1.0
C      1  0.5270720000000  0.4365340000000  0.4466950000000 1.0
C      1  0.5602530000000  0.4418590000000  0.5206950000000 1.0
C      1  0.5164880000000  0.5586690000000  0.4312850000000 1.0
C      1  0.4287130000000  0.5201570000000  0.5529380000000 1.0
C      1  0.5814590000000  0.5247830000000  0.5730830000000 1.0
C      1  0.4361330000000  0.4465440000000  0.4481410000000 1.0
END
