TITL C-3289331-6719-108 -0.00371988518774887 125000 -546.925376296549 0 0 97 (C1) n - 1
REM
REM in /nfs/bkarasulu/CARBON/AIRSS/Generating-Clusters/AIREBO/with-SteepDescent/Higher-Symm/SD-CG/HFTN-CG
REM
REM
REM
REM
REM
REM ./C.cell (b20cbc046b6831c77cfcea5457e17084)
REM
REM compiler GCC version 9.2.1 20190827 (Red Hat 9.2.1-1)
REM options -cpp -mtune=generic -march=x86-64 -g -O0 -fpre-include=/usr/include/finclude/math-vector-fortran.h
REM seed 2121645594 1612362798 1527037517 698479646 512418158 -111619357 1166559491 294550856 -1004933583 555589283 399813689 -1891518591 -252188160 472654979 1073010842 1934496142 522994637 -1260679605 -366016304 391951876 -1365271440 78793835 431874891 578259195 1913458828 -1717081388 214181362 953681712 -1553939656 -2136009067 -530796635 923161467 1876126339
REM
CELL 1.54180   50.00000   50.00000   50.00000   90.00000   90.00000   90.00000
LATT -1
SFAC C  
C      1  0.4427910000000  0.4879530000000  0.5275780000000 1.0
C      1  0.5606480000000  0.5232750000000  0.5275500000000 1.0
C      1  0.4397530000000  0.4843450000000  0.4717780000000 1.0
C      1  0.5772960000000  0.5039520000000  0.4677270000000 1.0
C      1  0.4363170000000  0.5212750000000  0.5296280000000 1.0
C      1  0.5568150000000  0.4899520000000  0.5250000000000 1.0
C      1  0.4380980000000  0.5152660000000  0.4726160000000 1.0
C      1  0.5664060000000  0.4723360000000  0.4740300000000 1.0
C      1  0.4810720000000  0.4479830000000  0.4714720000000 1.0
C      1  0.5075010000000  0.5647660000000  0.4709040000000 1.0
C      1  0.4852130000000  0.4517680000000  0.5272240000000 1.0
C      1  0.5162560000000  0.5570660000000  0.5271180000000 1.0
C      1  0.4779140000000  0.5636950000000  0.4704880000000 1.0
C      1  0.5136030000000  0.4507030000000  0.4700100000000 1.0
C      1  0.4861510000000  0.5543770000000  0.5246400000000 1.0
C      1  0.5149670000000  0.4501100000000  0.5271120000000 1.0
C      1  0.4390880000000  0.4317400000000  0.5190630000000 1.0
C      1  0.5556670000000  0.5559710000000  0.5196220000000 1.0
C      1  0.4469880000000  0.4312940000000  0.4857580000000 1.0
C      1  0.5556650000000  0.5629980000000  0.4860070000000 1.0
C      1  0.4349650000000  0.5538050000000  0.5184060000000 1.0
C      1  0.5543960000000  0.4321290000000  0.5086930000000 1.0
C      1  0.4410720000000  0.5637080000000  0.4859420000000 1.0
C      1  0.5641020000000  0.4392380000000  0.4825070000000 1.0
C      1  0.5147750000000  0.5248900000000  0.5665260000000 1.0
C      1  0.4862780000000  0.4714690000000  0.5728200000000 1.0
C      1  0.5158850000000  0.5302250000000  0.4295590000000 1.0
C      1  0.4864540000000  0.4691650000000  0.4300410000000 1.0
C      1  0.5177040000000  0.4678980000000  0.5754090000000 1.0
C      1  0.4844570000000  0.5257590000000  0.5653110000000 1.0
C      1  0.5157400000000  0.4704100000000  0.4353710000000 1.0
C      1  0.4838190000000  0.5308800000000  0.4282350000000 1.0
C      1  0.5252380000000  0.4806550000000  0.5162710000000 1.0
C      1  0.4784260000000  0.5281790000000  0.5061050000000 1.0
C      1  0.5340530000000  0.4735770000000  0.4847340000000 1.0
C      1  0.4665610000000  0.5334550000000  0.4793080000000 1.0
C      1  0.5180730000000  0.5300360000000  0.5086910000000 1.0
C      1  0.4736230000000  0.4812070000000  0.5147500000000 1.0
C      1  0.5190770000000  0.5364230000000  0.4805550000000 1.0
C      1  0.4668090000000  0.4731360000000  0.4851510000000 1.0
C      1  0.5645160000000  0.4680580000000  0.4403480000000 1.0
C      1  0.4445430000000  0.5272440000000  0.4428290000000 1.0
C      1  0.5594920000000  0.4711860000000  0.5497590000000 1.0
C      1  0.4346950000000  0.5270530000000  0.5630980000000 1.0
C      1  0.5597370000000  0.5208660000000  0.4513190000000 1.0
C      1  0.4390420000000  0.4712160000000  0.4429470000000 1.0
C      1  0.5654600000000  0.5256250000000  0.5620930000000 1.0
C      1  0.4400770000000  0.4729480000000  0.5544420000000 1.0
C      1  0.4154770000000  0.4757640000000  0.4891530000000 1.0
C      1  0.5933480000000  0.5160400000000  0.4855860000000 1.0
C      1  0.4201400000000  0.4714710000000  0.5135500000000 1.0
C      1  0.5897150000000  0.5208690000000  0.5120630000000 1.0
C      1  0.4107530000000  0.5202180000000  0.4866820000000 1.0
C      1  0.5915800000000  0.4704170000000  0.4963990000000 1.0
C      1  0.4089140000000  0.5159780000000  0.5116080000000 1.0
C      1  0.5856060000000  0.4763050000000  0.5201870000000 1.0
C      1  0.4639730000000  0.5848930000000  0.4903690000000 1.0
C      1  0.5094810000000  0.4252690000000  0.4875540000000 1.0
C      1  0.4621270000000  0.5731240000000  0.5182090000000 1.0
C      1  0.5256510000000  0.4284630000000  0.5097360000000 1.0
C      1  0.4785320000000  0.4188850000000  0.4884400000000 1.0
C      1  0.5300210000000  0.5824390000000  0.4842000000000 1.0
C      1  0.4698150000000  0.4272160000000  0.5174070000000 1.0
C      1  0.5326720000000  0.5798140000000  0.5135100000000 1.0
C      1  0.5286780000000  0.5161930000000  0.5367380000000 1.0
C      1  0.4824250000000  0.4906880000000  0.5462070000000 1.0
C      1  0.5273730000000  0.5180490000000  0.4591510000000 1.0
C      1  0.4780490000000  0.4858260000000  0.4579650000000 1.0
C      1  0.5147550000000  0.4877510000000  0.5478540000000 1.0
C      1  0.4696260000000  0.5180530000000  0.5356800000000 1.0
C      1  0.5213760000000  0.4888190000000  0.4607420000000 1.0
C      1  0.4736460000000  0.5142400000000  0.4546670000000 1.0
C      1  0.5273130000000  0.5560210000000  0.4468420000000 1.0
C      1  0.4687030000000  0.4445020000000  0.4417020000000 1.0
C      1  0.5271370000000  0.5520740000000  0.5542630000000 1.0
C      1  0.4717500000000  0.4486400000000  0.5548950000000 1.0
C      1  0.5291090000000  0.4412670000000  0.4444410000000 1.0
C      1  0.4687100000000  0.5583720000000  0.4399150000000 1.0
C      1  0.5290530000000  0.4458780000000  0.5545590000000 1.0
C      1  0.4728170000000  0.5537930000000  0.5529670000000 1.0
C      1  0.4573600000000  0.4817210000000  0.4241000000000 1.0
C      1  0.5436210000000  0.5106460000000  0.4238030000000 1.0
C      1  0.4558210000000  0.4841480000000  0.5751790000000 1.0
C      1  0.5444430000000  0.5100290000000  0.5740090000000 1.0
C      1  0.4585850000000  0.5097920000000  0.4181540000000 1.0
C      1  0.5438180000000  0.4819000000000  0.4263500000000 1.0
C      1  0.4562090000000  0.5123440000000  0.5758300000000 1.0
C      1  0.5460660000000  0.4820340000000  0.5718810000000 1.0
C      1  0.5573450000000  0.4403460000000  0.4519220000000 1.0
C      1  0.4405020000000  0.5558620000000  0.4588730000000 1.0
C      1  0.5576250000000  0.4421120000000  0.5389740000000 1.0
C      1  0.4442700000000  0.5538580000000  0.5511110000000 1.0
C      1  0.5526240000000  0.5498610000000  0.4601700000000 1.0
C      1  0.4428320000000  0.4436200000000  0.4606380000000 1.0
C      1  0.5567260000000  0.5532310000000  0.5535010000000 1.0
C      1  0.4424840000000  0.4433500000000  0.5481800000000 1.0
C      1  0.4997620000000  0.5028420000000  0.5124200000000 1.0
END
