TITL C-3289321-8710-758 -0.000164736100015356 125000 -595.920224648497 0 0 111 (C1) n - 1
REM
REM in /nfs/bkarasulu/CARBON/AIRSS/Generating-Clusters/AIREBO/with-SteepDescent/Higher-Symm/SD-CG/HFTN-CG
REM
REM
REM
REM
REM
REM ./C.cell (b20cbc046b6831c77cfcea5457e17084)
REM
REM compiler GCC version 9.2.1 20190827 (Red Hat 9.2.1-1)
REM options -cpp -mtune=generic -march=x86-64 -g -O0 -fpre-include=/usr/include/finclude/math-vector-fortran.h
REM seed -134495914 1126534005 366129787 2038809032 -1354685469 671515125 -1416517093 298230496 -671428284 1372758494 1448430153 1081043948 -1423405324 787773997 1322462437 1845134096 -1373833652 -1264094074 25335713 -843974084 -2086340162 -892423071 1905373620 -1165721205 481187314 -712954515 -173589364 752083274 1967387613 -1181129406 387805047 -740472377 -795932014
REM
CELL 1.54180   50.00000   50.00000   50.00000   90.00000   90.00000   90.00000
LATT -1
SFAC C  
C      1  0.5583140000000  0.4406600000000  0.4557590000000 1.0
C      1  0.4878270000000  0.4397020000000  0.4257650000000 1.0
C      1  0.4206610000000  0.4512760000000  0.4903810000000 1.0
C      1  0.4778350000000  0.4534560000000  0.5615740000000 1.0
C      1  0.5604000000000  0.4501290000000  0.5411040000000 1.0
C      1  0.4344880000000  0.4955490000000  0.5192490000000 1.0
C      1  0.5027520000000  0.4991200000000  0.5540840000000 1.0
C      1  0.5667690000000  0.4982460000000  0.5121430000000 1.0
C      1  0.5308790000000  0.5275340000000  0.4570590000000 1.0
C      1  0.4654730000000  0.4925060000000  0.4412660000000 1.0
C      1  0.4858980000000  0.5321780000000  0.4780370000000 1.0
C      1  0.4687290000000  0.5668220000000  0.5158210000000 1.0
C      1  0.5088530000000  0.5444170000000  0.5339990000000 1.0
C      1  0.5290590000000  0.5428710000000  0.5065300000000 1.0
C      1  0.5102250000000  0.5557210000000  0.4812800000000 1.0
C      1  0.4246290000000  0.5183000000000  0.4666700000000 1.0
C      1  0.4453770000000  0.5179960000000  0.5737140000000 1.0
C      1  0.5585630000000  0.4968640000000  0.5737530000000 1.0
C      1  0.5927860000000  0.5185900000000  0.4735560000000 1.0
C      1  0.5051800000000  0.5082220000000  0.4112790000000 1.0
C      1  0.4292390000000  0.5108110000000  0.5473310000000 1.0
C      1  0.5287170000000  0.5030610000000  0.5756970000000 1.0
C      1  0.5953430000000  0.5065210000000  0.4956770000000 1.0
C      1  0.5108230000000  0.4801260000000  0.4143730000000 1.0
C      1  0.4336290000000  0.5034090000000  0.4460980000000 1.0
C      1  0.5311770000000  0.4558930000000  0.5430490000000 1.0
C      1  0.5509800000000  0.4492290000000  0.4813080000000 1.0
C      1  0.5098160000000  0.4420150000000  0.4471380000000 1.0
C      1  0.4427620000000  0.4497710000000  0.4748760000000 1.0
C      1  0.4607600000000  0.4434260000000  0.5390190000000 1.0
C      1  0.5031420000000  0.5188730000000  0.5897630000000 1.0
C      1  0.5789340000000  0.4803200000000  0.5780100000000 1.0
C      1  0.5728090000000  0.5350700000000  0.4355360000000 1.0
C      1  0.4578950000000  0.5035190000000  0.3909480000000 1.0
C      1  0.3883410000000  0.4926970000000  0.4918950000000 1.0
C      1  0.5304260000000  0.4876780000000  0.5389720000000 1.0
C      1  0.5549920000000  0.4768450000000  0.4901090000000 1.0
C      1  0.5033960000000  0.4750680000000  0.4423430000000 1.0
C      1  0.4554000000000  0.4760660000000  0.4692820000000 1.0
C      1  0.4570480000000  0.4728230000000  0.5306870000000 1.0
C      1  0.5177960000000  0.5084450000000  0.4752530000000 1.0
C      1  0.4879490000000  0.5031770000000  0.4644450000000 1.0
C      1  0.4633790000000  0.5115660000000  0.5111650000000 1.0
C      1  0.4860130000000  0.5196430000000  0.5336390000000 1.0
C      1  0.5199020000000  0.5117590000000  0.5091940000000 1.0
C      1  0.5091320000000  0.5802170000000  0.5759770000000 1.0
C      1  0.5640090000000  0.5799370000000  0.5254570000000 1.0
C      1  0.5300310000000  0.5808730000000  0.4392610000000 1.0
C      1  0.4625230000000  0.5769680000000  0.4467880000000 1.0
C      1  0.4188010000000  0.5723160000000  0.5260540000000 1.0
C      1  0.4632640000000  0.4624640000000  0.4253700000000 1.0
C      1  0.4169890000000  0.4664010000000  0.5201950000000 1.0
C      1  0.5076850000000  0.4669420000000  0.5641390000000 1.0
C      1  0.5823290000000  0.4709930000000  0.5252810000000 1.0
C      1  0.5374080000000  0.4333980000000  0.4389670000000 1.0
C      1  0.4589190000000  0.5363890000000  0.4920960000000 1.0
C      1  0.4698080000000  0.5487620000000  0.5404100000000 1.0
C      1  0.5371650000000  0.5360800000000  0.5492820000000 1.0
C      1  0.5587290000000  0.5283060000000  0.4983670000000 1.0
C      1  0.5066590000000  0.5496250000000  0.4480100000000 1.0
C      1  0.4387740000000  0.4508490000000  0.4319070000000 1.0
C      1  0.4219630000000  0.4512960000000  0.5423570000000 1.0
C      1  0.5166670000000  0.4619830000000  0.5932710000000 1.0
C      1  0.6026590000000  0.4609360000000  0.5089000000000 1.0
C      1  0.5404020000000  0.4162270000000  0.4178010000000 1.0
C      1  0.4401710000000  0.5619210000000  0.5045110000000 1.0
C      1  0.4924110000000  0.5613070000000  0.5587660000000 1.0
C      1  0.5437160000000  0.5630530000000  0.5296440000000 1.0
C      1  0.5344500000000  0.5745120000000  0.4665660000000 1.0
C      1  0.4803750000000  0.5580450000000  0.4369590000000 1.0
C      1  0.5275050000000  0.4364740000000  0.4936130000000 1.0
C      1  0.5025860000000  0.4321540000000  0.4735840000000 1.0
C      1  0.4751860000000  0.4449040000000  0.4845590000000 1.0
C      1  0.4673440000000  0.4293520000000  0.5139820000000 1.0
C      1  0.5130740000000  0.4425280000000  0.5226280000000 1.0
C      1  0.3935970000000  0.4664610000000  0.4972520000000 1.0
C      1  0.4726370000000  0.4746070000000  0.5816360000000 1.0
C      1  0.5842870000000  0.4625360000000  0.5575400000000 1.0
C      1  0.5839770000000  0.4409410000000  0.4475390000000 1.0
C      1  0.4902120000000  0.4617420000000  0.4041240000000 1.0
C      1  0.5052890000000  0.4107340000000  0.5305930000000 1.0
C      1  0.5274140000000  0.4076100000000  0.5095250000000 1.0
C      1  0.5089220000000  0.4024500000000  0.4844900000000 1.0
C      1  0.4849450000000  0.3883030000000  0.4939040000000 1.0
C      1  0.4799930000000  0.4043730000000  0.5180020000000 1.0
C      1  0.4139870000000  0.5409700000000  0.5019790000000 1.0
C      1  0.4803900000000  0.5385630000000  0.5775300000000 1.0
C      1  0.5843900000000  0.5255560000000  0.5395640000000 1.0
C      1  0.5596910000000  0.5655420000000  0.4721160000000 1.0
C      1  0.4710920000000  0.5414110000000  0.4181630000000 1.0
C      1  0.5867880000000  0.5675540000000  0.5158380000000 1.0
C      1  0.5306100000000  0.5622020000000  0.4186620000000 1.0
C      1  0.4393350000000  0.5678070000000  0.4584640000000 1.0
C      1  0.4231230000000  0.5650550000000  0.5500690000000 1.0
C      1  0.5275010000000  0.5674700000000  0.5885750000000 1.0
C      1  0.5633590000000  0.5333510000000  0.4650560000000 1.0
C      1  0.4731110000000  0.5109530000000  0.4136770000000 1.0
C      1  0.4142950000000  0.5094000000000  0.4953680000000 1.0
C      1  0.4727620000000  0.5055460000000  0.5822810000000 1.0
C      1  0.5550920000000  0.5087040000000  0.5423440000000 1.0
C      1  0.4718550000000  0.4854470000000  0.4960560000000 1.0
C      1  0.4870590000000  0.4638920000000  0.5173940000000 1.0
C      1  0.5111580000000  0.4814560000000  0.5137030000000 1.0
C      1  0.5254260000000  0.4795770000000  0.4861990000000 1.0
C      1  0.4944400000000  0.4712630000000  0.4749350000000 1.0
C      1  0.5216770000000  0.5304840000000  0.4243480000000 1.0
C      1  0.4376890000000  0.5425570000000  0.4698680000000 1.0
C      1  0.4435200000000  0.5437450000000  0.5545270000000 1.0
C      1  0.5286190000000  0.5393640000000  0.5803810000000 1.0
C      1  0.5836940000000  0.5395020000000  0.5156620000000 1.0
C      1  0.4895320000000  0.5745750000000  0.4995570000000 1.0
END
