TITL C-3289321-8710-328 0.00303932072710451 125000 -912.051266818582 0 0 162 (C1) n - 1
REM
REM in /nfs/bkarasulu/CARBON/AIRSS/Generating-Clusters/AIREBO/with-SteepDescent/Higher-Symm/SD-CG/HFTN-CG
REM
REM
REM
REM
REM
REM ./C.cell (b20cbc046b6831c77cfcea5457e17084)
REM
REM compiler GCC version 9.2.1 20190827 (Red Hat 9.2.1-1)
REM options -cpp -mtune=generic -march=x86-64 -g -O0 -fpre-include=/usr/include/finclude/math-vector-fortran.h
REM seed -1085456563 1213490840 -396585982 -2127586498 -149309875 -1099435010 -817635639 685488740 1036780206 878591037 733071701 -1274801364 1385285475 1828082433 -1214290002 414313725 -631769470 756821643 -1666593438 -1357504120 952156021 -1479404567 -1541807271 -673211892 -757238436 1691844567 494605076 -322462634 -38785329 -1116685514 -132906252 1703382448 1941413207
REM
CELL 1.54180   50.00000   50.00000   50.00000   90.00000   90.00000   90.00000
LATT -1
SFAC C  
C      1  0.5151510000000  0.5683850000000  0.5383790000000 1.0
C      1  0.4889620000000  0.5681690000000  0.4570990000000 1.0
C      1  0.5170660000000  0.5602760000000  0.4517350000000 1.0
C      1  0.4855780000000  0.5655480000000  0.5409950000000 1.0
C      1  0.5561800000000  0.4501040000000  0.4409900000000 1.0
C      1  0.4437400000000  0.4472380000000  0.5544760000000 1.0
C      1  0.5722020000000  0.4493350000000  0.5628960000000 1.0
C      1  0.4359700000000  0.4459660000000  0.4406800000000 1.0
C      1  0.4240060000000  0.4728090000000  0.5094580000000 1.0
C      1  0.5684490000000  0.4772820000000  0.4866910000000 1.0
C      1  0.4280060000000  0.4792890000000  0.4816350000000 1.0
C      1  0.5699620000000  0.4748840000000  0.5157730000000 1.0
C      1  0.4837930000000  0.4887590000000  0.5587610000000 1.0
C      1  0.5226550000000  0.4871830000000  0.4492840000000 1.0
C      1  0.4774160000000  0.4926310000000  0.4482880000000 1.0
C      1  0.5170920000000  0.4892620000000  0.5586350000000 1.0
C      1  0.5407520000000  0.5199730000000  0.4071850000000 1.0
C      1  0.4588550000000  0.5110220000000  0.5894930000000 1.0
C      1  0.5384480000000  0.5188670000000  0.5854960000000 1.0
C      1  0.4669420000000  0.5139880000000  0.4045640000000 1.0
C      1  0.4767990000000  0.5198300000000  0.5194180000000 1.0
C      1  0.5089400000000  0.5303020000000  0.4802540000000 1.0
C      1  0.4773500000000  0.5346880000000  0.4824100000000 1.0
C      1  0.5097650000000  0.5221600000000  0.5205980000000 1.0
C      1  0.4090740000000  0.4929070000000  0.4585290000000 1.0
C      1  0.5969470000000  0.4932390000000  0.5387910000000 1.0
C      1  0.4059060000000  0.4896020000000  0.5405340000000 1.0
C      1  0.5870020000000  0.4912880000000  0.4635430000000 1.0
C      1  0.4707320000000  0.5532240000000  0.5171330000000 1.0
C      1  0.5261220000000  0.5593420000000  0.4844980000000 1.0
C      1  0.4727410000000  0.5679140000000  0.4865360000000 1.0
C      1  0.5258000000000  0.5509580000000  0.5165880000000 1.0
C      1  0.4806080000000  0.5874240000000  0.5738080000000 1.0
C      1  0.5187060000000  0.5956190000000  0.4335910000000 1.0
C      1  0.4888820000000  0.5971740000000  0.4306150000000 1.0
C      1  0.5113970000000  0.5930300000000  0.5691600000000 1.0
C      1  0.5553900000000  0.5481630000000  0.5871290000000 1.0
C      1  0.4525160000000  0.5431500000000  0.4133450000000 1.0
C      1  0.5507060000000  0.5463980000000  0.4153300000000 1.0
C      1  0.4433420000000  0.5398820000000  0.5920040000000 1.0
C      1  0.4235180000000  0.4398170000000  0.4803460000000 1.0
C      1  0.5720180000000  0.4428440000000  0.5197310000000 1.0
C      1  0.4155020000000  0.4404440000000  0.5122200000000 1.0
C      1  0.5773420000000  0.4384250000000  0.4870720000000 1.0
C      1  0.4561930000000  0.5467580000000  0.4511990000000 1.0
C      1  0.5406290000000  0.5412140000000  0.5524030000000 1.0
C      1  0.4536430000000  0.5459080000000  0.5550670000000 1.0
C      1  0.5483610000000  0.5306710000000  0.4517440000000 1.0
C      1  0.5525130000000  0.4111040000000  0.4718810000000 1.0
C      1  0.4405460000000  0.4096380000000  0.5152220000000 1.0
C      1  0.5369670000000  0.4079580000000  0.5377270000000 1.0
C      1  0.4517430000000  0.4120340000000  0.4847630000000 1.0
C      1  0.4805110000000  0.4850190000000  0.3924900000000 1.0
C      1  0.5143320000000  0.4996610000000  0.5998520000000 1.0
C      1  0.4817250000000  0.4899360000000  0.6033440000000 1.0
C      1  0.5089820000000  0.4859840000000  0.3902770000000 1.0
C      1  0.4734180000000  0.5194890000000  0.5512640000000 1.0
C      1  0.5159860000000  0.5205230000000  0.4489060000000 1.0
C      1  0.4820520000000  0.5239450000000  0.4514150000000 1.0
C      1  0.5173340000000  0.5224110000000  0.5510300000000 1.0
C      1  0.5466090000000  0.4695810000000  0.4175580000000 1.0
C      1  0.4494060000000  0.4619690000000  0.5827330000000 1.0
C      1  0.5604080000000  0.4701250000000  0.5781780000000 1.0
C      1  0.4450900000000  0.4656490000000  0.4155790000000 1.0
C      1  0.5085740000000  0.4331180000000  0.4385340000000 1.0
C      1  0.4923800000000  0.4344170000000  0.5662150000000 1.0
C      1  0.5249950000000  0.4379980000000  0.5611660000000 1.0
C      1  0.4747140000000  0.4362000000000  0.4392740000000 1.0
C      1  0.4193060000000  0.5313610000000  0.5313120000000 1.0
C      1  0.5898130000000  0.5345130000000  0.4668260000000 1.0
C      1  0.4242760000000  0.5308230000000  0.4706340000000 1.0
C      1  0.5929540000000  0.5355260000000  0.5323890000000 1.0
C      1  0.4502510000000  0.4898370000000  0.5643010000000 1.0
C      1  0.5464480000000  0.4985980000000  0.4280750000000 1.0
C      1  0.4511890000000  0.4933580000000  0.4265890000000 1.0
C      1  0.5503310000000  0.4978840000000  0.5613280000000 1.0
C      1  0.4512340000000  0.4173720000000  0.5447140000000 1.0
C      1  0.5630120000000  0.4197450000000  0.4484180000000 1.0
C      1  0.4503750000000  0.4168720000000  0.4511190000000 1.0
C      1  0.5546650000000  0.4264680000000  0.5604210000000 1.0
C      1  0.5825530000000  0.5073100000000  0.5585760000000 1.0
C      1  0.4258050000000  0.5057290000000  0.4374180000000 1.0
C      1  0.5719350000000  0.5070840000000  0.4440110000000 1.0
C      1  0.4202650000000  0.5029420000000  0.5612960000000 1.0
C      1  0.5255620000000  0.4562010000000  0.4514780000000 1.0
C      1  0.4755360000000  0.4577520000000  0.5513730000000 1.0
C      1  0.5248320000000  0.4626390000000  0.5388820000000 1.0
C      1  0.4623780000000  0.4642580000000  0.4514970000000 1.0
C      1  0.5116480000000  0.4398340000000  0.4061840000000 1.0
C      1  0.4891120000000  0.4419240000000  0.5976030000000 1.0
C      1  0.5182850000000  0.4471720000000  0.5932050000000 1.0
C      1  0.4825480000000  0.4401310000000  0.4091510000000 1.0
C      1  0.4852660000000  0.4814060000000  0.4794340000000 1.0
C      1  0.5240140000000  0.4951940000000  0.5140290000000 1.0
C      1  0.4754380000000  0.4866370000000  0.5115800000000 1.0
C      1  0.5154960000000  0.4969480000000  0.4811550000000 1.0
C      1  0.4783870000000  0.3989190000000  0.4591290000000 1.0
C      1  0.5067160000000  0.3935570000000  0.5392800000000 1.0
C      1  0.4817220000000  0.4132420000000  0.5460830000000 1.0
C      1  0.5074300000000  0.4073870000000  0.4570610000000 1.0
C      1  0.4292110000000  0.5359490000000  0.4371260000000 1.0
C      1  0.5731230000000  0.5377170000000  0.5600440000000 1.0
C      1  0.4234140000000  0.5338960000000  0.5649780000000 1.0
C      1  0.5770420000000  0.5393350000000  0.4356570000000 1.0
C      1  0.4042260000000  0.5069500000000  0.5156350000000 1.0
C      1  0.6030730000000  0.5097850000000  0.4860770000000 1.0
C      1  0.4031650000000  0.5099970000000  0.4873260000000 1.0
C      1  0.6046080000000  0.5091380000000  0.5143750000000 1.0
C      1  0.4700790000000  0.5682590000000  0.4288040000000 1.0
C      1  0.5333120000000  0.5681960000000  0.5703380000000 1.0
C      1  0.4630620000000  0.5654260000000  0.5812700000000 1.0
C      1  0.5351540000000  0.5688870000000  0.4242370000000 1.0
C      1  0.5519170000000  0.4965160000000  0.5273700000000 1.0
C      1  0.4530810000000  0.4923840000000  0.4792540000000 1.0
C      1  0.5491620000000  0.4995990000000  0.4771650000000 1.0
C      1  0.4472480000000  0.4860360000000  0.5305850000000 1.0
C      1  0.5409930000000  0.4364190000000  0.5244760000000 1.0
C      1  0.4570340000000  0.4452440000000  0.4784840000000 1.0
C      1  0.5440110000000  0.4347900000000  0.4928060000000 1.0
C      1  0.4494570000000  0.4422610000000  0.5116740000000 1.0
C      1  0.4188700000000  0.5584550000000  0.4881570000000 1.0
C      1  0.5832790000000  0.5623100000000  0.5146380000000 1.0
C      1  0.4181690000000  0.5587390000000  0.5157120000000 1.0
C      1  0.5835280000000  0.5617590000000  0.4856500000000 1.0
C      1  0.4803350000000  0.4540170000000  0.5198360000000 1.0
C      1  0.5220280000000  0.4525700000000  0.4825050000000 1.0
C      1  0.4906050000000  0.4476000000000  0.4804800000000 1.0
C      1  0.5106540000000  0.4656690000000  0.5097610000000 1.0
C      1  0.5235280000000  0.5981060000000  0.5377950000000 1.0
C      1  0.4762960000000  0.5993190000000  0.4621340000000 1.0
C      1  0.5291170000000  0.6047320000000  0.4595250000000 1.0
C      1  0.4736320000000  0.5957370000000  0.5437880000000 1.0
C      1  0.5322830000000  0.6047820000000  0.5117990000000 1.0
C      1  0.4730450000000  0.6013580000000  0.4929170000000 1.0
C      1  0.5291410000000  0.5931850000000  0.4858150000000 1.0
C      1  0.4688730000000  0.6087050000000  0.5194450000000 1.0
C      1  0.5191600000000  0.4037200000000  0.5090580000000 1.0
C      1  0.4835690000000  0.4167830000000  0.4875130000000 1.0
C      1  0.5252720000000  0.4024940000000  0.4786140000000 1.0
C      1  0.4925500000000  0.4227990000000  0.5167560000000 1.0
C      1  0.4114640000000  0.4600540000000  0.4586150000000 1.0
C      1  0.5908140000000  0.4615480000000  0.5393820000000 1.0
C      1  0.4198510000000  0.4585930000000  0.5400680000000 1.0
C      1  0.5791880000000  0.4581550000000  0.4615470000000 1.0
C      1  0.5652030000000  0.5225680000000  0.4870180000000 1.0
C      1  0.4429970000000  0.5163570000000  0.5181520000000 1.0
C      1  0.5666450000000  0.5211550000000  0.5162950000000 1.0
C      1  0.4506820000000  0.5206760000000  0.4877850000000 1.0
C      1  0.5558120000000  0.5484700000000  0.5257160000000 1.0
C      1  0.4431670000000  0.5657970000000  0.4735320000000 1.0
C      1  0.5545570000000  0.5509510000000  0.4752920000000 1.0
C      1  0.4435160000000  0.5630230000000  0.5303610000000 1.0
C      1  0.5247490000000  0.4641120000000  0.4009070000000 1.0
C      1  0.4709200000000  0.4622690000000  0.6012590000000 1.0
C      1  0.5297460000000  0.4748270000000  0.5867020000000 1.0
C      1  0.4670540000000  0.4607930000000  0.3985780000000 1.0
C      1  0.4960570000000  0.5288470000000  0.4029260000000 1.0
C      1  0.5070350000000  0.5312440000000  0.5886240000000 1.0
C      1  0.4837660000000  0.5230660000000  0.6092560000000 1.0
C      1  0.5173070000000  0.5133200000000  0.3927210000000 1.0
C      1  0.5056060000000  0.5424830000000  0.4251090000000 1.0
C      1  0.4933360000000  0.5418770000000  0.5625030000000 1.0
END
