TITL C-3289325-7307-640 0.00012601172736859 125000 -257.324346965818 0 0 49 (C1) n - 1
REM
REM in /nfs/bkarasulu/CARBON/AIRSS/Generating-Clusters/AIREBO/with-SteepDescent/Higher-Symm/SD-CG/HFTN-CG
REM
REM
REM
REM
REM
REM ./C.cell (b20cbc046b6831c77cfcea5457e17084)
REM
REM compiler GCC version 9.2.1 20190827 (Red Hat 9.2.1-1)
REM options -cpp -mtune=generic -march=x86-64 -g -O0 -fpre-include=/usr/include/finclude/math-vector-fortran.h
REM seed 1616355847 -1070725850 280350441 -1201141116 -1657968657 1189359541 889521023 240432116 1130644268 1136937023 -170819714 476382480 -1504244776 -1124318740 -1737590507 783135098 -1915074654 -1743422905 1335675832 63823037 687055690 -1821709353 2019174754 -782962331 -1744760255 -1425669949 -234339375 1398864775 1925819568 -1535248904 272513998 2101146002 251449732
REM
CELL 1.54180   50.00000   50.00000   50.00000   90.00000   90.00000   90.00000
LATT -1
SFAC C  
C      1  0.5768120000000  0.5201030000000  0.4819890000000 1.0
C      1  0.4864610000000  0.5682290000000  0.5287610000000 1.0
C      1  0.5260070000000  0.4840130000000  0.5708950000000 1.0
C      1  0.4373850000000  0.4647610000000  0.4889430000000 1.0
C      1  0.4196290000000  0.5256600000000  0.5019140000000 1.0
C      1  0.5624130000000  0.4650360000000  0.5153780000000 1.0
C      1  0.5106810000000  0.4323480000000  0.5368660000000 1.0
C      1  0.5167370000000  0.5685530000000  0.4796070000000 1.0
C      1  0.4884060000000  0.4299780000000  0.4769670000000 1.0
C      1  0.4727220000000  0.5182880000000  0.5645920000000 1.0
C      1  0.4731020000000  0.4943970000000  0.4298730000000 1.0
C      1  0.5177770000000  0.5289580000000  0.4388640000000 1.0
C      1  0.5875350000000  0.5271980000000  0.5095620000000 1.0
C      1  0.4895440000000  0.5740480000000  0.4814470000000 1.0
C      1  0.5234040000000  0.5026960000000  0.4322650000000 1.0
C      1  0.4369180000000  0.4718710000000  0.5155670000000 1.0
C      1  0.4259630000000  0.5149540000000  0.4772730000000 1.0
C      1  0.5633550000000  0.4662330000000  0.4873930000000 1.0
C      1  0.5159540000000  0.4324460000000  0.4781310000000 1.0
C      1  0.5141450000000  0.5659250000000  0.5276030000000 1.0
C      1  0.4834920000000  0.4269640000000  0.5390030000000 1.0
C      1  0.4636340000000  0.5190970000000  0.4379820000000 1.0
C      1  0.4752530000000  0.4906950000000  0.5630340000000 1.0
C      1  0.5287280000000  0.5115500000000  0.5663390000000 1.0
C      1  0.4730020000000  0.5531370000000  0.4871950000000 1.0
C      1  0.4850970000000  0.4819730000000  0.5319810000000 1.0
C      1  0.5354440000000  0.4803390000000  0.4740150000000 1.0
C      1  0.5259920000000  0.4539640000000  0.4917590000000 1.0
C      1  0.5239790000000  0.5416160000000  0.5193560000000 1.0
C      1  0.4808070000000  0.4519650000000  0.5190230000000 1.0
C      1  0.5135900000000  0.5198570000000  0.5378590000000 1.0
C      1  0.5146290000000  0.4830950000000  0.4510230000000 1.0
C      1  0.4751060000000  0.5306420000000  0.4662290000000 1.0
C      1  0.4550110000000  0.5065740000000  0.4749430000000 1.0
C      1  0.4536070000000  0.4919090000000  0.5238730000000 1.0
C      1  0.5592050000000  0.5105950000000  0.5134180000000 1.0
C      1  0.4683340000000  0.5419120000000  0.5173550000000 1.0
C      1  0.4867910000000  0.4788450000000  0.4499890000000 1.0
C      1  0.5509270000000  0.4872720000000  0.5273020000000 1.0
C      1  0.5172130000000  0.4571770000000  0.5196300000000 1.0
C      1  0.5261520000000  0.5370330000000  0.4882080000000 1.0
C      1  0.4739280000000  0.4491860000000  0.4902160000000 1.0
C      1  0.5060110000000  0.5341390000000  0.4628780000000 1.0
C      1  0.5184380000000  0.4861960000000  0.5373080000000 1.0
C      1  0.4849190000000  0.5314490000000  0.5440300000000 1.0
C      1  0.4500980000000  0.5178250000000  0.5095990000000 1.0
C      1  0.4644920000000  0.4745560000000  0.4717180000000 1.0
C      1  0.5443070000000  0.5117080000000  0.4837100000000 1.0
C      1  0.4955320000000  0.4966310000000  0.5062670000000 1.0
END
