TITL C-3289323-3850-480 0.0100440468774933 125000 -220.514314784463 0 0 36 (C1) n - 1
REM
REM in /nfs/bkarasulu/CARBON/AIRSS/Generating-Clusters/AIREBO/with-SteepDescent/Higher-Symm/SD-CG/HFTN-CG
REM
REM
REM
REM
REM
REM ./C.cell (b20cbc046b6831c77cfcea5457e17084)
REM
REM compiler GCC version 9.2.1 20190827 (Red Hat 9.2.1-1)
REM options -cpp -mtune=generic -march=x86-64 -g -O0 -fpre-include=/usr/include/finclude/math-vector-fortran.h
REM seed -98804171 747686264 962424961 559126740 -1997140239 667636042 1038324770 1387286328 1568183050 -2005483099 -1389253371 -147561238 -1919294732 -1610023544 558877920 -1435347437 -933526016 1858249300 -710388418 1229041223 -243711523 1833417114 -1809542991 1761473118 48519723 1627137993 -140583298 -2121075426 -1971160755 1485372512 -1832416181 183739763 945763749
REM
CELL 1.54180   50.00000   50.00000   50.00000   90.00000   90.00000   90.00000
LATT -1
SFAC C  
C      1  0.4612370000000  0.5088590000000  0.4753020000000 1.0
C      1  0.4525960000000  0.4920890000000  0.4971280000000 1.0
C      1  0.4596770000000  0.4914890000000  0.5250380000000 1.0
C      1  0.4767470000000  0.5076400000000  0.5410370000000 1.0
C      1  0.4980630000000  0.4901770000000  0.5547900000000 1.0
C      1  0.5269840000000  0.4917710000000  0.5429430000000 1.0
C      1  0.5392470000000  0.5085040000000  0.5232280000000 1.0
C      1  0.5481860000000  0.4914020000000  0.5017160000000 1.0
C      1  0.5413680000000  0.4910330000000  0.4736570000000 1.0
C      1  0.5234750000000  0.5079910000000  0.4585790000000 1.0
C      1  0.5022420000000  0.4908530000000  0.4489220000000 1.0
C      1  0.4741280000000  0.4913550000000  0.4561670000000 1.0
C      1  0.5366310000000  0.4630830000000  0.5375780000000 1.0
C      1  0.5483720000000  0.4631540000000  0.5114820000000 1.0
C      1  0.5461040000000  0.4465520000000  0.4879230000000 1.0
C      1  0.5360220000000  0.4626020000000  0.4660190000000 1.0
C      1  0.5115940000000  0.4624420000000  0.4508720000000 1.0
C      1  0.4876330000000  0.4464030000000  0.4532980000000 1.0
C      1  0.4658180000000  0.4631700000000  0.4623340000000 1.0
C      1  0.4518290000000  0.4638120000000  0.4874260000000 1.0
C      1  0.4515370000000  0.4475330000000  0.5113640000000 1.0
C      1  0.4611810000000  0.4633550000000  0.5335140000000 1.0
C      1  0.4817500000000  0.4610950000000  0.5523400000000 1.0
C      1  0.5121930000000  0.4565790000000  0.5540470000000 1.0
C      1  0.4605780000000  0.5367140000000  0.4754120000000 1.0
C      1  0.4515990000000  0.5492430000000  0.4987460000000 1.0
C      1  0.4575830000000  0.5482710000000  0.5252160000000 1.0
C      1  0.4763400000000  0.5352810000000  0.5414160000000 1.0
C      1  0.4991350000000  0.5486770000000  0.5505450000000 1.0
C      1  0.5251380000000  0.5496600000000  0.5427100000000 1.0
C      1  0.5401910000000  0.5363540000000  0.5232600000000 1.0
C      1  0.5495430000000  0.5490180000000  0.5001650000000 1.0
C      1  0.5435000000000  0.5486210000000  0.4736930000000 1.0
C      1  0.5243990000000  0.5358410000000  0.4577480000000 1.0
C      1  0.5017350000000  0.5493110000000  0.4483850000000 1.0
C      1  0.4756450000000  0.5500690000000  0.4560000000000 1.0
END
