TITL C-3289325-7307-353 -0.00130187701801187 125000 -104.848512753917 0 0 18 (C2) n - 1
REM
REM in /nfs/bkarasulu/CARBON/AIRSS/Generating-Clusters/AIREBO/with-SteepDescent/Higher-Symm/SD-CG/HFTN-CG
REM
REM
REM
REM
REM
REM ./C.cell (b20cbc046b6831c77cfcea5457e17084)
REM
REM compiler GCC version 9.2.1 20190827 (Red Hat 9.2.1-1)
REM options -cpp -mtune=generic -march=x86-64 -g -O0 -fpre-include=/usr/include/finclude/math-vector-fortran.h
REM seed 652454831 71747792 1959106484 309488230 -899445014 1219766626 795981817 -172362021 1776656296 316696630 -1261353089 -115761894 653012139 -804213874 33275289 -368397500 -1827113845 -1963617731 639192897 -1867182497 1299463162 1262317836 220428426 1601861221 883492642 440337975 -639459581 1810679634 -928653171 -364191620 508987227 1557104394 403589171
REM
CELL 1.54180   50.00000   50.00000   50.00000   90.00000   90.00000   90.00000
LATT -1
SFAC C  
C      1  0.4621220000000  0.5067320000000  0.5258970000000 1.0
C      1  0.4653820000000  0.4812970000000  0.5137620000000 1.0
C      1  0.4887370000000  0.4609350000000  0.5172980000000 1.0
C      1  0.5151290000000  0.4629570000000  0.5272170000000 1.0
C      1  0.5332170000000  0.4809250000000  0.5144570000000 1.0
C      1  0.5385690000000  0.5066410000000  0.5256060000000 1.0
C      1  0.5247520000000  0.5289740000000  0.5145200000000 1.0
C      1  0.5003330000000  0.5383060000000  0.5259010000000 1.0
C      1  0.4759740000000  0.5288600000000  0.5144230000000 1.0
C      1  0.5378620000000  0.5066510000000  0.4742980000000 1.0
C      1  0.5246560000000  0.5291830000000  0.4857370000000 1.0
C      1  0.5004320000000  0.5392660000000  0.4745970000000 1.0
C      1  0.4758710000000  0.5297720000000  0.4855900000000 1.0
C      1  0.4611180000000  0.5090840000000  0.4726590000000 1.0
C      1  0.4633440000000  0.4826620000000  0.4824530000000 1.0
C      1  0.4871980000000  0.4628860000000  0.4859920000000 1.0
C      1  0.5128780000000  0.4638410000000  0.4739730000000 1.0
C      1  0.5324260000000  0.4810280000000  0.4856210000000 1.0
END
