TITL C-3289320-4661-523 0.041013963071909 125000 -256.466546559474 0 0 43 (C1) n - 1
REM
REM in /nfs/bkarasulu/CARBON/AIRSS/Generating-Clusters/AIREBO/with-SteepDescent/Higher-Symm/SD-CG/HFTN-CG
REM
REM
REM
REM
REM
REM ./C.cell (b20cbc046b6831c77cfcea5457e17084)
REM
REM compiler GCC version 9.2.1 20190827 (Red Hat 9.2.1-1)
REM options -cpp -mtune=generic -march=x86-64 -g -O0 -fpre-include=/usr/include/finclude/math-vector-fortran.h
REM seed -357213975 -1092834489 1218066157 600702016 -141428035 -1360766069 1585138293 -739545802 1124170409 919891892 559372848 -1857139964 -890658521 686910126 -877850948 1639141241 -1653028926 438811787 -1169948636 -2061332950 1025699718 1590045680 877491905 2107444160 873102507 1090163888 -314233130 -194125297 1705214718 1852675920 -2004946754 -821456951 2147112940
REM
CELL 1.54180   50.00000   50.00000   50.00000   90.00000   90.00000   90.00000
LATT -1
SFAC C  
C      1  0.4952610000000  0.5514800000000  0.5374540000000 1.0
C      1  0.4213020000000  0.5309490000000  0.4777640000000 1.0
C      1  0.5750450000000  0.5808530000000  0.4259720000000 1.0
C      1  0.5060310000000  0.4191580000000  0.5462140000000 1.0
C      1  0.5281450000000  0.4338450000000  0.4794320000000 1.0
C      1  0.4558870000000  0.4256980000000  0.4913990000000 1.0
C      1  0.5042660000000  0.4339380000000  0.4656960000000 1.0
C      1  0.5300250000000  0.4252630000000  0.5341100000000 1.0
C      1  0.4573840000000  0.4194410000000  0.5181960000000 1.0
C      1  0.5298470000000  0.5682060000000  0.3953870000000 1.0
C      1  0.4715480000000  0.5516370000000  0.5238550000000 1.0
C      1  0.5601910000000  0.5307450000000  0.5575400000000 1.0
C      1  0.4558710000000  0.5316720000000  0.5113830000000 1.0
C      1  0.5295630000000  0.5662960000000  0.4223120000000 1.0
C      1  0.5411970000000  0.5353200000000  0.5389580000000 1.0
C      1  0.5378940000000  0.4504800000000  0.5239320000000 1.0
C      1  0.4852280000000  0.4548910000000  0.4662350000000 1.0
C      1  0.4618050000000  0.4383470000000  0.5388250000000 1.0
C      1  0.5373620000000  0.4546380000000  0.4962990000000 1.0
C      1  0.4861330000000  0.4382020000000  0.5528410000000 1.0
C      1  0.4610130000000  0.4509220000000  0.4796140000000 1.0
C      1  0.4467910000000  0.5360410000000  0.4849320000000 1.0
C      1  0.5137220000000  0.5312800000000  0.5446010000000 1.0
C      1  0.5530550000000  0.5699900000000  0.4372470000000 1.0
C      1  0.5473320000000  0.5433560000000  0.5130830000000 1.0
C      1  0.4563250000000  0.5070240000000  0.5247620000000 1.0
C      1  0.5062090000000  0.5605580000000  0.4361900000000 1.0
C      1  0.4458510000000  0.4616400000000  0.5368370000000 1.0
C      1  0.5361590000000  0.4719360000000  0.5422810000000 1.0
C      1  0.4957330000000  0.4804970000000  0.4610410000000 1.0
C      1  0.4462270000000  0.4724830000000  0.4904160000000 1.0
C      1  0.5367820000000  0.4803200000000  0.4847550000000 1.0
C      1  0.4960580000000  0.4613350000000  0.5657830000000 1.0
C      1  0.5525520000000  0.5628340000000  0.4640720000000 1.0
C      1  0.4656270000000  0.5457200000000  0.4669520000000 1.0
C      1  0.5016800000000  0.5067350000000  0.5508620000000 1.0
C      1  0.5130670000000  0.4815740000000  0.5553830000000 1.0
C      1  0.4738870000000  0.5065930000000  0.5467010000000 1.0
C      1  0.4844790000000  0.5524880000000  0.4493630000000 1.0
C      1  0.5159160000000  0.4957150000000  0.4736020000000 1.0
C      1  0.4465200000000  0.4819810000000  0.5170150000000 1.0
C      1  0.5528300000000  0.5535530000000  0.4890700000000 1.0
C      1  0.5155040000000  0.5226070000000  0.4745020000000 1.0
END
