TITL C-3289326-3776-67 0.000965597150753909 125000 -842.447048250052 0 0 161 (C1) n - 1
REM
REM in /nfs/bkarasulu/CARBON/AIRSS/Generating-Clusters/AIREBO/with-SteepDescent/Higher-Symm/SD-CG/HFTN-CG
REM
REM
REM
REM
REM
REM ./C.cell (b20cbc046b6831c77cfcea5457e17084)
REM
REM compiler GCC version 9.2.1 20190827 (Red Hat 9.2.1-1)
REM options -cpp -mtune=generic -march=x86-64 -g -O0 -fpre-include=/usr/include/finclude/math-vector-fortran.h
REM seed -687625461 -2127921426 105778948 -1885616778 -1287425699 1536897952 -1413897854 1349329513 1466817802 -1319948687 1370075715 287425554 -78707879 -539869074 -52401198 737352852 -1548734251 1465072064 1728582245 1737817222 -2132387701 100219240 -415715177 372552673 -585021582 1120076951 1391760609 870610734 -2022308498 1026812260 572924881 -716792718 -1858203258
REM
CELL 1.54180   50.00000   50.00000   50.00000   90.00000   90.00000   90.00000
LATT -1
SFAC C  
C      1  0.5387120000000  0.5122380000000  0.4092810000000 1.0
C      1  0.4591390000000  0.5765010000000  0.4399320000000 1.0
C      1  0.4359030000000  0.4646500000000  0.5009430000000 1.0
C      1  0.4513160000000  0.5145860000000  0.4420630000000 1.0
C      1  0.5490210000000  0.4426170000000  0.4573850000000 1.0
C      1  0.5115530000000  0.5057160000000  0.4371780000000 1.0
C      1  0.4296560000000  0.5421060000000  0.4918430000000 1.0
C      1  0.4953050000000  0.4568600000000  0.4187430000000 1.0
C      1  0.5222400000000  0.4733000000000  0.5819820000000 1.0
C      1  0.5271830000000  0.4895220000000  0.5411500000000 1.0
C      1  0.5637820000000  0.5360520000000  0.5206090000000 1.0
C      1  0.4766590000000  0.5222940000000  0.4827740000000 1.0
C      1  0.4943680000000  0.4851740000000  0.5822820000000 1.0
C      1  0.4871910000000  0.5364620000000  0.4099990000000 1.0
C      1  0.4973210000000  0.5077550000000  0.5215040000000 1.0
C      1  0.5708770000000  0.5457060000000  0.5524500000000 1.0
C      1  0.4252370000000  0.4945500000000  0.4886060000000 1.0
C      1  0.5891600000000  0.5118350000000  0.4844420000000 1.0
C      1  0.5042820000000  0.4947410000000  0.4685360000000 1.0
C      1  0.4991450000000  0.4239370000000  0.4263330000000 1.0
C      1  0.5267520000000  0.4553320000000  0.4344070000000 1.0
C      1  0.5390660000000  0.5510440000000  0.4714990000000 1.0
C      1  0.5889550000000  0.4490560000000  0.5411550000000 1.0
C      1  0.4207620000000  0.5402610000000  0.4410690000000 1.0
C      1  0.4779330000000  0.5175150000000  0.5450530000000 1.0
C      1  0.4754500000000  0.4502860000000  0.5867410000000 1.0
C      1  0.5223960000000  0.6028600000000  0.5361940000000 1.0
C      1  0.4949980000000  0.4780790000000  0.3685760000000 1.0
C      1  0.5497130000000  0.4987400000000  0.4465440000000 1.0
C      1  0.5588410000000  0.5823390000000  0.4440520000000 1.0
C      1  0.3955780000000  0.4987640000000  0.5299970000000 1.0
C      1  0.5698690000000  0.5026670000000  0.5183070000000 1.0
C      1  0.4588420000000  0.4351170000000  0.4514750000000 1.0
C      1  0.5793480000000  0.4568310000000  0.4514400000000 1.0
C      1  0.4831740000000  0.6193770000000  0.5141050000000 1.0
C      1  0.4026340000000  0.4973360000000  0.5584520000000 1.0
C      1  0.5199720000000  0.5282410000000  0.5472240000000 1.0
C      1  0.4322520000000  0.5387200000000  0.5850690000000 1.0
C      1  0.4390190000000  0.5971190000000  0.5184430000000 1.0
C      1  0.4754250000000  0.5900630000000  0.5531130000000 1.0
C      1  0.5483890000000  0.4076560000000  0.4966200000000 1.0
C      1  0.5420510000000  0.5211390000000  0.5859920000000 1.0
C      1  0.6062320000000  0.4794780000000  0.5156590000000 1.0
C      1  0.5244930000000  0.5766870000000  0.4884400000000 1.0
C      1  0.4993300000000  0.5576990000000  0.4224630000000 1.0
C      1  0.5166040000000  0.5430810000000  0.5911950000000 1.0
C      1  0.4784970000000  0.5613200000000  0.4604560000000 1.0
C      1  0.5631670000000  0.4905450000000  0.4896570000000 1.0
C      1  0.4381260000000  0.4144130000000  0.4933450000000 1.0
C      1  0.5648560000000  0.4239360000000  0.5328610000000 1.0
C      1  0.4600060000000  0.5338300000000  0.4154120000000 1.0
C      1  0.4692390000000  0.5051960000000  0.6058890000000 1.0
C      1  0.4216630000000  0.4748810000000  0.4539810000000 1.0
C      1  0.4187440000000  0.4872940000000  0.5879160000000 1.0
C      1  0.5222520000000  0.4244990000000  0.5150410000000 1.0
C      1  0.4845830000000  0.5317440000000  0.5985560000000 1.0
C      1  0.5045780000000  0.5100830000000  0.4067630000000 1.0
C      1  0.4608650000000  0.4755790000000  0.4109200000000 1.0
C      1  0.4671830000000  0.5944350000000  0.5236440000000 1.0
C      1  0.4530810000000  0.4758710000000  0.4669570000000 1.0
C      1  0.3995210000000  0.4965340000000  0.4584570000000 1.0
C      1  0.4482080000000  0.4286860000000  0.5307220000000 1.0
C      1  0.5457120000000  0.4879650000000  0.5856110000000 1.0
C      1  0.5119040000000  0.5621050000000  0.4536990000000 1.0
C      1  0.5668740000000  0.4761450000000  0.5699610000000 1.0
C      1  0.4160580000000  0.4433990000000  0.4587370000000 1.0
C      1  0.5850840000000  0.5360140000000  0.4397940000000 1.0
C      1  0.5235810000000  0.5743150000000  0.5208870000000 1.0
C      1  0.4970580000000  0.4613150000000  0.4714010000000 1.0
C      1  0.4916420000000  0.4837730000000  0.3982680000000 1.0
C      1  0.4299010000000  0.5742120000000  0.4895270000000 1.0
C      1  0.5831750000000  0.5145710000000  0.5537490000000 1.0
C      1  0.4857530000000  0.4009400000000  0.4448830000000 1.0
C      1  0.5307930000000  0.4775510000000  0.4579970000000 1.0
C      1  0.4443280000000  0.5005340000000  0.5153880000000 1.0
C      1  0.4929460000000  0.5475020000000  0.5691790000000 1.0
C      1  0.4966770000000  0.4340300000000  0.5818070000000 1.0
C      1  0.5016750000000  0.5965270000000  0.5607410000000 1.0
C      1  0.5044790000000  0.5027380000000  0.5603210000000 1.0
C      1  0.4776910000000  0.5625560000000  0.5172960000000 1.0
C      1  0.4829260000000  0.4468690000000  0.5233600000000 1.0
C      1  0.5508210000000  0.5669320000000  0.5271180000000 1.0
C      1  0.5385670000000  0.5052500000000  0.5169810000000 1.0
C      1  0.4171610000000  0.4272890000000  0.5248140000000 1.0
C      1  0.5035390000000  0.5917720000000  0.4662850000000 1.0
C      1  0.4644720000000  0.4951850000000  0.4897910000000 1.0
C      1  0.5652750000000  0.4998720000000  0.4099320000000 1.0
C      1  0.5845660000000  0.4827920000000  0.5416780000000 1.0
C      1  0.5628120000000  0.5330340000000  0.4879120000000 1.0
C      1  0.5351250000000  0.5276470000000  0.4393810000000 1.0
C      1  0.5409810000000  0.4001250000000  0.5283690000000 1.0
C      1  0.4771430000000  0.4740870000000  0.6083880000000 1.0
C      1  0.4060330000000  0.4526920000000  0.5077440000000 1.0
C      1  0.5005020000000  0.4235350000000  0.4908190000000 1.0
C      1  0.5221720000000  0.4456080000000  0.5663230000000 1.0
C      1  0.6011720000000  0.4372930000000  0.4438280000000 1.0
C      1  0.4651280000000  0.4770800000000  0.5669140000000 1.0
C      1  0.5157020000000  0.5260740000000  0.4753250000000 1.0
C      1  0.5960520000000  0.4180000000000  0.5412550000000 1.0
C      1  0.4533700000000  0.4622920000000  0.5300550000000 1.0
C      1  0.4578470000000  0.5492120000000  0.5880740000000 1.0
C      1  0.4661730000000  0.5641170000000  0.5621840000000 1.0
C      1  0.4693630000000  0.4220520000000  0.5044760000000 1.0
C      1  0.4420020000000  0.4855580000000  0.4289150000000 1.0
C      1  0.4425630000000  0.5544970000000  0.4288550000000 1.0
C      1  0.4297880000000  0.5210080000000  0.4676080000000 1.0
C      1  0.6092140000000  0.5182860000000  0.5067300000000 1.0
C      1  0.5439400000000  0.5521700000000  0.5722050000000 1.0
C      1  0.5102300000000  0.6179840000000  0.5127870000000 1.0
C      1  0.5521480000000  0.4536460000000  0.5558810000000 1.0
C      1  0.4972800000000  0.4296900000000  0.4589170000000 1.0
C      1  0.5708190000000  0.4574300000000  0.4906750000000 1.0
C      1  0.4743350000000  0.3783930000000  0.4465730000000 1.0
C      1  0.5083940000000  0.3906710000000  0.5308920000000 1.0
C      1  0.5206960000000  0.6098010000000  0.4880150000000 1.0
C      1  0.5670820000000  0.5704600000000  0.4748290000000 1.0
C      1  0.6069300000000  0.5161730000000  0.5314890000000 1.0
C      1  0.4762140000000  0.4633910000000  0.4457850000000 1.0
C      1  0.4765250000000  0.5995800000000  0.4498900000000 1.0
C      1  0.4793750000000  0.4968790000000  0.4437020000000 1.0
C      1  0.5038040000000  0.5568010000000  0.5383150000000 1.0
C      1  0.4095340000000  0.5234720000000  0.5111360000000 1.0
C      1  0.5379980000000  0.4601790000000  0.4843450000000 1.0
C      1  0.5002380000000  0.4614600000000  0.5033690000000 1.0
C      1  0.4954310000000  0.5403770000000  0.4986010000000 1.0
C      1  0.3932340000000  0.5008060000000  0.4904320000000 1.0
C      1  0.5892740000000  0.4884250000000  0.4597480000000 1.0
C      1  0.5491900000000  0.5125020000000  0.5546270000000 1.0
C      1  0.5192690000000  0.5285830000000  0.5147600000000 1.0
C      1  0.4595350000000  0.5596810000000  0.4886880000000 1.0
C      1  0.5268450000000  0.4335470000000  0.4110840000000 1.0
C      1  0.4560890000000  0.4145640000000  0.5564980000000 1.0
C      1  0.4177970000000  0.4327330000000  0.4851190000000 1.0
C      1  0.4590380000000  0.4467890000000  0.4835340000000 1.0
C      1  0.5865660000000  0.5091390000000  0.4334220000000 1.0
C      1  0.5432870000000  0.5114400000000  0.4749970000000 1.0
C      1  0.4340910000000  0.4292800000000  0.4420380000000 1.0
C      1  0.4451110000000  0.4896480000000  0.5909480000000 1.0
C      1  0.4697040000000  0.5329820000000  0.4607520000000 1.0
C      1  0.5560110000000  0.5489820000000  0.4420790000000 1.0
C      1  0.5919800000000  0.5596190000000  0.4555320000000 1.0
C      1  0.4273180000000  0.5173250000000  0.5630470000000 1.0
C      1  0.5599560000000  0.4560730000000  0.5228670000000 1.0
C      1  0.5831110000000  0.5690740000000  0.5309390000000 1.0
C      1  0.4403970000000  0.4900440000000  0.5474920000000 1.0
C      1  0.5653660000000  0.4759090000000  0.4304570000000 1.0
C      1  0.5298200000000  0.4657790000000  0.5169330000000 1.0
C      1  0.5990110000000  0.4733830000000  0.4888610000000 1.0
C      1  0.4867030000000  0.3971210000000  0.5198030000000 1.0
C      1  0.3875940000000  0.4844670000000  0.5856650000000 1.0
C      1  0.3873630000000  0.4754460000000  0.5107640000000 1.0
C      1  0.4676250000000  0.4466560000000  0.4018130000000 1.0
C      1  0.5304250000000  0.5797490000000  0.5598980000000 1.0
C      1  0.4614300000000  0.5418680000000  0.5386720000000 1.0
C      1  0.4784180000000  0.4843800000000  0.5364720000000 1.0
C      1  0.5129820000000  0.4440170000000  0.5369690000000 1.0
C      1  0.5314540000000  0.4216960000000  0.4766150000000 1.0
C      1  0.3990880000000  0.5187480000000  0.4422310000000 1.0
C      1  0.4353930000000  0.5268870000000  0.5329570000000 1.0
C      1  0.4929160000000  0.4898090000000  0.4990290000000 1.0
C      1  0.5791380000000  0.5790120000000  0.5025920000000 1.0
END
