TITL C-3289327-5623-145 0.00182854385728145 125000 -434.771154724355 0 0 78 (C1) n - 1
REM
REM in /nfs/bkarasulu/CARBON/AIRSS/Generating-Clusters/AIREBO/with-SteepDescent/Higher-Symm/SD-CG/HFTN-CG
REM
REM
REM
REM
REM
REM ./C.cell (b20cbc046b6831c77cfcea5457e17084)
REM
REM compiler GCC version 9.2.1 20190827 (Red Hat 9.2.1-1)
REM options -cpp -mtune=generic -march=x86-64 -g -O0 -fpre-include=/usr/include/finclude/math-vector-fortran.h
REM seed -845576740 974539947 -2097287016 167998647 530256225 1726089601 -1942758135 -858349984 66684895 1929796244 38235687 -151431256 367440427 -253929532 -666387187 191884112 -1556188660 -1562341089 -1245768681 1468495961 -1721747948 2037209899 -1485306781 -196181052 279256755 1555655229 115622160 1643771313 356884548 -226990981 -445330275 794390589 1687536791
REM
CELL 1.54180   50.00000   50.00000   50.00000   90.00000   90.00000   90.00000
LATT -1
SFAC C  
C      1  0.5386550000000  0.5498680000000  0.5139700000000 1.0
C      1  0.4618890000000  0.4447650000000  0.5148130000000 1.0
C      1  0.5288750000000  0.4453000000000  0.4870640000000 1.0
C      1  0.4786690000000  0.5521850000000  0.4774590000000 1.0
C      1  0.5291390000000  0.4764450000000  0.4920360000000 1.0
C      1  0.4683720000000  0.5258830000000  0.4952840000000 1.0
C      1  0.5305500000000  0.5209090000000  0.5147290000000 1.0
C      1  0.4681700000000  0.4746640000000  0.5078630000000 1.0
C      1  0.4886150000000  0.4304740000000  0.5193220000000 1.0
C      1  0.5118840000000  0.5703180000000  0.5134740000000 1.0
C      1  0.5025970000000  0.5622380000000  0.4551470000000 1.0
C      1  0.5030140000000  0.4364820000000  0.4662930000000 1.0
C      1  0.5328010000000  0.5541260000000  0.4494310000000 1.0
C      1  0.4748580000000  0.4538590000000  0.4582510000000 1.0
C      1  0.5248230000000  0.4495030000000  0.5488600000000 1.0
C      1  0.4871540000000  0.5607650000000  0.5316000000000 1.0
C      1  0.4284520000000  0.4861710000000  0.5202440000000 1.0
C      1  0.5765950000000  0.5083370000000  0.5270040000000 1.0
C      1  0.4208920000000  0.5130420000000  0.4762490000000 1.0
C      1  0.5771660000000  0.4896850000000  0.4765700000000 1.0
C      1  0.4734040000000  0.4539720000000  0.5585630000000 1.0
C      1  0.5311740000000  0.5352110000000  0.5528620000000 1.0
C      1  0.4555730000000  0.5381500000000  0.4394030000000 1.0
C      1  0.5327570000000  0.4758390000000  0.4476650000000 1.0
C      1  0.5617980000000  0.4804560000000  0.5160860000000 1.0
C      1  0.4424330000000  0.5161030000000  0.5151160000000 1.0
C      1  0.5663350000000  0.5139060000000  0.4950710000000 1.0
C      1  0.4353040000000  0.4877470000000  0.4880080000000 1.0
C      1  0.5069150000000  0.4804720000000  0.5153260000000 1.0
C      1  0.4912450000000  0.5201380000000  0.5183440000000 1.0
C      1  0.5103550000000  0.5172190000000  0.4902960000000 1.0
C      1  0.4902390000000  0.4783400000000  0.4857130000000 1.0
C      1  0.4934270000000  0.5128970000000  0.4654430000000 1.0
C      1  0.5017640000000  0.4742110000000  0.4539890000000 1.0
C      1  0.4899800000000  0.4780190000000  0.5411530000000 1.0
C      1  0.4995910000000  0.5356910000000  0.5458530000000 1.0
C      1  0.4821720000000  0.5259740000000  0.5694880000000 1.0
C      1  0.4986250000000  0.4838500000000  0.5714960000000 1.0
C      1  0.4854260000000  0.4715670000000  0.4253690000000 1.0
C      1  0.5003560000000  0.5248480000000  0.4412340000000 1.0
C      1  0.5357420000000  0.4942060000000  0.5270030000000 1.0
C      1  0.4667810000000  0.4994580000000  0.5297470000000 1.0
C      1  0.5395830000000  0.5028210000000  0.4804110000000 1.0
C      1  0.4645350000000  0.4982730000000  0.4758100000000 1.0
C      1  0.4820160000000  0.5460080000000  0.4327780000000 1.0
C      1  0.5257290000000  0.4430310000000  0.4455590000000 1.0
C      1  0.4989440000000  0.4392710000000  0.5443000000000 1.0
C      1  0.5232450000000  0.5676600000000  0.5454370000000 1.0
C      1  0.4503940000000  0.5485880000000  0.4654020000000 1.0
C      1  0.5554420000000  0.4530550000000  0.4561250000000 1.0
C      1  0.4454380000000  0.4417680000000  0.5439710000000 1.0
C      1  0.5553520000000  0.5568220000000  0.5426330000000 1.0
C      1  0.5740920000000  0.4997480000000  0.4505690000000 1.0
C      1  0.4193910000000  0.5094840000000  0.4478360000000 1.0
C      1  0.5702080000000  0.5069020000000  0.5578540000000 1.0
C      1  0.4284900000000  0.4794350000000  0.5520720000000 1.0
C      1  0.4239450000000  0.4526070000000  0.5233180000000 1.0
C      1  0.5760730000000  0.5405750000000  0.5226150000000 1.0
C      1  0.4318660000000  0.5389490000000  0.4841530000000 1.0
C      1  0.5685400000000  0.4627880000000  0.4792770000000 1.0
C      1  0.5634780000000  0.5476440000000  0.4918080000000 1.0
C      1  0.4378850000000  0.4542530000000  0.4925850000000 1.0
C      1  0.5557600000000  0.4509410000000  0.5071070000000 1.0
C      1  0.4400300000000  0.5478610000000  0.5128140000000 1.0
C      1  0.4530710000000  0.4794890000000  0.5637190000000 1.0
C      1  0.5427080000000  0.5088690000000  0.5634670000000 1.0
C      1  0.4454690000000  0.5111720000000  0.4360690000000 1.0
C      1  0.5428620000000  0.5052500000000  0.4466850000000 1.0
C      1  0.5547630000000  0.5583500000000  0.4644270000000 1.0
C      1  0.4491690000000  0.4432050000000  0.4655960000000 1.0
C      1  0.5463070000000  0.4389350000000  0.5351140000000 1.0
C      1  0.4602400000000  0.5618620000000  0.5270010000000 1.0
C      1  0.4661000000000  0.5055900000000  0.5631870000000 1.0
C      1  0.5271320000000  0.4808360000000  0.5555360000000 1.0
C      1  0.4640990000000  0.4859780000000  0.4441130000000 1.0
C      1  0.5279230000000  0.5286350000000  0.4375230000000 1.0
C      1  0.5042690000000  0.4248570000000  0.4972580000000 1.0
C      1  0.5008830000000  0.5751970000000  0.4864450000000 1.0
END
