TITL C-3289321-8710-152 0.000650995387698219 125000 -616.225913840382 0 0 107 (C1) n - 1
REM
REM in /nfs/bkarasulu/CARBON/AIRSS/Generating-Clusters/AIREBO/with-SteepDescent/Higher-Symm/SD-CG/HFTN-CG
REM
REM
REM
REM
REM
REM ./C.cell (b20cbc046b6831c77cfcea5457e17084)
REM
REM compiler GCC version 9.2.1 20190827 (Red Hat 9.2.1-1)
REM options -cpp -mtune=generic -march=x86-64 -g -O0 -fpre-include=/usr/include/finclude/math-vector-fortran.h
REM seed 1640375218 -1012905831 -684981646 2035000011 -1493114137 -389795973 -255264831 135195938 -1070699617 -311446639 -1485024087 -1850834682 1275887731 154188031 -1405043273 1723371816 1674691058 -983492017 991384037 -1220916120 1022795328 -527588357 1104036688 -1444124632 -287715127 -1976453652 -2054478295 846898738 -1834576773 -1182856804 1033292070 -147482308 185665614
REM
CELL 1.54180   50.00000   50.00000   50.00000   90.00000   90.00000   90.00000
LATT -1
SFAC C  
C      1  0.5756820000000  0.5402700000000  0.5650410000000 1.0
C      1  0.4103980000000  0.5324880000000  0.5179900000000 1.0
C      1  0.5174830000000  0.5490970000000  0.4102410000000 1.0
C      1  0.4101080000000  0.5019760000000  0.4770360000000 1.0
C      1  0.5699550000000  0.5047670000000  0.4422880000000 1.0
C      1  0.5102290000000  0.4962440000000  0.5932890000000 1.0
C      1  0.4436780000000  0.5007480000000  0.4783990000000 1.0
C      1  0.5491050000000  0.4844070000000  0.4838780000000 1.0
C      1  0.5124740000000  0.5020670000000  0.5623270000000 1.0
C      1  0.5638560000000  0.5484970000000  0.4641830000000 1.0
C      1  0.5028480000000  0.5504930000000  0.5747170000000 1.0
C      1  0.4328180000000  0.5512380000000  0.4673730000000 1.0
C      1  0.4046700000000  0.5063470000000  0.5081190000000 1.0
C      1  0.5475240000000  0.5070190000000  0.4245950000000 1.0
C      1  0.5569900000000  0.5180610000000  0.5648940000000 1.0
C      1  0.4865840000000  0.4422400000000  0.4302940000000 1.0
C      1  0.5652170000000  0.4463800000000  0.5245370000000 1.0
C      1  0.4425200000000  0.4454250000000  0.5458110000000 1.0
C      1  0.4883660000000  0.4929380000000  0.5482560000000 1.0
C      1  0.4686190000000  0.5086170000000  0.4602740000000 1.0
C      1  0.5650020000000  0.5083690000000  0.4912390000000 1.0
C      1  0.4437030000000  0.4618760000000  0.4937860000000 1.0
C      1  0.5384520000000  0.4724310000000  0.4538930000000 1.0
C      1  0.5264850000000  0.4605060000000  0.5574210000000 1.0
C      1  0.4439430000000  0.5270920000000  0.4971820000000 1.0
C      1  0.5359060000000  0.5332470000000  0.4251890000000 1.0
C      1  0.5291170000000  0.5268850000000  0.5559630000000 1.0
C      1  0.4564060000000  0.5657600000000  0.5533750000000 1.0
C      1  0.4679500000000  0.5700660000000  0.4333260000000 1.0
C      1  0.5661020000000  0.5657510000000  0.5125590000000 1.0
C      1  0.5282370000000  0.4821670000000  0.4273230000000 1.0
C      1  0.5592170000000  0.4914740000000  0.5593930000000 1.0
C      1  0.4108020000000  0.4854030000000  0.5261270000000 1.0
C      1  0.4982520000000  0.5800720000000  0.5344530000000 1.0
C      1  0.4733400000000  0.5732080000000  0.4805590000000 1.0
C      1  0.5249370000000  0.5753700000000  0.4862130000000 1.0
C      1  0.4502130000000  0.5175800000000  0.5603710000000 1.0
C      1  0.4669340000000  0.5155730000000  0.4194730000000 1.0
C      1  0.5893030000000  0.5178790000000  0.5149510000000 1.0
C      1  0.4416980000000  0.5088390000000  0.4394980000000 1.0
C      1  0.5979260000000  0.5102480000000  0.4829610000000 1.0
C      1  0.4755390000000  0.5063270000000  0.5767570000000 1.0
C      1  0.4632540000000  0.5316590000000  0.5339640000000 1.0
C      1  0.4897980000000  0.5278560000000  0.4297070000000 1.0
C      1  0.5556800000000  0.5270510000000  0.5180750000000 1.0
C      1  0.4850630000000  0.5682960000000  0.5572550000000 1.0
C      1  0.4553160000000  0.5669290000000  0.4593290000000 1.0
C      1  0.5556780000000  0.5670400000000  0.4861000000000 1.0
C      1  0.4263190000000  0.5546710000000  0.4981010000000 1.0
C      1  0.5389150000000  0.5430630000000  0.4514310000000 1.0
C      1  0.5269310000000  0.5592040000000  0.5523320000000 1.0
C      1  0.4635300000000  0.4842890000000  0.4290410000000 1.0
C      1  0.5936090000000  0.4852620000000  0.5063460000000 1.0
C      1  0.4505520000000  0.4846040000000  0.5716780000000 1.0
C      1  0.4862790000000  0.4475640000000  0.5735680000000 1.0
C      1  0.4411090000000  0.4483180000000  0.4540600000000 1.0
C      1  0.5699250000000  0.4511420000000  0.4766650000000 1.0
C      1  0.4879040000000  0.5334840000000  0.4732950000000 1.0
C      1  0.5311060000000  0.5385870000000  0.4995590000000 1.0
C      1  0.4888010000000  0.5429000000000  0.5242760000000 1.0
C      1  0.4833690000000  0.5703200000000  0.5090330000000 1.0
C      1  0.5018070000000  0.5646100000000  0.4741570000000 1.0
C      1  0.5250160000000  0.5659140000000  0.5188750000000 1.0
C      1  0.5811650000000  0.5256090000000  0.4591350000000 1.0
C      1  0.4964970000000  0.5272370000000  0.5886340000000 1.0
C      1  0.4225010000000  0.5266270000000  0.4568570000000 1.0
C      1  0.4279050000000  0.4606970000000  0.5225930000000 1.0
C      1  0.5056610000000  0.4591970000000  0.4159400000000 1.0
C      1  0.5602750000000  0.4593440000000  0.5527530000000 1.0
C      1  0.5223360000000  0.4786380000000  0.5049760000000 1.0
C      1  0.4820420000000  0.4782790000000  0.5195430000000 1.0
C      1  0.4925070000000  0.4875130000000  0.4717200000000 1.0
C      1  0.4742430000000  0.5154810000000  0.4991410000000 1.0
C      1  0.5208880000000  0.5299800000000  0.4720680000000 1.0
C      1  0.5163880000000  0.5228400000000  0.5246880000000 1.0
C      1  0.4955600000000  0.4886710000000  0.4259320000000 1.0
C      1  0.5702920000000  0.4858070000000  0.5288980000000 1.0
C      1  0.4340760000000  0.4937620000000  0.5439110000000 1.0
C      1  0.5275850000000  0.4292070000000  0.5449750000000 1.0
C      1  0.4424400000000  0.4298980000000  0.5016960000000 1.0
C      1  0.5234520000000  0.4260360000000  0.4626490000000 1.0
C      1  0.5165100000000  0.4631860000000  0.4752540000000 1.0
C      1  0.5075430000000  0.4598480000000  0.5291910000000 1.0
C      1  0.4751680000000  0.4670780000000  0.4914820000000 1.0
C      1  0.5087440000000  0.5083740000000  0.4503170000000 1.0
C      1  0.5398960000000  0.4977730000000  0.5251260000000 1.0
C      1  0.4578080000000  0.5013810000000  0.5246160000000 1.0
C      1  0.4589950000000  0.4562280000000  0.5669380000000 1.0
C      1  0.4598700000000  0.4550230000000  0.4338130000000 1.0
C      1  0.5787420000000  0.4568390000000  0.5026460000000 1.0
C      1  0.5417070000000  0.4311270000000  0.5201650000000 1.0
C      1  0.4557440000000  0.4282510000000  0.5264790000000 1.0
C      1  0.4974540000000  0.4311700000000  0.4535890000000 1.0
C      1  0.4984410000000  0.4298720000000  0.5539710000000 1.0
C      1  0.4505710000000  0.4288860000000  0.4723960000000 1.0
C      1  0.5530540000000  0.4311830000000  0.4661350000000 1.0
C      1  0.5073680000000  0.4674320000000  0.5814330000000 1.0
C      1  0.4272460000000  0.4734750000000  0.4688330000000 1.0
C      1  0.5710360000000  0.4775440000000  0.4584310000000 1.0
C      1  0.4905880000000  0.5564300000000  0.4221370000000 1.0
C      1  0.5571340000000  0.5507480000000  0.5403190000000 1.0
C      1  0.4369500000000  0.5503570000000  0.5301110000000 1.0
C      1  0.5258010000000  0.4368860000000  0.4947860000000 1.0
C      1  0.4853640000000  0.4339540000000  0.5261910000000 1.0
C      1  0.4797290000000  0.4363590000000  0.4775450000000 1.0
C      1  0.4970120000000  0.4255120000000  0.4998840000000 1.0
C      1  0.5037480000000  0.5053060000000  0.4984330000000 1.0
END
