TITL C-3289322-3858-9 -0.00294029074539411 125000 -647.671996022109 0 0 121 (C1) n - 1
REM
REM in /nfs/bkarasulu/CARBON/AIRSS/Generating-Clusters/AIREBO/with-SteepDescent/Higher-Symm/SD-CG/HFTN-CG
REM
REM
REM
REM
REM
REM ./C.cell (b20cbc046b6831c77cfcea5457e17084)
REM
REM compiler GCC version 9.2.1 20190827 (Red Hat 9.2.1-1)
REM options -cpp -mtune=generic -march=x86-64 -g -O0 -fpre-include=/usr/include/finclude/math-vector-fortran.h
REM seed -22789413 -1795456989 410577827 -1479983459 -2090645371 -1487299658 -80163097 1536963956 372838993 -552355176 -1308062246 145583213 -807036598 1262739287 -303789713 677256984 1733685840 2135768306 -495420210 -1921925701 -49158085 2021240210 -90547082 -1990948992 1450627544 -1872134503 2094043322 1757440997 1972725010 -435124708 442750058 -1044401418 1713565938
REM
CELL 1.54180   50.00000   50.00000   50.00000   90.00000   90.00000   90.00000
LATT -1
SFAC C  
C      1  0.5531750000000  0.5444720000000  0.5462940000000 1.0
C      1  0.5581480000000  0.4552730000000  0.4481330000000 1.0
C      1  0.5668550000000  0.5531480000000  0.4536540000000 1.0
C      1  0.5603950000000  0.4452280000000  0.5445350000000 1.0
C      1  0.4372670000000  0.4704270000000  0.5717440000000 1.0
C      1  0.4431320000000  0.5271240000000  0.4303380000000 1.0
C      1  0.4455800000000  0.4720230000000  0.4299720000000 1.0
C      1  0.4448260000000  0.5285740000000  0.5684500000000 1.0
C      1  0.4762250000000  0.4727550000000  0.4709760000000 1.0
C      1  0.4824440000000  0.5254720000000  0.5385420000000 1.0
C      1  0.4853910000000  0.4674530000000  0.5466550000000 1.0
C      1  0.4907720000000  0.5364460000000  0.4542560000000 1.0
C      1  0.4829710000000  0.5568850000000  0.5255110000000 1.0
C      1  0.4718410000000  0.4439360000000  0.4872650000000 1.0
C      1  0.4762040000000  0.5660110000000  0.4626720000000 1.0
C      1  0.4797950000000  0.4419870000000  0.5270720000000 1.0
C      1  0.4154340000000  0.5544290000000  0.4656690000000 1.0
C      1  0.4141100000000  0.4479210000000  0.5297770000000 1.0
C      1  0.4250460000000  0.5517590000000  0.5219760000000 1.0
C      1  0.4242060000000  0.4458630000000  0.4711210000000 1.0
C      1  0.5090220000000  0.4707210000000  0.4323850000000 1.0
C      1  0.5052010000000  0.5263100000000  0.5640430000000 1.0
C      1  0.4926030000000  0.4777660000000  0.5758260000000 1.0
C      1  0.5206180000000  0.5331900000000  0.4403700000000 1.0
C      1  0.4262700000000  0.4456440000000  0.5562250000000 1.0
C      1  0.4315920000000  0.5515810000000  0.4416230000000 1.0
C      1  0.4291970000000  0.4506130000000  0.4447140000000 1.0
C      1  0.4353040000000  0.5541120000000  0.5543680000000 1.0
C      1  0.6025290000000  0.5282840000000  0.4770980000000 1.0
C      1  0.5961660000000  0.4729040000000  0.5245820000000 1.0
C      1  0.5983390000000  0.5214160000000  0.5307670000000 1.0
C      1  0.5973450000000  0.4818280000000  0.4707800000000 1.0
C      1  0.4753530000000  0.5305160000000  0.5798170000000 1.0
C      1  0.4754580000000  0.4718740000000  0.4250850000000 1.0
C      1  0.4712280000000  0.5300750000000  0.4271600000000 1.0
C      1  0.4623950000000  0.4672570000000  0.5884090000000 1.0
C      1  0.5351280000000  0.5882650000000  0.4193230000000 1.0
C      1  0.5482060000000  0.3888800000000  0.5629930000000 1.0
C      1  0.5297360000000  0.5668460000000  0.5889930000000 1.0
C      1  0.5215420000000  0.4180640000000  0.4412020000000 1.0
C      1  0.4536020000000  0.5733220000000  0.4870180000000 1.0
C      1  0.4600720000000  0.4196750000000  0.5354680000000 1.0
C      1  0.4631930000000  0.5809960000000  0.5117010000000 1.0
C      1  0.4528490000000  0.4221740000000  0.5052180000000 1.0
C      1  0.5505280000000  0.4187570000000  0.5511730000000 1.0
C      1  0.5376130000000  0.5626990000000  0.4391630000000 1.0
C      1  0.5292810000000  0.4436390000000  0.4355330000000 1.0
C      1  0.5282460000000  0.5509070000000  0.5685120000000 1.0
C      1  0.4507810000000  0.5301340000000  0.5270540000000 1.0
C      1  0.4483220000000  0.4892370000000  0.4705010000000 1.0
C      1  0.4647700000000  0.5253240000000  0.4731350000000 1.0
C      1  0.4452410000000  0.4841190000000  0.5322020000000 1.0
C      1  0.5138040000000  0.5991560000000  0.5109430000000 1.0
C      1  0.5132700000000  0.3940150000000  0.4884420000000 1.0
C      1  0.5155220000000  0.6008200000000  0.4829470000000 1.0
C      1  0.5165230000000  0.4041860000000  0.5150980000000 1.0
C      1  0.5031220000000  0.5181930000000  0.5153200000000 1.0
C      1  0.5086000000000  0.4709430000000  0.4723130000000 1.0
C      1  0.4968240000000  0.5161620000000  0.4808860000000 1.0
C      1  0.5091550000000  0.4684040000000  0.5257600000000 1.0
C      1  0.5597980000000  0.5229170000000  0.5700990000000 1.0
C      1  0.5662060000000  0.4781080000000  0.4263120000000 1.0
C      1  0.5645150000000  0.5333300000000  0.4264250000000 1.0
C      1  0.5611550000000  0.4683380000000  0.5683950000000 1.0
C      1  0.5400670000000  0.4680650000000  0.5345840000000 1.0
C      1  0.5445770000000  0.5307880000000  0.4616450000000 1.0
C      1  0.5337810000000  0.4780760000000  0.4546470000000 1.0
C      1  0.5273910000000  0.5231200000000  0.5384700000000 1.0
C      1  0.4643080000000  0.4135470000000  0.4739930000000 1.0
C      1  0.4575340000000  0.5704750000000  0.5435350000000 1.0
C      1  0.4433720000000  0.4226150000000  0.5564870000000 1.0
C      1  0.4523770000000  0.5718210000000  0.4416250000000 1.0
C      1  0.5112720000000  0.4125770000000  0.4668710000000 1.0
C      1  0.5143830000000  0.6189630000000  0.5289100000000 1.0
C      1  0.5333850000000  0.3964430000000  0.5352500000000 1.0
C      1  0.5258700000000  0.5923490000000  0.4516570000000 1.0
C      1  0.5057040000000  0.5722660000000  0.4684090000000 1.0
C      1  0.5076610000000  0.4326040000000  0.5178590000000 1.0
C      1  0.5104740000000  0.5708180000000  0.5167180000000 1.0
C      1  0.5037190000000  0.4385880000000  0.4785580000000 1.0
C      1  0.5835970000000  0.4459320000000  0.5244510000000 1.0
C      1  0.5878900000000  0.5541110000000  0.4744540000000 1.0
C      1  0.5786700000000  0.4529190000000  0.4705230000000 1.0
C      1  0.5761290000000  0.5471240000000  0.5271400000000 1.0
C      1  0.5499580000000  0.5001470000000  0.5291230000000 1.0
C      1  0.5566840000000  0.5012860000000  0.4645790000000 1.0
C      1  0.5168530000000  0.4964670000000  0.5737080000000 1.0
C      1  0.5196470000000  0.5024340000000  0.4257780000000 1.0
C      1  0.5838820000000  0.5255810000000  0.5020730000000 1.0
C      1  0.5770790000000  0.4742070000000  0.4970050000000 1.0
C      1  0.5274020000000  0.4468660000000  0.4978130000000 1.0
C      1  0.5207600000000  0.5588670000000  0.4929090000000 1.0
C      1  0.4697950000000  0.5356020000000  0.5020650000000 1.0
C      1  0.4658880000000  0.4681650000000  0.5103890000000 1.0
C      1  0.4317890000000  0.5003470000000  0.5661220000000 1.0
C      1  0.4336230000000  0.4997030000000  0.4349490000000 1.0
C      1  0.4199030000000  0.4634640000000  0.5000870000000 1.0
C      1  0.4210180000000  0.5196740000000  0.5188450000000 1.0
C      1  0.5461250000000  0.4955450000000  0.5626460000000 1.0
C      1  0.5507380000000  0.5055920000000  0.4313720000000 1.0
C      1  0.4155900000000  0.4983280000000  0.5408690000000 1.0
C      1  0.4190540000000  0.4991590000000  0.4613750000000 1.0
C      1  0.5439600000000  0.4699830000000  0.5036180000000 1.0
C      1  0.5315980000000  0.5332310000000  0.4885970000000 1.0
C      1  0.4689720000000  0.4962680000000  0.5495830000000 1.0
C      1  0.4735160000000  0.4999040000000  0.4530350000000 1.0
C      1  0.4681870000000  0.4994220000000  0.5826250000000 1.0
C      1  0.4877920000000  0.5032220000000  0.4246240000000 1.0
C      1  0.4278620000000  0.5620380000000  0.4903190000000 1.0
C      1  0.4241450000000  0.4308180000000  0.5016370000000 1.0
C      1  0.6127880000000  0.5035100000000  0.4686830000000 1.0
C      1  0.6069840000000  0.4963530000000  0.5350380000000 1.0
C      1  0.5837050000000  0.4348790000000  0.4989500000000 1.0
C      1  0.5834760000000  0.5654340000000  0.4994310000000 1.0
C      1  0.4048000000000  0.4993100000000  0.4859790000000 1.0
C      1  0.5627590000000  0.5047020000000  0.4978990000000 1.0
C      1  0.5303550000000  0.4997090000000  0.4942770000000 1.0
C      1  0.4989070000000  0.4881170000000  0.5000190000000 1.0
C      1  0.3791710000000  0.5017390000000  0.4937920000000 1.0
C      1  0.4681810000000  0.5017270000000  0.5053570000000 1.0
C      1  0.4348180000000  0.4939170000000  0.5013520000000 1.0
END
