TITL C-3289335-9438-451 -0.00217684310273691 125000 -230.443579424182 0 0 42 (C1) n - 1
REM
REM in /nfs/bkarasulu/CARBON/AIRSS/Generating-Clusters/AIREBO/with-SteepDescent/Higher-Symm/SD-CG/HFTN-CG
REM
REM
REM
REM
REM
REM ./C.cell (b20cbc046b6831c77cfcea5457e17084)
REM
REM compiler GCC version 9.2.1 20190827 (Red Hat 9.2.1-1)
REM options -cpp -mtune=generic -march=x86-64 -g -O0 -fpre-include=/usr/include/finclude/math-vector-fortran.h
REM seed -456757775 1590604498 -1777280461 -1629092254 2005022528 1123649495 -412575448 1824918898 -1336891789 1734496567 -1514046876 2098193617 1945998345 -920758483 1074403134 1210041140 -4167413 -1964400334 -1141827400 88535061 -326580441 264842559 1197584029 1108172588 -1646229860 824452029 1221815223 -437990096 592014462 -1557869160 429128804 -1330223907 1076584567
REM
CELL 1.54180   50.00000   50.00000   50.00000   90.00000   90.00000   90.00000
LATT -1
SFAC C  
C      1  0.5423320000000  0.4741990000000  0.4603440000000 1.0
C      1  0.5400170000000  0.5258660000000  0.4610740000000 1.0
C      1  0.4518800000000  0.5237160000000  0.4941340000000 1.0
C      1  0.4491610000000  0.4779070000000  0.4917870000000 1.0
C      1  0.4700910000000  0.5464440000000  0.4953800000000 1.0
C      1  0.4675360000000  0.4555630000000  0.4940680000000 1.0
C      1  0.4814880000000  0.4537170000000  0.5483260000000 1.0
C      1  0.4768840000000  0.5411820000000  0.5491350000000 1.0
C      1  0.4807860000000  0.5333170000000  0.5199980000000 1.0
C      1  0.4755030000000  0.4699890000000  0.5207370000000 1.0
C      1  0.4928850000000  0.5549750000000  0.4802430000000 1.0
C      1  0.4887930000000  0.4441670000000  0.4823750000000 1.0
C      1  0.5073760000000  0.5150110000000  0.5143020000000 1.0
C      1  0.5015310000000  0.4876930000000  0.5336930000000 1.0
C      1  0.5526850000000  0.5353440000000  0.5126220000000 1.0
C      1  0.5492600000000  0.4646960000000  0.5127330000000 1.0
C      1  0.5435730000000  0.5387810000000  0.4846860000000 1.0
C      1  0.5437490000000  0.4608990000000  0.4841730000000 1.0
C      1  0.5164530000000  0.5433850000000  0.4978760000000 1.0
C      1  0.5143610000000  0.4556710000000  0.4955720000000 1.0
C      1  0.5185550000000  0.4381910000000  0.5216570000000 1.0
C      1  0.5171730000000  0.5604300000000  0.5245700000000 1.0
C      1  0.4419740000000  0.5146590000000  0.5206960000000 1.0
C      1  0.4388670000000  0.4857270000000  0.5178800000000 1.0
C      1  0.4517240000000  0.4706990000000  0.5448650000000 1.0
C      1  0.4541020000000  0.5205840000000  0.5468490000000 1.0
C      1  0.5372610000000  0.4765030000000  0.4314060000000 1.0
C      1  0.5326260000000  0.5236830000000  0.4323820000000 1.0
C      1  0.5092070000000  0.4486330000000  0.5474100000000 1.0
C      1  0.5070550000000  0.5455980000000  0.5475170000000 1.0
C      1  0.5317750000000  0.5249870000000  0.5357840000000 1.0
C      1  0.5311180000000  0.4726130000000  0.5373660000000 1.0
C      1  0.4722310000000  0.4863990000000  0.4193160000000 1.0
C      1  0.4608020000000  0.5009680000000  0.4788960000000 1.0
C      1  0.5200250000000  0.4987970000000  0.4252010000000 1.0
C      1  0.4895400000000  0.4978980000000  0.4662090000000 1.0
C      1  0.5400630000000  0.4997730000000  0.5516940000000 1.0
C      1  0.5097490000000  0.4892890000000  0.4921610000000 1.0
C      1  0.5240320000000  0.4996170000000  0.4649420000000 1.0
C      1  0.4931090000000  0.4953810000000  0.4345850000000 1.0
C      1  0.4612580000000  0.4966120000000  0.5604710000000 1.0
C      1  0.4888410000000  0.4937380000000  0.5623440000000 1.0
END
