TITL C-3289332-8317-402 -0.0016205262866144 125000 -738.781410389618 0 0 139 (C1) n - 1
REM
REM in /nfs/bkarasulu/CARBON/AIRSS/Generating-Clusters/AIREBO/with-SteepDescent/Higher-Symm/SD-CG/HFTN-CG
REM
REM
REM
REM
REM
REM ./C.cell (b20cbc046b6831c77cfcea5457e17084)
REM
REM compiler GCC version 9.2.1 20190827 (Red Hat 9.2.1-1)
REM options -cpp -mtune=generic -march=x86-64 -g -O0 -fpre-include=/usr/include/finclude/math-vector-fortran.h
REM seed 1993547099 -1568517543 -1620870047 -1655772829 1735001725 -84095209 972254578 -1928512652 -793775061 119627156 614090245 -2118524191 2011285310 -457068863 -1182557659 -238540508 654687919 -1565102933 34052184 125286746 253258004 -2020183183 -1376923452 -790018860 -715662561 -1225400834 -115215672 -8756364 -1428626882 -1144280934 1295527671 -627344107 -2140544144
REM
CELL 1.54180   50.00000   50.00000   50.00000   90.00000   90.00000   90.00000
LATT -1
SFAC C  
C      1  0.4827290000000  0.4217890000000  0.5379990000000 1.0
C      1  0.4803960000000  0.5813350000000  0.4599900000000 1.0
C      1  0.5385970000000  0.5943010000000  0.5137340000000 1.0
C      1  0.5481910000000  0.4148270000000  0.4878860000000 1.0
C      1  0.4756270000000  0.5475840000000  0.5782620000000 1.0
C      1  0.4761770000000  0.4414620000000  0.4185780000000 1.0
C      1  0.5087570000000  0.5186860000000  0.4842120000000 1.0
C      1  0.5051860000000  0.4836680000000  0.5188370000000 1.0
C      1  0.4829330000000  0.4685640000000  0.5591450000000 1.0
C      1  0.4847090000000  0.5326250000000  0.4431490000000 1.0
C      1  0.4424840000000  0.5681850000000  0.5516820000000 1.0
C      1  0.4422280000000  0.4285230000000  0.4558660000000 1.0
C      1  0.5550560000000  0.5045950000000  0.5163390000000 1.0
C      1  0.5555690000000  0.4913190000000  0.4847870000000 1.0
C      1  0.4944160000000  0.4366710000000  0.5618020000000 1.0
C      1  0.4949690000000  0.5649290000000  0.4388990000000 1.0
C      1  0.4306310000000  0.4646780000000  0.4953360000000 1.0
C      1  0.4300730000000  0.5321790000000  0.5000810000000 1.0
C      1  0.4740350000000  0.4563270000000  0.4470560000000 1.0
C      1  0.4726590000000  0.5427920000000  0.5455320000000 1.0
C      1  0.4428080000000  0.5610350000000  0.4346420000000 1.0
C      1  0.4418510000000  0.4341180000000  0.5639170000000 1.0
C      1  0.5007410000000  0.5897790000000  0.5769380000000 1.0
C      1  0.5000060000000  0.4067890000000  0.4268950000000 1.0
C      1  0.4007760000000  0.5292640000000  0.4612330000000 1.0
C      1  0.4002590000000  0.4685900000000  0.5379710000000 1.0
C      1  0.4926020000000  0.4639760000000  0.6068180000000 1.0
C      1  0.4973300000000  0.5396290000000  0.3900980000000 1.0
C      1  0.4459230000000  0.5110850000000  0.5926260000000 1.0
C      1  0.4489340000000  0.4831470000000  0.4106620000000 1.0
C      1  0.5367770000000  0.5470650000000  0.4222070000000 1.0
C      1  0.5349930000000  0.4568020000000  0.5798170000000 1.0
C      1  0.5176630000000  0.5040820000000  0.6088000000000 1.0
C      1  0.5116780000000  0.5028610000000  0.3917000000000 1.0
C      1  0.4899260000000  0.4404670000000  0.4681840000000 1.0
C      1  0.4899400000000  0.5623870000000  0.5308550000000 1.0
C      1  0.4222290000000  0.4337910000000  0.4821730000000 1.0
C      1  0.4262960000000  0.5916980000000  0.5407380000000 1.0
C      1  0.4488980000000  0.4563760000000  0.4143290000000 1.0
C      1  0.4491950000000  0.5379300000000  0.5899320000000 1.0
C      1  0.4553800000000  0.5082310000000  0.4309500000000 1.0
C      1  0.4494250000000  0.4926210000000  0.5671260000000 1.0
C      1  0.4538400000000  0.5298600000000  0.4571440000000 1.0
C      1  0.4524780000000  0.4673090000000  0.5446280000000 1.0
C      1  0.4593290000000  0.5139240000000  0.5193660000000 1.0
C      1  0.4593730000000  0.4881160000000  0.4805430000000 1.0
C      1  0.5845880000000  0.4868940000000  0.4687310000000 1.0
C      1  0.5870480000000  0.5103600000000  0.5239690000000 1.0
C      1  0.5919680000000  0.4623400000000  0.4896300000000 1.0
C      1  0.6007110000000  0.5307380000000  0.5028660000000 1.0
C      1  0.5233810000000  0.4340890000000  0.5669850000000 1.0
C      1  0.5245820000000  0.5687020000000  0.4368620000000 1.0
C      1  0.5773460000000  0.5543650000000  0.5101690000000 1.0
C      1  0.5766220000000  0.4402230000000  0.5104910000000 1.0
C      1  0.5593050000000  0.4710390000000  0.5717560000000 1.0
C      1  0.5595910000000  0.5304210000000  0.4291740000000 1.0
C      1  0.4852510000000  0.4793970000000  0.4955910000000 1.0
C      1  0.4859270000000  0.5252530000000  0.5054480000000 1.0
C      1  0.5275840000000  0.5113530000000  0.5788190000000 1.0
C      1  0.5239520000000  0.4913140000000  0.4175360000000 1.0
C      1  0.4300580000000  0.4416720000000  0.4281370000000 1.0
C      1  0.4307040000000  0.5552760000000  0.5786480000000 1.0
C      1  0.5711120000000  0.5376530000000  0.4537840000000 1.0
C      1  0.5689000000000  0.4613680000000  0.5461840000000 1.0
C      1  0.4757460000000  0.4858870000000  0.4440530000000 1.0
C      1  0.4714550000000  0.5132620000000  0.5574580000000 1.0
C      1  0.5704220000000  0.5220600000000  0.5488710000000 1.0
C      1  0.5661110000000  0.4763880000000  0.4422250000000 1.0
C      1  0.5140370000000  0.5295260000000  0.4126710000000 1.0
C      1  0.5125680000000  0.4762590000000  0.5899310000000 1.0
C      1  0.5589120000000  0.5755430000000  0.5215530000000 1.0
C      1  0.5690480000000  0.4399080000000  0.4782850000000 1.0
C      1  0.5840720000000  0.4774690000000  0.5203170000000 1.0
C      1  0.5852630000000  0.5185210000000  0.4748910000000 1.0
C      1  0.5584410000000  0.4992780000000  0.5770910000000 1.0
C      1  0.5552060000000  0.5007500000000  0.4211550000000 1.0
C      1  0.5323780000000  0.4962950000000  0.5350820000000 1.0
C      1  0.5341310000000  0.5046070000000  0.4663120000000 1.0
C      1  0.4156500000000  0.5542690000000  0.4156520000000 1.0
C      1  0.4128020000000  0.4373070000000  0.5807990000000 1.0
C      1  0.4692260000000  0.6158590000000  0.5295000000000 1.0
C      1  0.4729860000000  0.3841670000000  0.4710610000000 1.0
C      1  0.5502700000000  0.5474480000000  0.5386060000000 1.0
C      1  0.5496950000000  0.4539170000000  0.4598150000000 1.0
C      1  0.4959880000000  0.4267540000000  0.5139350000000 1.0
C      1  0.4928920000000  0.5791270000000  0.4848570000000 1.0
C      1  0.5216760000000  0.4238900000000  0.4305140000000 1.0
C      1  0.5221530000000  0.5736210000000  0.5709520000000 1.0
C      1  0.5915100000000  0.5267300000000  0.5733830000000 1.0
C      1  0.5919700000000  0.4628590000000  0.4263550000000 1.0
C      1  0.5021870000000  0.5404660000000  0.5938700000000 1.0
C      1  0.5005110000000  0.4477150000000  0.3997860000000 1.0
C      1  0.5103280000000  0.5112300000000  0.4414910000000 1.0
C      1  0.5080950000000  0.4914350000000  0.5593330000000 1.0
C      1  0.4546200000000  0.4280830000000  0.5364020000000 1.0
C      1  0.4529160000000  0.5722480000000  0.4611300000000 1.0
C      1  0.5196960000000  0.6057780000000  0.5303980000000 1.0
C      1  0.5231660000000  0.4005650000000  0.4781570000000 1.0
C      1  0.4237960000000  0.5337690000000  0.4416530000000 1.0
C      1  0.4217930000000  0.4608910000000  0.5578410000000 1.0
C      1  0.5264330000000  0.5506040000000  0.5859660000000 1.0
C      1  0.5252940000000  0.4437670000000  0.4114040000000 1.0
C      1  0.5241640000000  0.4730070000000  0.4681260000000 1.0
C      1  0.5247830000000  0.5287140000000  0.5282000000000 1.0
C      1  0.4439600000000  0.5425840000000  0.5293370000000 1.0
C      1  0.4457320000000  0.4610790000000  0.4650620000000 1.0
C      1  0.4381410000000  0.4932490000000  0.4544810000000 1.0
C      1  0.4369960000000  0.5046220000000  0.5393100000000 1.0
C      1  0.5245640000000  0.4468070000000  0.4897940000000 1.0
C      1  0.5246200000000  0.5574120000000  0.5097990000000 1.0
C      1  0.4028690000000  0.4654870000000  0.5132800000000 1.0
C      1  0.4027290000000  0.5344680000000  0.4858360000000 1.0
C      1  0.4822690000000  0.4481130000000  0.4967190000000 1.0
C      1  0.4807660000000  0.5566360000000  0.5014310000000 1.0
C      1  0.5340180000000  0.5376740000000  0.4881120000000 1.0
C      1  0.5272980000000  0.4609540000000  0.5178290000000 1.0
C      1  0.5531600000000  0.5536900000000  0.4678760000000 1.0
C      1  0.5473770000000  0.4449510000000  0.5370250000000 1.0
C      1  0.5619090000000  0.5285650000000  0.4974940000000 1.0
C      1  0.5557860000000  0.4665250000000  0.5049370000000 1.0
C      1  0.4898640000000  0.5947670000000  0.5388900000000 1.0
C      1  0.4932770000000  0.4078580000000  0.4660690000000 1.0
C      1  0.5215340000000  0.4349490000000  0.4579980000000 1.0
C      1  0.5217900000000  0.5656590000000  0.5422960000000 1.0
C      1  0.4693090000000  0.5534890000000  0.4214030000000 1.0
C      1  0.4670810000000  0.4449020000000  0.5779570000000 1.0
C      1  0.5459460000000  0.4667790000000  0.4161570000000 1.0
C      1  0.5524480000000  0.5329190000000  0.5756190000000 1.0
C      1  0.5262970000000  0.4214050000000  0.5123550000000 1.0
C      1  0.5229760000000  0.5829880000000  0.4874120000000 1.0
C      1  0.4964100000000  0.4925620000000  0.4662880000000 1.0
C      1  0.4959680000000  0.5120510000000  0.5351410000000 1.0
C      1  0.4527170000000  0.5495240000000  0.4837440000000 1.0
C      1  0.4540310000000  0.4527680000000  0.5150770000000 1.0
C      1  0.4712090000000  0.4170050000000  0.4418440000000 1.0
C      1  0.4728660000000  0.5783040000000  0.5633370000000 1.0
C      1  0.5372300000000  0.5754060000000  0.4608570000000 1.0
C      1  0.5363510000000  0.4184730000000  0.5447050000000 1.0
C      1  0.4361250000000  0.4985310000000  0.4998520000000 1.0
END
