TITL C-3289326-3776-323 -0.000474960665825779 125000 -374.223914632925 0 0 67 (C1) n - 1
REM
REM in /nfs/bkarasulu/CARBON/AIRSS/Generating-Clusters/AIREBO/with-SteepDescent/Higher-Symm/SD-CG/HFTN-CG
REM
REM
REM
REM
REM
REM ./C.cell (b20cbc046b6831c77cfcea5457e17084)
REM
REM compiler GCC version 9.2.1 20190827 (Red Hat 9.2.1-1)
REM options -cpp -mtune=generic -march=x86-64 -g -O0 -fpre-include=/usr/include/finclude/math-vector-fortran.h
REM seed -1467185690 878143438 1161538168 -225247145 -1450687328 1236166776 -1993248119 -1021697048 2088904237 114429373 846133155 -1598638478 -283420951 713665750 -606183739 -497538124 -2120606847 -167707338 -946921100 787364729 -522485499 -1990933009 1140854545 -1030276915 1147160268 -2100766855 -1160381929 392131359 -928170883 408438641 1513236207 -392795249 1445832534
REM
CELL 1.54180   50.00000   50.00000   50.00000   90.00000   90.00000   90.00000
LATT -1
SFAC C  
C      1  0.5448460000000  0.5569780000000  0.5087270000000 1.0
C      1  0.5706920000000  0.4775440000000  0.5183730000000 1.0
C      1  0.4941930000000  0.4308800000000  0.5028890000000 1.0
C      1  0.4229580000000  0.4810990000000  0.5198920000000 1.0
C      1  0.4616630000000  0.5579680000000  0.5126990000000 1.0
C      1  0.4658460000000  0.5318810000000  0.4923770000000 1.0
C      1  0.5237660000000  0.5398560000000  0.4882650000000 1.0
C      1  0.5483860000000  0.4877640000000  0.4961890000000 1.0
C      1  0.5018080000000  0.4559080000000  0.4811430000000 1.0
C      1  0.4522800000000  0.4814070000000  0.4838520000000 1.0
C      1  0.4582120000000  0.5226440000000  0.4440590000000 1.0
C      1  0.5122420000000  0.5442500000000  0.4565640000000 1.0
C      1  0.5519720000000  0.5029100000000  0.4479710000000 1.0
C      1  0.5218450000000  0.4509840000000  0.4541060000000 1.0
C      1  0.4732960000000  0.4649350000000  0.4649370000000 1.0
C      1  0.4641900000000  0.5417260000000  0.4638680000000 1.0
C      1  0.5455970000000  0.5476670000000  0.4622150000000 1.0
C      1  0.5572450000000  0.4826140000000  0.4670010000000 1.0
C      1  0.5009300000000  0.4268000000000  0.4537260000000 1.0
C      1  0.4312190000000  0.4865810000000  0.4608820000000 1.0
C      1  0.5083510000000  0.5664550000000  0.5419250000000 1.0
C      1  0.5636340000000  0.5084630000000  0.5541760000000 1.0
C      1  0.5366750000000  0.4447080000000  0.5375170000000 1.0
C      1  0.4630210000000  0.4551950000000  0.5433410000000 1.0
C      1  0.4407550000000  0.5295110000000  0.5496540000000 1.0
C      1  0.5194910000000  0.4816460000000  0.5610760000000 1.0
C      1  0.4917390000000  0.4697430000000  0.5511880000000 1.0
C      1  0.4770430000000  0.4979440000000  0.5529180000000 1.0
C      1  0.4951410000000  0.5188330000000  0.5540360000000 1.0
C      1  0.5206020000000  0.5092670000000  0.5559020000000 1.0
C      1  0.4341420000000  0.5081240000000  0.4442170000000 1.0
C      1  0.4848950000000  0.5586990000000  0.4574990000000 1.0
C      1  0.5615610000000  0.5294080000000  0.4501650000000 1.0
C      1  0.5519080000000  0.4570890000000  0.4578890000000 1.0
C      1  0.4769970000000  0.4335700000000  0.4591250000000 1.0
C      1  0.4323220000000  0.5405970000000  0.5121890000000 1.0
C      1  0.5172150000000  0.5763440000000  0.5042970000000 1.0
C      1  0.5817750000000  0.5073020000000  0.5062040000000 1.0
C      1  0.5278750000000  0.4290410000000  0.4984270000000 1.0
C      1  0.4376130000000  0.4551740000000  0.5102140000000 1.0
C      1  0.5121760000000  0.4749660000000  0.4365100000000 1.0
C      1  0.4844850000000  0.4810540000000  0.4404650000000 1.0
C      1  0.4812420000000  0.5090160000000  0.4353400000000 1.0
C      1  0.5075740000000  0.5216240000000  0.4354750000000 1.0
C      1  0.5266540000000  0.4999560000000  0.4355060000000 1.0
C      1  0.4953470000000  0.5375390000000  0.5068510000000 1.0
C      1  0.5430770000000  0.5171930000000  0.5050060000000 1.0
C      1  0.5239100000000  0.4683790000000  0.5037780000000 1.0
C      1  0.4695190000000  0.4622420000000  0.5045430000000 1.0
C      1  0.4521660000000  0.5065520000000  0.5032060000000 1.0
C      1  0.4413590000000  0.4736750000000  0.5452190000000 1.0
C      1  0.4576920000000  0.5504820000000  0.5439550000000 1.0
C      1  0.5349970000000  0.5572130000000  0.5393210000000 1.0
C      1  0.5645000000000  0.4817750000000  0.5477640000000 1.0
C      1  0.5094860000000  0.4394670000000  0.5320240000000 1.0
C      1  0.4947700000000  0.4669250000000  0.5195300000000 1.0
C      1  0.4512440000000  0.5033050000000  0.5370720000000 1.0
C      1  0.4885710000000  0.5424260000000  0.5377350000000 1.0
C      1  0.5413360000000  0.5250970000000  0.5380440000000 1.0
C      1  0.5420480000000  0.4662280000000  0.5553290000000 1.0
C      1  0.4893640000000  0.5758870000000  0.5160300000000 1.0
C      1  0.5714310000000  0.5358980000000  0.5064990000000 1.0
C      1  0.5523560000000  0.4502900000000  0.5095820000000 1.0
C      1  0.4632920000000  0.4326550000000  0.5177490000000 1.0
C      1  0.4208620000000  0.5120450000000  0.5128000000000 1.0
C      1  0.5020080000000  0.4897770000000  0.4780990000000 1.0
C      1  0.4987590000000  0.5092060000000  0.4922340000000 1.0
END
