TITL C-3289329-2751-711 0.00707288458016294 125000 -1045.30249805256 0 0 199 (C1) n - 1
REM
REM in /nfs/bkarasulu/CARBON/AIRSS/Generating-Clusters/AIREBO/with-SteepDescent/Higher-Symm/SD-CG/HFTN-CG
REM
REM
REM
REM
REM
REM ./C.cell (b20cbc046b6831c77cfcea5457e17084)
REM
REM compiler GCC version 9.2.1 20190827 (Red Hat 9.2.1-1)
REM options -cpp -mtune=generic -march=x86-64 -g -O0 -fpre-include=/usr/include/finclude/math-vector-fortran.h
REM seed -1976742341 308016144 -1260236668 -1818713406 -572264563 -161926384 45385948 -1798763453 1004201161 -1309856146 -1683973397 -1421837402 -782396520 1859848269 1304577575 587737320 -220976104 -179356220 -610263907 976214344 -627079736 1454021759 190842921 1102711499 -189478993 -1715143883 -1399031846 -1123898639 1854528401 -638342434 2027612129 2044541028 -1804326026
REM
CELL 1.54180   50.00000   50.00000   50.00000   90.00000   90.00000   90.00000
LATT -1
SFAC C  
C      1  0.5954080000000  0.4346020000000  0.5358330000000 1.0
C      1  0.5905940000000  0.5032170000000  0.4356600000000 1.0
C      1  0.5843770000000  0.5394050000000  0.5339220000000 1.0
C      1  0.4119610000000  0.5665370000000  0.5137080000000 1.0
C      1  0.4070450000000  0.4746570000000  0.4384960000000 1.0
C      1  0.4053630000000  0.4596190000000  0.5406570000000 1.0
C      1  0.5717350000000  0.5785450000000  0.5689780000000 1.0
C      1  0.5714250000000  0.4001680000000  0.5193190000000 1.0
C      1  0.5667640000000  0.5409220000000  0.4081380000000 1.0
C      1  0.4278020000000  0.4407530000000  0.5686000000000 1.0
C      1  0.4385220000000  0.5994070000000  0.5456410000000 1.0
C      1  0.4335980000000  0.4616480000000  0.4202410000000 1.0
C      1  0.5442130000000  0.4465920000000  0.5087070000000 1.0
C      1  0.5396840000000  0.5131850000000  0.4384670000000 1.0
C      1  0.5365620000000  0.5349170000000  0.5266130000000 1.0
C      1  0.4576910000000  0.5343610000000  0.5113880000000 1.0
C      1  0.4670440000000  0.4888280000000  0.4450230000000 1.0
C      1  0.4627580000000  0.4652810000000  0.5293440000000 1.0
C      1  0.4105650000000  0.5148290000000  0.4907570000000 1.0
C      1  0.4072230000000  0.4870810000000  0.5206920000000 1.0
C      1  0.4091750000000  0.4910610000000  0.4682120000000 1.0
C      1  0.5802920000000  0.4732440000000  0.4955840000000 1.0
C      1  0.5789970000000  0.5108830000000  0.5198080000000 1.0
C      1  0.5889710000000  0.5114600000000  0.4686150000000 1.0
C      1  0.4863800000000  0.3959310000000  0.5268960000000 1.0
C      1  0.4879560000000  0.5326280000000  0.3883200000000 1.0
C      1  0.5010900000000  0.5712920000000  0.5855450000000 1.0
C      1  0.5122260000000  0.6050380000000  0.5276370000000 1.0
C      1  0.5202750000000  0.4874630000000  0.3875000000000 1.0
C      1  0.5167390000000  0.4248640000000  0.5775410000000 1.0
C      1  0.5160530000000  0.5637490000000  0.6146070000000 1.0
C      1  0.5217670000000  0.3869800000000  0.5053180000000 1.0
C      1  0.4999510000000  0.5642200000000  0.4174740000000 1.0
C      1  0.4751950000000  0.4494220000000  0.5940850000000 1.0
C      1  0.4929230000000  0.6214890000000  0.5047510000000 1.0
C      1  0.4814740000000  0.4396810000000  0.4117870000000 1.0
C      1  0.4192900000000  0.5474400000000  0.4227270000000 1.0
C      1  0.4325210000000  0.5514370000000  0.5806200000000 1.0
C      1  0.4334870000000  0.4117380000000  0.4908520000000 1.0
C      1  0.5697770000000  0.4693010000000  0.4349130000000 1.0
C      1  0.5652420000000  0.4667450000000  0.5658950000000 1.0
C      1  0.5784130000000  0.5811670000000  0.4946460000000 1.0
C      1  0.4831580000000  0.4727770000000  0.4193990000000 1.0
C      1  0.4692400000000  0.5809010000000  0.5131360000000 1.0
C      1  0.4687850000000  0.4599410000000  0.5623790000000 1.0
C      1  0.5195810000000  0.5387830000000  0.4286260000000 1.0
C      1  0.5269680000000  0.4205790000000  0.5047410000000 1.0
C      1  0.5372930000000  0.5442310000000  0.5590790000000 1.0
C      1  0.4615510000000  0.5735560000000  0.4324010000000 1.0
C      1  0.4632030000000  0.5164880000000  0.5981020000000 1.0
C      1  0.4675340000000  0.3968360000000  0.4710370000000 1.0
C      1  0.5480060000000  0.4207830000000  0.4328150000000 1.0
C      1  0.5327710000000  0.4773150000000  0.6083180000000 1.0
C      1  0.5468290000000  0.5900900000000  0.4711280000000 1.0
C      1  0.5553410000000  0.6060160000000  0.4971650000000 1.0
C      1  0.5381640000000  0.4573730000000  0.5841970000000 1.0
C      1  0.5455510000000  0.4510850000000  0.4228450000000 1.0
C      1  0.4584370000000  0.3899740000000  0.4991680000000 1.0
C      1  0.4619890000000  0.5451640000000  0.5917060000000 1.0
C      1  0.4494380000000  0.5484040000000  0.4162570000000 1.0
C      1  0.5227710000000  0.5709000000000  0.5639180000000 1.0
C      1  0.5106770000000  0.4153590000000  0.5307500000000 1.0
C      1  0.5144370000000  0.5312270000000  0.3967760000000 1.0
C      1  0.4899990000000  0.4335110000000  0.5596150000000 1.0
C      1  0.4938070000000  0.5798880000000  0.5320550000000 1.0
C      1  0.4910650000000  0.4865650000000  0.3944610000000 1.0
C      1  0.5987930000000  0.5583890000000  0.4937710000000 1.0
C      1  0.5868270000000  0.4908010000000  0.5551720000000 1.0
C      1  0.5858390000000  0.4721580000000  0.4619640000000 1.0
C      1  0.4061390000000  0.4291340000000  0.4886300000000 1.0
C      1  0.4032340000000  0.5566310000000  0.5725590000000 1.0
C      1  0.3949010000000  0.5304400000000  0.4256030000000 1.0
C      1  0.4567720000000  0.4195290000000  0.5143730000000 1.0
C      1  0.4661640000000  0.5189530000000  0.4189300000000 1.0
C      1  0.4585840000000  0.5536610000000  0.5588930000000 1.0
C      1  0.5664650000000  0.5872770000000  0.5234730000000 1.0
C      1  0.5228930000000  0.4743610000000  0.4152360000000 1.0
C      1  0.5362520000000  0.4568600000000  0.5507690000000 1.0
C      1  0.5237910000000  0.6093930000000  0.4972060000000 1.0
C      1  0.5058340000000  0.4548510000000  0.5893620000000 1.0
C      1  0.5116560000000  0.4449110000000  0.4185820000000 1.0
C      1  0.4906990000000  0.3795430000000  0.4982760000000 1.0
C      1  0.4884140000000  0.5467440000000  0.6050750000000 1.0
C      1  0.4768390000000  0.5550970000000  0.4007950000000 1.0
C      1  0.6029980000000  0.5324610000000  0.4378490000000 1.0
C      1  0.5854680000000  0.5197000000000  0.5582680000000 1.0
C      1  0.6097850000000  0.4404490000000  0.5111570000000 1.0
C      1  0.4056740000000  0.4515610000000  0.4634190000000 1.0
C      1  0.4052250000000  0.4859610000000  0.5603500000000 1.0
C      1  0.3893680000000  0.5520450000000  0.5100370000000 1.0
C      1  0.5287200000000  0.5555700000000  0.4938720000000 1.0
C      1  0.5402140000000  0.4939990000000  0.5565730000000 1.0
C      1  0.5211960000000  0.4659880000000  0.4542860000000 1.0
C      1  0.4712870000000  0.4471000000000  0.4895650000000 1.0
C      1  0.4610580000000  0.5143720000000  0.5491030000000 1.0
C      1  0.4629950000000  0.5369770000000  0.4550990000000 1.0
C      1  0.4557440000000  0.5870420000000  0.5622700000000 1.0
C      1  0.4430150000000  0.4210360000000  0.5454460000000 1.0
C      1  0.4489540000000  0.4900060000000  0.4091670000000 1.0
C      1  0.5558010000000  0.4122620000000  0.5425310000000 1.0
C      1  0.5587460000000  0.5947470000000  0.5502550000000 1.0
C      1  0.5584310000000  0.5155870000000  0.3974060000000 1.0
C      1  0.5855660000000  0.4233220000000  0.4988200000000 1.0
C      1  0.5710680000000  0.5372750000000  0.4419340000000 1.0
C      1  0.5675790000000  0.5461100000000  0.5701000000000 1.0
C      1  0.4370570000000  0.5863480000000  0.5172220000000 1.0
C      1  0.4364130000000  0.4525330000000  0.4529020000000 1.0
C      1  0.4366000000000  0.4728740000000  0.5617270000000 1.0
C      1  0.6081870000000  0.4864300000000  0.4812980000000 1.0
C      1  0.5825600000000  0.5313380000000  0.4948390000000 1.0
C      1  0.5780260000000  0.4719410000000  0.5282760000000 1.0
C      1  0.4158560000000  0.5190570000000  0.4500960000000 1.0
C      1  0.4136330000000  0.4596210000000  0.5016950000000 1.0
C      1  0.4149800000000  0.5348620000000  0.5493580000000 1.0
C      1  0.6053760000000  0.4907430000000  0.5208920000000 1.0
C      1  0.6182040000000  0.4661140000000  0.5057780000000 1.0
C      1  0.6163750000000  0.5326870000000  0.4641140000000 1.0
C      1  0.3978510000000  0.5118910000000  0.5394900000000 1.0
C      1  0.3927930000000  0.5237980000000  0.5100650000000 1.0
C      1  0.3863420000000  0.4707760000000  0.4837440000000 1.0
C      1  0.5770800000000  0.4405420000000  0.4515140000000 1.0
C      1  0.5603610000000  0.5549740000000  0.4845420000000 1.0
C      1  0.5600570000000  0.4933140000000  0.5841830000000 1.0
C      1  0.4338530000000  0.5477660000000  0.4530800000000 1.0
C      1  0.4322280000000  0.4216190000000  0.4594290000000 1.0
C      1  0.4350040000000  0.5192170000000  0.5699820000000 1.0
C      1  0.5632160000000  0.5559070000000  0.5243330000000 1.0
C      1  0.5624590000000  0.4428450000000  0.5342340000000 1.0
C      1  0.5633030000000  0.4966130000000  0.4211270000000 1.0
C      1  0.4330920000000  0.4479810000000  0.5277890000000 1.0
C      1  0.4343370000000  0.5504420000000  0.5296110000000 1.0
C      1  0.4345980000000  0.4962360000000  0.4380000000000 1.0
C      1  0.5021220000000  0.6023890000000  0.4712210000000 1.0
C      1  0.4927620000000  0.4840260000000  0.6036760000000 1.0
C      1  0.4988960000000  0.4072020000000  0.4488440000000 1.0
C      1  0.5066170000000  0.3885990000000  0.4692770000000 1.0
C      1  0.5014740000000  0.5160480000000  0.6094420000000 1.0
C      1  0.5020600000000  0.5891310000000  0.4402260000000 1.0
C      1  0.5296110000000  0.4125890000000  0.5534870000000 1.0
C      1  0.5325330000000  0.5127650000000  0.3867000000000 1.0
C      1  0.5309820000000  0.5944090000000  0.5512560000000 1.0
C      1  0.4850640000000  0.5833410000000  0.5612950000000 1.0
C      1  0.4685980000000  0.5069800000000  0.3872000000000 1.0
C      1  0.4733690000000  0.4105480000000  0.5492540000000 1.0
C      1  0.5300170000000  0.5782600000000  0.4241430000000 1.0
C      1  0.5257430000000  0.5366190000000  0.5965360000000 1.0
C      1  0.5379430000000  0.3930390000000  0.4780460000000 1.0
C      1  0.4722370000000  0.4153460000000  0.4311070000000 1.0
C      1  0.4600880000000  0.4767430000000  0.5975430000000 1.0
C      1  0.4719110000000  0.6077750000000  0.4839120000000 1.0
C      1  0.4915840000000  0.4751030000000  0.4641340000000 1.0
C      1  0.4798010000000  0.5432870000000  0.4906040000000 1.0
C      1  0.4908080000000  0.4766410000000  0.5137500000000 1.0
C      1  0.4978110000000  0.5188930000000  0.4773630000000 1.0
C      1  0.5018600000000  0.4577650000000  0.4882940000000 1.0
C      1  0.5033010000000  0.5152420000000  0.5361810000000 1.0
C      1  0.5552000000000  0.5643160000000  0.4295830000000 1.0
C      1  0.5553480000000  0.5355220000000  0.5968200000000 1.0
C      1  0.5667090000000  0.3983610000000  0.4854840000000 1.0
C      1  0.4426170000000  0.4287990000000  0.4215040000000 1.0
C      1  0.4290030000000  0.4658670000000  0.5941220000000 1.0
C      1  0.4424830000000  0.5944350000000  0.4867740000000 1.0
C      1  0.4833900000000  0.5641630000000  0.4538370000000 1.0
C      1  0.4700040000000  0.4983750000000  0.5742940000000 1.0
C      1  0.4656640000000  0.4270550000000  0.4623620000000 1.0
C      1  0.5198230000000  0.4326530000000  0.4476850000000 1.0
C      1  0.5175120000000  0.4922120000000  0.5818260000000 1.0
C      1  0.5194440000000  0.5752160000000  0.4729920000000 1.0
C      1  0.5080200000000  0.5526750000000  0.5214000000000 1.0
C      1  0.5033720000000  0.4568210000000  0.5384000000000 1.0
C      1  0.5142950000000  0.4952830000000  0.4383750000000 1.0
C      1  0.4866090000000  0.4355730000000  0.5177620000000 1.0
C      1  0.4801180000000  0.5401250000000  0.5362940000000 1.0
C      1  0.4878280000000  0.5157370000000  0.4449810000000 1.0
C      1  0.5185830000000  0.4354700000000  0.4803020000000 1.0
C      1  0.5101550000000  0.5452780000000  0.4597860000000 1.0
C      1  0.5137450000000  0.5229130000000  0.5677030000000 1.0
C      1  0.4765400000000  0.5740980000000  0.4831020000000 1.0
C      1  0.4813640000000  0.4515340000000  0.4448230000000 1.0
C      1  0.4946230000000  0.4813030000000  0.5603240000000 1.0
C      1  0.5414940000000  0.4683370000000  0.4757040000000 1.0
C      1  0.5365500000000  0.5225040000000  0.4949260000000 1.0
C      1  0.5350870000000  0.4794580000000  0.5060340000000 1.0
C      1  0.4598190000000  0.5078150000000  0.4722980000000 1.0
C      1  0.4644250000000  0.4810240000000  0.4927240000000 1.0
C      1  0.4584570000000  0.5030820000000  0.5177700000000 1.0
C      1  0.5559720000000  0.5195620000000  0.4668310000000 1.0
C      1  0.5469980000000  0.5025790000000  0.5279430000000 1.0
C      1  0.5654220000000  0.4453280000000  0.4830950000000 1.0
C      1  0.4354510000000  0.4725310000000  0.4792910000000 1.0
C      1  0.4369270000000  0.4871470000000  0.5326550000000 1.0
C      1  0.4360600000000  0.5270460000000  0.4871920000000 1.0
C      1  0.5676510000000  0.5737040000000  0.4568720000000 1.0
C      1  0.5646780000000  0.5110830000000  0.6028210000000 1.0
C      1  0.5835220000000  0.4128130000000  0.4603470000000 1.0
C      1  0.4206450000000  0.4100810000000  0.4309220000000 1.0
C      1  0.4281060000000  0.4994440000000  0.5902310000000 1.0
C      1  0.4334050000000  0.5763470000000  0.4674800000000 1.0
C      1  0.5105420000000  0.5029860000000  0.5050290000000 1.0
END
