TITL C-3289334-2237-181 -0.000127966890363211 125000 -104.30095701152 0 0 20 (C1) n - 1
REM
REM in /nfs/bkarasulu/CARBON/AIRSS/Generating-Clusters/AIREBO/with-SteepDescent/Higher-Symm/SD-CG/HFTN-CG
REM
REM
REM
REM
REM
REM ./C.cell (b20cbc046b6831c77cfcea5457e17084)
REM
REM compiler GCC version 9.2.1 20190827 (Red Hat 9.2.1-1)
REM options -cpp -mtune=generic -march=x86-64 -g -O0 -fpre-include=/usr/include/finclude/math-vector-fortran.h
REM seed 1251893077 948783180 -1371592780 1050167213 876988695 1276079466 -1959854327 -811420550 1328155242 -1528661847 1967144019 -1601898809 -1429509611 214257547 -713857681 -143637432 -94378667 -1973634367 622744232 -1660491871 1966644108 -800125098 58505641 -2066371521 -1526404549 -1067588889 -908612403 168630331 -2033873154 -1881056162 156552466 -1754116990 -574176425
REM
CELL 1.54180   50.00000   50.00000   50.00000   90.00000   90.00000   90.00000
LATT -1
SFAC C  
C      1  0.4747220000000  0.4839210000000  0.5348980000000 1.0
C      1  0.5253450000000  0.4885920000000  0.4683450000000 1.0
C      1  0.4758640000000  0.4828930000000  0.4649700000000 1.0
C      1  0.5243750000000  0.4869530000000  0.5283520000000 1.0
C      1  0.5160370000000  0.4603690000000  0.4829740000000 1.0
C      1  0.4799220000000  0.4625950000000  0.5159250000000 1.0
C      1  0.5113830000000  0.4604780000000  0.5131810000000 1.0
C      1  0.4841570000000  0.4631070000000  0.4843920000000 1.0
C      1  0.4598790000000  0.5036990000000  0.4741420000000 1.0
C      1  0.5439960000000  0.5110350000000  0.5218110000000 1.0
C      1  0.4596300000000  0.5053920000000  0.5255970000000 1.0
C      1  0.5448010000000  0.5124950000000  0.4756650000000 1.0
C      1  0.4995130000000  0.4894060000000  0.5488090000000 1.0
C      1  0.4993350000000  0.4894750000000  0.4491520000000 1.0
C      1  0.5322430000000  0.5325770000000  0.4991880000000 1.0
C      1  0.4724690000000  0.5228920000000  0.4992940000000 1.0
C      1  0.4412030000000  0.5095340000000  0.4996310000000 1.0
C      1  0.5644490000000  0.5090620000000  0.4990270000000 1.0
C      1  0.5014110000000  0.5255670000000  0.4990600000000 1.0
C      1  0.5147440000000  0.4971940000000  0.4983070000000 1.0
END
