TITL C-3289331-6719-345 0.000771625721511066 125000 -1131.18359273045 0 0 196 (C1) n - 1
REM
REM in /nfs/bkarasulu/CARBON/AIRSS/Generating-Clusters/AIREBO/with-SteepDescent/Higher-Symm/SD-CG/HFTN-CG
REM
REM
REM
REM
REM
REM ./C.cell (b20cbc046b6831c77cfcea5457e17084)
REM
REM compiler GCC version 9.2.1 20190827 (Red Hat 9.2.1-1)
REM options -cpp -mtune=generic -march=x86-64 -g -O0 -fpre-include=/usr/include/finclude/math-vector-fortran.h
REM seed 1404227232 1529266608 1809326866 1487375917 -924236059 -859605679 -1260682174 1370746629 1697013205 -733913532 -1613543606 1524627945 -58447029 523452965 977932291 -1505651588 935698486 -816149324 1969228745 1376099615 1778466502 673605459 -741136181 -270411292 1748685564 -746183670 -2090409830 -1242715047 406355671 899027813 -1934864934 1403576990 -883463080
REM
CELL 1.54180   50.00000   50.00000   50.00000   90.00000   90.00000   90.00000
LATT -1
SFAC C  
C      1  0.5631260000000  0.5481670000000  0.4696670000000 1.0
C      1  0.5605550000000  0.4810990000000  0.5594590000000 1.0
C      1  0.4762600000000  0.5596520000000  0.5617310000000 1.0
C      1  0.4438070000000  0.5625860000000  0.5174680000000 1.0
C      1  0.4437570000000  0.4393490000000  0.4777050000000 1.0
C      1  0.5598960000000  0.4419790000000  0.5215420000000 1.0
C      1  0.4384840000000  0.4781280000000  0.4407550000000 1.0
C      1  0.4411830000000  0.5194440000000  0.5564930000000 1.0
C      1  0.5530110000000  0.5264550000000  0.4494720000000 1.0
C      1  0.5149600000000  0.5659880000000  0.4444510000000 1.0
C      1  0.5232770000000  0.4445310000000  0.5580130000000 1.0
C      1  0.4802140000000  0.4427710000000  0.4433300000000 1.0
C      1  0.5261220000000  0.4284500000000  0.4272490000000 1.0
C      1  0.4292400000000  0.4229490000000  0.5231580000000 1.0
C      1  0.4235050000000  0.5243270000000  0.4319040000000 1.0
C      1  0.4789120000000  0.4275900000000  0.5709930000000 1.0
C      1  0.4753210000000  0.5856890000000  0.4079950000000 1.0
C      1  0.5235800000000  0.5737480000000  0.5785790000000 1.0
C      1  0.5825330000000  0.4047400000000  0.4760280000000 1.0
C      1  0.5727230000000  0.5761840000000  0.5258150000000 1.0
C      1  0.4353140000000  0.5836720000000  0.4726250000000 1.0
C      1  0.5779170000000  0.5243850000000  0.5691170000000 1.0
C      1  0.5765950000000  0.4750610000000  0.4175770000000 1.0
C      1  0.4104470000000  0.4755470000000  0.5843740000000 1.0
C      1  0.4872430000000  0.5834460000000  0.5916740000000 1.0
C      1  0.5796160000000  0.5805300000000  0.4863700000000 1.0
C      1  0.5915510000000  0.4894770000000  0.5828570000000 1.0
C      1  0.5148940000000  0.5881800000000  0.4113990000000 1.0
C      1  0.5134760000000  0.4213350000000  0.5890190000000 1.0
C      1  0.4909150000000  0.4214290000000  0.4113800000000 1.0
C      1  0.4127910000000  0.5935320000000  0.5161620000000 1.0
C      1  0.4201350000000  0.4086940000000  0.4874700000000 1.0
C      1  0.5830810000000  0.4100290000000  0.5155200000000 1.0
C      1  0.4094200000000  0.4794710000000  0.4133950000000 1.0
C      1  0.4109090000000  0.5152200000000  0.5820480000000 1.0
C      1  0.5893130000000  0.5048590000000  0.4182870000000 1.0
C      1  0.4908330000000  0.4350150000000  0.4721670000000 1.0
C      1  0.4350030000000  0.4680330000000  0.4923270000000 1.0
C      1  0.4695570000000  0.4916770000000  0.4380860000000 1.0
C      1  0.5128380000000  0.4313600000000  0.5284330000000 1.0
C      1  0.5040520000000  0.5613930000000  0.4743930000000 1.0
C      1  0.4912670000000  0.5695650000000  0.5340130000000 1.0
C      1  0.5627440000000  0.4718500000000  0.5114540000000 1.0
C      1  0.5584580000000  0.5369280000000  0.4968860000000 1.0
C      1  0.4318940000000  0.5329880000000  0.5062430000000 1.0
C      1  0.5307810000000  0.4945390000000  0.5638150000000 1.0
C      1  0.5213400000000  0.5178460000000  0.4427940000000 1.0
C      1  0.4701480000000  0.5114050000000  0.5675820000000 1.0
C      1  0.5141410000000  0.4941930000000  0.6025640000000 1.0
C      1  0.4949040000000  0.6061210000000  0.5184050000000 1.0
C      1  0.5999610000000  0.5111920000000  0.4905780000000 1.0
C      1  0.4875400000000  0.4956580000000  0.3967860000000 1.0
C      1  0.4873580000000  0.5075600000000  0.6031830000000 1.0
C      1  0.5123460000000  0.5127060000000  0.3990510000000 1.0
C      1  0.5100250000000  0.6066300000000  0.4906730000000 1.0
C      1  0.5088540000000  0.3933000000000  0.5135160000000 1.0
C      1  0.4941110000000  0.3913020000000  0.4870230000000 1.0
C      1  0.3940060000000  0.5092620000000  0.5077030000000 1.0
C      1  0.3977450000000  0.4805450000000  0.4962210000000 1.0
C      1  0.5996600000000  0.4861220000000  0.5071690000000 1.0
C      1  0.4678850000000  0.5467140000000  0.4126130000000 1.0
C      1  0.5440610000000  0.4146990000000  0.4727090000000 1.0
C      1  0.4189730000000  0.4677400000000  0.5462660000000 1.0
C      1  0.5351900000000  0.5440090000000  0.5902760000000 1.0
C      1  0.5377020000000  0.4678190000000  0.4116990000000 1.0
C      1  0.4627320000000  0.4611800000000  0.5880630000000 1.0
C      1  0.4618630000000  0.4031270000000  0.5342640000000 1.0
C      1  0.4637400000000  0.5870370000000  0.4589240000000 1.0
C      1  0.5445520000000  0.5921900000000  0.5361300000000 1.0
C      1  0.5835510000000  0.4577450000000  0.4626000000000 1.0
C      1  0.5915460000000  0.5336460000000  0.5393420000000 1.0
C      1  0.4149660000000  0.5372490000000  0.4599220000000 1.0
C      1  0.4101010000000  0.4620170000000  0.4392490000000 1.0
C      1  0.4633220000000  0.4359990000000  0.4147500000000 1.0
C      1  0.4358820000000  0.4130630000000  0.4602050000000 1.0
C      1  0.5875550000000  0.4619180000000  0.5659480000000 1.0
C      1  0.5982760000000  0.5352870000000  0.4250310000000 1.0
C      1  0.4160560000000  0.5401140000000  0.5629520000000 1.0
C      1  0.5409470000000  0.4363610000000  0.5856000000000 1.0
C      1  0.5391050000000  0.5684140000000  0.4204520000000 1.0
C      1  0.4596180000000  0.5669800000000  0.5884130000000 1.0
C      1  0.5650940000000  0.4150110000000  0.5413440000000 1.0
C      1  0.5628550000000  0.5807570000000  0.4596120000000 1.0
C      1  0.4373600000000  0.5886880000000  0.5352560000000 1.0
C      1  0.5553540000000  0.4449490000000  0.4767500000000 1.0
C      1  0.4473170000000  0.4664730000000  0.5592100000000 1.0
C      1  0.4696960000000  0.5609780000000  0.4410960000000 1.0
C      1  0.4457170000000  0.4473300000000  0.5166170000000 1.0
C      1  0.4388110000000  0.5510460000000  0.4796400000000 1.0
C      1  0.5492210000000  0.5563020000000  0.5193520000000 1.0
C      1  0.5532040000000  0.4843730000000  0.4371610000000 1.0
C      1  0.5511110000000  0.5199100000000  0.5538610000000 1.0
C      1  0.4490420000000  0.5158570000000  0.4487130000000 1.0
C      1  0.5152540000000  0.5562490000000  0.5540960000000 1.0
C      1  0.5199820000000  0.4516460000000  0.4436280000000 1.0
C      1  0.4862100000000  0.4418340000000  0.5468140000000 1.0
C      1  0.4743290000000  0.4847220000000  0.4774750000000 1.0
C      1  0.5068410000000  0.4831720000000  0.4749110000000 1.0
C      1  0.4780220000000  0.4738430000000  0.5094750000000 1.0
C      1  0.5246850000000  0.5073040000000  0.5206840000000 1.0
C      1  0.5266540000000  0.5067500000000  0.4722070000000 1.0
C      1  0.4698680000000  0.5051090000000  0.5173840000000 1.0
C      1  0.5073490000000  0.4803500000000  0.5254110000000 1.0
C      1  0.4874060000000  0.5351030000000  0.4760080000000 1.0
C      1  0.4970640000000  0.5187060000000  0.5299680000000 1.0
C      1  0.5156960000000  0.4665880000000  0.4982890000000 1.0
C      1  0.5290350000000  0.5247330000000  0.4961560000000 1.0
C      1  0.4818230000000  0.5330510000000  0.5046740000000 1.0
C      1  0.4428510000000  0.4921440000000  0.4719390000000 1.0
C      1  0.4950180000000  0.4733570000000  0.4445770000000 1.0
C      1  0.4725260000000  0.4422750000000  0.4963250000000 1.0
C      1  0.5557320000000  0.4968900000000  0.5293020000000 1.0
C      1  0.5565260000000  0.4971450000000  0.4664010000000 1.0
C      1  0.4416040000000  0.5097380000000  0.5258870000000 1.0
C      1  0.5079980000000  0.4744170000000  0.5563100000000 1.0
C      1  0.4956520000000  0.5379110000000  0.4431410000000 1.0
C      1  0.4937790000000  0.5305990000000  0.5587500000000 1.0
C      1  0.5323570000000  0.4395230000000  0.5017510000000 1.0
C      1  0.5250750000000  0.5586850000000  0.4963620000000 1.0
C      1  0.4737180000000  0.5621810000000  0.5100560000000 1.0
C      1  0.5395520000000  0.5938080000000  0.5645280000000 1.0
C      1  0.5948510000000  0.5616690000000  0.5350690000000 1.0
C      1  0.5631780000000  0.5389130000000  0.5902080000000 1.0
C      1  0.4670550000000  0.5985400000000  0.4279820000000 1.0
C      1  0.4646600000000  0.4048430000000  0.5612830000000 1.0
C      1  0.5405500000000  0.4099410000000  0.4410700000000 1.0
C      1  0.4092760000000  0.5677540000000  0.4592590000000 1.0
C      1  0.4107120000000  0.4372930000000  0.5401030000000 1.0
C      1  0.5908250000000  0.4271660000000  0.4690720000000 1.0
C      1  0.4388200000000  0.5408490000000  0.4084460000000 1.0
C      1  0.4313180000000  0.4678540000000  0.5957100000000 1.0
C      1  0.5630970000000  0.4638370000000  0.3930360000000 1.0
C      1  0.5942750000000  0.4852700000000  0.4456360000000 1.0
C      1  0.4928090000000  0.4469870000000  0.5952300000000 1.0
C      1  0.4346870000000  0.6009630000000  0.4971410000000 1.0
C      1  0.4020140000000  0.4949140000000  0.5576960000000 1.0
C      1  0.4034380000000  0.5008260000000  0.4332970000000 1.0
C      1  0.6015610000000  0.5049680000000  0.5542780000000 1.0
C      1  0.5101780000000  0.4487890000000  0.4051250000000 1.0
C      1  0.5050010000000  0.5560330000000  0.6008830000000 1.0
C      1  0.4973910000000  0.5603820000000  0.4025860000000 1.0
C      1  0.5576960000000  0.5985990000000  0.5051320000000 1.0
C      1  0.5572220000000  0.3979720000000  0.4977110000000 1.0
C      1  0.4448420000000  0.3977030000000  0.5065310000000 1.0
C      1  0.4855600000000  0.4688520000000  0.3930070000000 1.0
C      1  0.4672620000000  0.3888760000000  0.4825350000000 1.0
C      1  0.3987810000000  0.4913350000000  0.4639870000000 1.0
C      1  0.5171240000000  0.4676830000000  0.6071800000000 1.0
C      1  0.5196890000000  0.5382100000000  0.3953140000000 1.0
C      1  0.4830300000000  0.5338550000000  0.6091540000000 1.0
C      1  0.5351210000000  0.3892550000000  0.5190890000000 1.0
C      1  0.5367490000000  0.6093320000000  0.4849730000000 1.0
C      1  0.4631990000000  0.6020730000000  0.5079980000000 1.0
C      1  0.6082400000000  0.4828700000000  0.5327350000000 1.0
C      1  0.6065510000000  0.5111170000000  0.4641110000000 1.0
C      1  0.3910770000000  0.5160980000000  0.5339030000000 1.0
C      1  0.4101400000000  0.5623110000000  0.5225510000000 1.0
C      1  0.5654750000000  0.5289040000000  0.4207940000000 1.0
C      1  0.5236230000000  0.4106260000000  0.5608590000000 1.0
C      1  0.5941140000000  0.5573120000000  0.4673620000000 1.0
C      1  0.5932260000000  0.4381660000000  0.5260960000000 1.0
C      1  0.4101620000000  0.4375750000000  0.4784340000000 1.0
C      1  0.4401070000000  0.5243640000000  0.5902160000000 1.0
C      1  0.4390880000000  0.4741290000000  0.4068990000000 1.0
C      1  0.5628990000000  0.4767960000000  0.5929310000000 1.0
C      1  0.4778740000000  0.4090310000000  0.4395390000000 1.0
C      1  0.4758780000000  0.5927800000000  0.5627070000000 1.0
C      1  0.5228490000000  0.5978730000000  0.4411270000000 1.0
C      1  0.3976560000000  0.4572240000000  0.4644530000000 1.0
C      1  0.4598940000000  0.4581820000000  0.3983970000000 1.0
C      1  0.4589960000000  0.3972030000000  0.4565800000000 1.0
C      1  0.6034770000000  0.4571940000000  0.5433360000000 1.0
C      1  0.6068650000000  0.5371390000000  0.4518840000000 1.0
C      1  0.4001550000000  0.5428200000000  0.5400070000000 1.0
C      1  0.5438450000000  0.4586260000000  0.6024760000000 1.0
C      1  0.5448020000000  0.5455010000000  0.4062490000000 1.0
C      1  0.4569390000000  0.5427040000000  0.6025460000000 1.0
C      1  0.5425950000000  0.3988570000000  0.5445760000000 1.0
C      1  0.5440780000000  0.6020130000000  0.4587560000000 1.0
C      1  0.4622170000000  0.6035630000000  0.5420040000000 1.0
C      1  0.4834020000000  0.5849260000000  0.4866810000000 1.0
C      1  0.5754540000000  0.4803580000000  0.4839570000000 1.0
C      1  0.4839400000000  0.4846700000000  0.5782200000000 1.0
C      1  0.5185420000000  0.5817540000000  0.5206950000000 1.0
C      1  0.5140540000000  0.4180610000000  0.4827510000000 1.0
C      1  0.4846150000000  0.4170620000000  0.5159540000000 1.0
C      1  0.4227210000000  0.4839240000000  0.5190910000000 1.0
C      1  0.4177330000000  0.5123190000000  0.4828840000000 1.0
C      1  0.5775600000000  0.5185790000000  0.5144940000000 1.0
C      1  0.5160530000000  0.4908030000000  0.4243250000000 1.0
C      1  0.5177450000000  0.5196060000000  0.5802600000000 1.0
C      1  0.4794810000000  0.5175270000000  0.4212350000000 1.0
C      1  0.4602860000000  0.5392060000000  0.4616350000000 1.0
C      1  0.4658460000000  0.4598290000000  0.5370680000000 1.0
C      1  0.5385610000000  0.5435730000000  0.5427250000000 1.0
C      1  0.5428740000000  0.4616260000000  0.4548160000000 1.0
END
