TITL C-3289332-8317-344 0.00298825745610058 125000 -371.89950661174 0 0 69 (C1) n - 1
REM
REM in /nfs/bkarasulu/CARBON/AIRSS/Generating-Clusters/AIREBO/with-SteepDescent/Higher-Symm/SD-CG/HFTN-CG
REM
REM
REM
REM
REM
REM ./C.cell (b20cbc046b6831c77cfcea5457e17084)
REM
REM compiler GCC version 9.2.1 20190827 (Red Hat 9.2.1-1)
REM options -cpp -mtune=generic -march=x86-64 -g -O0 -fpre-include=/usr/include/finclude/math-vector-fortran.h
REM seed -755598292 -1820902526 -115365698 -663373601 927051140 1616649024 1618294914 -1516893972 992419126 -750704021 1233131567 1324286141 2100264565 611447366 1652908508 758144658 1855680623 1506689592 -994732411 273469226 -2050040614 303716637 -1132009779 403189549 -2070612543 787035853 -1615974553 -758584073 -1961830054 1680540108 -920348571 -681310669 2090641608
REM
CELL 1.54180   50.00000   50.00000   50.00000   90.00000   90.00000   90.00000
LATT -1
SFAC C  
C      1  0.4854660000000  0.5652640000000  0.5601330000000 1.0
C      1  0.5762680000000  0.4800300000000  0.5269830000000 1.0
C      1  0.5557550000000  0.4873390000000  0.5792150000000 1.0
C      1  0.4509460000000  0.4633940000000  0.5645600000000 1.0
C      1  0.5030170000000  0.4407590000000  0.5154410000000 1.0
C      1  0.5508890000000  0.4454190000000  0.4936440000000 1.0
C      1  0.5071250000000  0.4858460000000  0.4803810000000 1.0
C      1  0.4765700000000  0.4494310000000  0.4961640000000 1.0
C      1  0.4832720000000  0.5315310000000  0.4891270000000 1.0
C      1  0.5179350000000  0.4613270000000  0.4594440000000 1.0
C      1  0.5133810000000  0.5180270000000  0.4894140000000 1.0
C      1  0.5381120000000  0.5062120000000  0.4674950000000 1.0
C      1  0.5793630000000  0.5030740000000  0.5120640000000 1.0
C      1  0.5022520000000  0.4717610000000  0.5171510000000 1.0
C      1  0.4380750000000  0.4420380000000  0.5744690000000 1.0
C      1  0.4306690000000  0.5287970000000  0.4948150000000 1.0
C      1  0.5529020000000  0.5904190000000  0.5447650000000 1.0
C      1  0.4282430000000  0.4502540000000  0.5129710000000 1.0
C      1  0.5038890000000  0.5507220000000  0.4424450000000 1.0
C      1  0.4629120000000  0.5154140000000  0.4523050000000 1.0
C      1  0.4610270000000  0.4634410000000  0.4508860000000 1.0
C      1  0.4800230000000  0.5523110000000  0.4639780000000 1.0
C      1  0.5212900000000  0.4455670000000  0.5615810000000 1.0
C      1  0.4576780000000  0.5038990000000  0.5460680000000 1.0
C      1  0.4850620000000  0.4223160000000  0.4774680000000 1.0
C      1  0.5307160000000  0.4857570000000  0.5048870000000 1.0
C      1  0.5603970000000  0.5190380000000  0.4497140000000 1.0
C      1  0.5119780000000  0.4994400000000  0.4495960000000 1.0
C      1  0.4451670000000  0.4439910000000  0.4913050000000 1.0
C      1  0.4393800000000  0.4826190000000  0.5466500000000 1.0
C      1  0.4500480000000  0.5076090000000  0.4175040000000 1.0
C      1  0.5486000000000  0.4767560000000  0.5324530000000 1.0
C      1  0.5219280000000  0.4303260000000  0.5394480000000 1.0
C      1  0.5521680000000  0.5434570000000  0.4640310000000 1.0
C      1  0.4588850000000  0.4864060000000  0.4367620000000 1.0
C      1  0.4316070000000  0.4969430000000  0.4966840000000 1.0
C      1  0.4778790000000  0.4705650000000  0.5705080000000 1.0
C      1  0.5729960000000  0.4746080000000  0.4571430000000 1.0
C      1  0.5265080000000  0.4491390000000  0.4330790000000 1.0
C      1  0.4442220000000  0.5383310000000  0.4476310000000 1.0
C      1  0.4675560000000  0.5520160000000  0.5435830000000 1.0
C      1  0.4873460000000  0.4540440000000  0.4642410000000 1.0
C      1  0.5491250000000  0.5688260000000  0.5284230000000 1.0
C      1  0.5579930000000  0.5405370000000  0.4911660000000 1.0
C      1  0.4814350000000  0.4943380000000  0.5320530000000 1.0
C      1  0.4733360000000  0.5518900000000  0.5145380000000 1.0
C      1  0.5449680000000  0.4740670000000  0.4763020000000 1.0
C      1  0.5234460000000  0.5223430000000  0.5217500000000 1.0
C      1  0.5778890000000  0.4981440000000  0.4429450000000 1.0
C      1  0.5231510000000  0.5533080000000  0.5291760000000 1.0
C      1  0.5398850000000  0.4805940000000  0.5578880000000 1.0
C      1  0.5662430000000  0.5606320000000  0.5082920000000 1.0
C      1  0.4385220000000  0.4574190000000  0.4670220000000 1.0
C      1  0.5291900000000  0.5590740000000  0.4581120000000 1.0
C      1  0.5080320000000  0.4768210000000  0.5634600000000 1.0
C      1  0.5110610000000  0.5022440000000  0.5410390000000 1.0
C      1  0.4531610000000  0.5301970000000  0.5524380000000 1.0
C      1  0.5064870000000  0.5627740000000  0.4801360000000 1.0
C      1  0.4621970000000  0.5062420000000  0.4850490000000 1.0
C      1  0.4211530000000  0.4795560000000  0.4722040000000 1.0
C      1  0.5024800000000  0.5617600000000  0.5073880000000 1.0
C      1  0.5341970000000  0.4310820000000  0.5092690000000 1.0
C      1  0.4465420000000  0.5475050000000  0.4979920000000 1.0
C      1  0.4911140000000  0.5218930000000  0.4407200000000 1.0
C      1  0.4742640000000  0.4829600000000  0.5023050000000 1.0
C      1  0.5500770000000  0.5137300000000  0.5046780000000 1.0
C      1  0.5119200000000  0.5592020000000  0.5576850000000 1.0
C      1  0.5041910000000  0.4998300000000  0.4183410000000 1.0
C      1  0.4284420000000  0.4773930000000  0.5214430000000 1.0
END
