TITL C-3289328-6581-108 -0.000333373491381845 125000 -942.195776622465 0 0 176 (C1) n - 1
REM
REM in /nfs/bkarasulu/CARBON/AIRSS/Generating-Clusters/AIREBO/with-SteepDescent/Higher-Symm/SD-CG/HFTN-CG
REM
REM
REM
REM
REM
REM ./C.cell (b20cbc046b6831c77cfcea5457e17084)
REM
REM compiler GCC version 9.2.1 20190827 (Red Hat 9.2.1-1)
REM options -cpp -mtune=generic -march=x86-64 -g -O0 -fpre-include=/usr/include/finclude/math-vector-fortran.h
REM seed -1793659287 1731208363 1902068878 -370290002 -463712887 720556759 1801429700 -1338367500 1159830804 1293985453 -237256929 599452932 1303318984 40634984 153285150 -1070503906 1097095960 -576563173 1299417711 946784774 915810426 -1627443682 -1961684983 -211942936 1806833563 378976777 -1374074035 -868821168 1064046447 1559252850 944033975 124449993 569527611
REM
CELL 1.54180   50.00000   50.00000   50.00000   90.00000   90.00000   90.00000
LATT -1
SFAC C  
C      1  0.5191360000000  0.4283370000000  0.4526460000000 1.0
C      1  0.5711700000000  0.4871140000000  0.5431990000000 1.0
C      1  0.5477380000000  0.5533510000000  0.4644470000000 1.0
C      1  0.4745530000000  0.5652210000000  0.5360360000000 1.0
C      1  0.4280570000000  0.5137680000000  0.4574210000000 1.0
C      1  0.4541320000000  0.4440160000000  0.5389070000000 1.0
C      1  0.5702700000000  0.5636980000000  0.4411780000000 1.0
C      1  0.4877570000000  0.5832080000000  0.5617100000000 1.0
C      1  0.4166420000000  0.5273170000000  0.4283730000000 1.0
C      1  0.4376830000000  0.4347870000000  0.5672030000000 1.0
C      1  0.5173310000000  0.4160190000000  0.4210000000000 1.0
C      1  0.5766650000000  0.4664820000000  0.5698790000000 1.0
C      1  0.4365240000000  0.5414290000000  0.5659280000000 1.0
C      1  0.4428710000000  0.4721660000000  0.4320230000000 1.0
C      1  0.4896800000000  0.4279460000000  0.5566640000000 1.0
C      1  0.5533060000000  0.4644790000000  0.4356140000000 1.0
C      1  0.5590180000000  0.5316300000000  0.5654960000000 1.0
C      1  0.5033470000000  0.5661360000000  0.4292330000000 1.0
C      1  0.5455130000000  0.5048240000000  0.5509300000000 1.0
C      1  0.5198460000000  0.5427220000000  0.4476160000000 1.0
C      1  0.4636380000000  0.5347520000000  0.5465060000000 1.0
C      1  0.4552790000000  0.4934690000000  0.4554600000000 1.0
C      1  0.4828200000000  0.4591320000000  0.5492140000000 1.0
C      1  0.5235100000000  0.4617670000000  0.4481750000000 1.0
C      1  0.6143520000000  0.5064540000000  0.4801580000000 1.0
C      1  0.5512800000000  0.5964720000000  0.5111790000000 1.0
C      1  0.4370810000000  0.5939770000000  0.4865400000000 1.0
C      1  0.3876830000000  0.4924150000000  0.5207980000000 1.0
C      1  0.4397210000000  0.4028530000000  0.4784830000000 1.0
C      1  0.5586170000000  0.4056160000000  0.5209750000000 1.0
C      1  0.5282240000000  0.4723420000000  0.5649830000000 1.0
C      1  0.5300480000000  0.5019650000000  0.4385300000000 1.0
C      1  0.5015350000000  0.5281460000000  0.5565620000000 1.0
C      1  0.4981860000000  0.5019750000000  0.4373750000000 1.0
C      1  0.4790310000000  0.5025270000000  0.5644590000000 1.0
C      1  0.4847260000000  0.4708690000000  0.4401210000000 1.0
C      1  0.4631390000000  0.5148680000000  0.5007100000000 1.0
C      1  0.4699880000000  0.4818440000000  0.5022760000000 1.0
C      1  0.5046350000000  0.4629080000000  0.5008750000000 1.0
C      1  0.5370660000000  0.4834900000000  0.5016530000000 1.0
C      1  0.5304580000000  0.5166670000000  0.4985970000000 1.0
C      1  0.4961690000000  0.5333140000000  0.4961020000000 1.0
C      1  0.4056110000000  0.5564540000000  0.4815850000000 1.0
C      1  0.4032060000000  0.4527010000000  0.5231000000000 1.0
C      1  0.4896400000000  0.3923240000000  0.4722660000000 1.0
C      1  0.5945940000000  0.4444520000000  0.5294690000000 1.0
C      1  0.5920640000000  0.5472710000000  0.4800340000000 1.0
C      1  0.5035890000000  0.6057010000000  0.5215940000000 1.0
C      1  0.5164950000000  0.4373100000000  0.5286620000000 1.0
C      1  0.5637610000000  0.4784470000000  0.4727140000000 1.0
C      1  0.5448920000000  0.5450440000000  0.5225060000000 1.0
C      1  0.4813800000000  0.5610430000000  0.4714220000000 1.0
C      1  0.4275290000000  0.5059790000000  0.5280710000000 1.0
C      1  0.4574180000000  0.4502560000000  0.4808640000000 1.0
C      1  0.5988060000000  0.5137060000000  0.4598640000000 1.0
C      1  0.5370950000000  0.5876350000000  0.5323420000000 1.0
C      1  0.4361260000000  0.5768400000000  0.4661740000000 1.0
C      1  0.4063940000000  0.4868930000000  0.5436170000000 1.0
C      1  0.4595860000000  0.4216650000000  0.4655640000000 1.0
C      1  0.5616290000000  0.4248100000000  0.5401640000000 1.0
C      1  0.5079850000000  0.4325450000000  0.3938770000000 1.0
C      1  0.5646290000000  0.4808310000000  0.5958480000000 1.0
C      1  0.5673260000000  0.5201020000000  0.3755000000000 1.0
C      1  0.4893540000000  0.5656700000000  0.5906170000000 1.0
C      1  0.4492610000000  0.5325030000000  0.4179400000000 1.0
C      1  0.4512170000000  0.4562230000000  0.5900500000000 1.0
C      1  0.5102860000000  0.5271720000000  0.4014270000000 1.0
C      1  0.4755720000000  0.5158170000000  0.6018140000000 1.0
C      1  0.4760490000000  0.4943300000000  0.4050180000000 1.0
C      1  0.5020290000000  0.4760110000000  0.6005860000000 1.0
C      1  0.5187850000000  0.4794620000000  0.4018810000000 1.0
C      1  0.5243170000000  0.5179950000000  0.6017590000000 1.0
C      1  0.4784370000000  0.5739180000000  0.4447180000000 1.0
C      1  0.4101140000000  0.5246060000000  0.5744390000000 1.0
C      1  0.4409810000000  0.4405050000000  0.4263480000000 1.0
C      1  0.5188700000000  0.4236150000000  0.5563410000000 1.0
C      1  0.5723640000000  0.4893130000000  0.4426970000000 1.0
C      1  0.5558020000000  0.5560320000000  0.5480950000000 1.0
C      1  0.5878130000000  0.5192440000000  0.5600310000000 1.0
C      1  0.5273490000000  0.5848150000000  0.4421410000000 1.0
C      1  0.4307250000000  0.5711060000000  0.5599260000000 1.0
C      1  0.4124770000000  0.4814010000000  0.4402440000000 1.0
C      1  0.4702220000000  0.4097130000000  0.5514580000000 1.0
C      1  0.5635110000000  0.4363020000000  0.4455470000000 1.0
C      1  0.4427750000000  0.5772080000000  0.5344150000000 1.0
C      1  0.4056000000000  0.4906640000000  0.4687280000000 1.0
C      1  0.4532090000000  0.4136600000000  0.5235800000000 1.0
C      1  0.5466960000000  0.4231690000000  0.4685610000000 1.0
C      1  0.5936530000000  0.5100250000000  0.5314420000000 1.0
C      1  0.5349630000000  0.5911010000000  0.4677980000000 1.0
C      1  0.4762380000000  0.3998590000000  0.5025960000000 1.0
C      1  0.5871220000000  0.4430320000000  0.4963040000000 1.0
C      1  0.5968670000000  0.5384710000000  0.5125280000000 1.0
C      1  0.5152780000000  0.6041800000000  0.4893810000000 1.0
C      1  0.4249780000000  0.5632710000000  0.5090130000000 1.0
C      1  0.4102040000000  0.4661090000000  0.4920380000000 1.0
C      1  0.4531300000000  0.4870110000000  0.5289320000000 1.0
C      1  0.4871330000000  0.4591300000000  0.4719540000000 1.0
C      1  0.5308340000000  0.4680260000000  0.5313500000000 1.0
C      1  0.5438570000000  0.5058050000000  0.4692950000000 1.0
C      1  0.5116120000000  0.5389150000000  0.5258970000000 1.0
C      1  0.4640330000000  0.5325450000000  0.4731100000000 1.0
C      1  0.5455560000000  0.4885190000000  0.4132000000000 1.0
C      1  0.5274620000000  0.5328790000000  0.5729720000000 1.0
C      1  0.4945490000000  0.5497140000000  0.4043500000000 1.0
C      1  0.4474870000000  0.5108330000000  0.5740930000000 1.0
C      1  0.4684920000000  0.4648780000000  0.4108490000000 1.0
C      1  0.5277290000000  0.4599160000000  0.5966310000000 1.0
C      1  0.4107180000000  0.4328640000000  0.4992450000000 1.0
C      1  0.5101080000000  0.4023540000000  0.5042360000000 1.0
C      1  0.6079590000000  0.4646910000000  0.5074430000000 1.0
C      1  0.5772840000000  0.5662260000000  0.5107990000000 1.0
C      1  0.4843960000000  0.5933340000000  0.4985620000000 1.0
C      1  0.4095660000000  0.5332280000000  0.5050210000000 1.0
C      1  0.4398840000000  0.4727510000000  0.4776030000000 1.0
C      1  0.4897920000000  0.4281010000000  0.5134170000000 1.0
C      1  0.5614330000000  0.4503020000000  0.4828840000000 1.0
C      1  0.5671180000000  0.5279880000000  0.5079530000000 1.0
C      1  0.5076310000000  0.5706570000000  0.4884550000000 1.0
C      1  0.4375630000000  0.5358580000000  0.5247050000000 1.0
C      1  0.5221470000000  0.5068560000000  0.5300790000000 1.0
C      1  0.4954130000000  0.5235580000000  0.4635220000000 1.0
C      1  0.4777720000000  0.5073140000000  0.5321190000000 1.0
C      1  0.4841840000000  0.4929840000000  0.4734540000000 1.0
C      1  0.4996180000000  0.4813810000000  0.5290130000000 1.0
C      1  0.5172520000000  0.4850050000000  0.4723390000000 1.0
C      1  0.4920370000000  0.6093960000000  0.5487500000000 1.0
C      1  0.4038670000000  0.5520930000000  0.4486690000000 1.0
C      1  0.4071010000000  0.4442330000000  0.5547200000000 1.0
C      1  0.5035800000000  0.3985560000000  0.4473680000000 1.0
C      1  0.6012860000000  0.4500140000000  0.5594180000000 1.0
C      1  0.5940130000000  0.5656850000000  0.4588690000000 1.0
C      1  0.5416970000000  0.4972850000000  0.5837780000000 1.0
C      1  0.5360250000000  0.5291590000000  0.4209260000000 1.0
C      1  0.4771370000000  0.5394350000000  0.5773900000000 1.0
C      1  0.4665930000000  0.5110370000000  0.4286350000000 1.0
C      1  0.4790590000000  0.4723690000000  0.5790630000000 1.0
C      1  0.5065140000000  0.4547980000000  0.4195500000000 1.0
C      1  0.4742280000000  0.5553640000000  0.5041720000000 1.0
C      1  0.4340010000000  0.4980250000000  0.4957320000000 1.0
C      1  0.4686400000000  0.4491950000000  0.5099440000000 1.0
C      1  0.5328270000000  0.4439040000000  0.4995870000000 1.0
C      1  0.5678170000000  0.4980170000000  0.5002290000000 1.0
C      1  0.5311030000000  0.5506100000000  0.4926060000000 1.0
C      1  0.4309960000000  0.4664490000000  0.5320620000000 1.0
C      1  0.4920720000000  0.4262150000000  0.4735570000000 1.0
C      1  0.5628000000000  0.4564150000000  0.5309270000000 1.0
C      1  0.5684140000000  0.5266000000000  0.4680560000000 1.0
C      1  0.5068700000000  0.5725260000000  0.5283190000000 1.0
C      1  0.4351780000000  0.5431960000000  0.4712860000000 1.0
C      1  0.5834580000000  0.5147020000000  0.4331120000000 1.0
C      1  0.5422180000000  0.5792060000000  0.5598910000000 1.0
C      1  0.4509960000000  0.5802300000000  0.4394700000000 1.0
C      1  0.4171370000000  0.4950700000000  0.5747830000000 1.0
C      1  0.4607680000000  0.4253180000000  0.4363920000000 1.0
C      1  0.5457910000000  0.4248620000000  0.5638270000000 1.0
C      1  0.5530300000000  0.4457840000000  0.5808490000000 1.0
C      1  0.5670170000000  0.5373530000000  0.4288960000000 1.0
C      1  0.5175960000000  0.5716880000000  0.5734300000000 1.0
C      1  0.4339960000000  0.5552130000000  0.4332590000000 1.0
C      1  0.4260480000000  0.4664090000000  0.5715830000000 1.0
C      1  0.4862470000000  0.4283610000000  0.4271260000000 1.0
C      1  0.4008230000000  0.5049820000000  0.4984530000000 1.0
C      1  0.4300960000000  0.4128200000000  0.5020550000000 1.0
C      1  0.5379750000000  0.4113600000000  0.4986340000000 1.0
C      1  0.6003960000000  0.4926960000000  0.5039150000000 1.0
C      1  0.5598760000000  0.5782060000000  0.4842470000000 1.0
C      1  0.4566400000000  0.5875540000000  0.5068850000000 1.0
C      1  0.4810610000000  0.4450740000000  0.3903060000000 1.0
C      1  0.5548240000000  0.4626140000000  0.6169960000000 1.0
C      1  0.5548900000000  0.5138390000000  0.3969550000000 1.0
C      1  0.5192540000000  0.5514900000000  0.6002550000000 1.0
C      1  0.4680810000000  0.5474920000000  0.3978500000000 1.0
C      1  0.4561420000000  0.4895450000000  0.5974900000000 1.0
C      1  0.5005160000000  0.5030910000000  0.6094440000000 1.0
C      1  0.5014480000000  0.5005620000000  0.3968700000000 1.0
END
