TITL C-3289329-2751-126 0.000530574717986943 125000 -771.300170379144 0 0 142 (C1) n - 1
REM
REM in /nfs/bkarasulu/CARBON/AIRSS/Generating-Clusters/AIREBO/with-SteepDescent/Higher-Symm/SD-CG/HFTN-CG
REM
REM
REM
REM
REM
REM ./C.cell (b20cbc046b6831c77cfcea5457e17084)
REM
REM compiler GCC version 9.2.1 20190827 (Red Hat 9.2.1-1)
REM options -cpp -mtune=generic -march=x86-64 -g -O0 -fpre-include=/usr/include/finclude/math-vector-fortran.h
REM seed 1671685318 32350580 1660070567 -796405905 -1417848651 2126469887 8805703 1820801775 880983619 1523099223 1646782754 893683921 630955248 1137981709 -1403325853 -71511002 -1043076316 -1559329249 -2051520075 1253486140 1562895142 1151744541 -1874359557 -1030371140 359576118 89154470 -503268694 60586276 1876015658 1731295802 1706354636 1950269577 796194741
REM
CELL 1.54180   50.00000   50.00000   50.00000   90.00000   90.00000   90.00000
LATT -1
SFAC C  
C      1  0.5541710000000  0.4730110000000  0.5207360000000 1.0
C      1  0.5577650000000  0.4849940000000  0.4819370000000 1.0
C      1  0.5158640000000  0.4801240000000  0.4460440000000 1.0
C      1  0.4602200000000  0.4839870000000  0.4517850000000 1.0
C      1  0.4400700000000  0.4818250000000  0.5117440000000 1.0
C      1  0.4605830000000  0.4802490000000  0.5519260000000 1.0
C      1  0.5117590000000  0.4755530000000  0.5573480000000 1.0
C      1  0.4587840000000  0.5231800000000  0.4444000000000 1.0
C      1  0.4192000000000  0.5220520000000  0.5015360000000 1.0
C      1  0.4633770000000  0.5193940000000  0.5591680000000 1.0
C      1  0.5209030000000  0.5210330000000  0.5722950000000 1.0
C      1  0.5766380000000  0.5141150000000  0.5334660000000 1.0
C      1  0.5613950000000  0.5182420000000  0.4601870000000 1.0
C      1  0.5208700000000  0.5229580000000  0.4214660000000 1.0
C      1  0.5137890000000  0.5254680000000  0.5247430000000 1.0
C      1  0.5384660000000  0.5263430000000  0.5055970000000 1.0
C      1  0.5297970000000  0.5359240000000  0.4768010000000 1.0
C      1  0.4915460000000  0.5061490000000  0.5143140000000 1.0
C      1  0.4989900000000  0.5229990000000  0.4702800000000 1.0
C      1  0.4752240000000  0.5213010000000  0.4945530000000 1.0
C      1  0.4619320000000  0.5325830000000  0.5304980000000 1.0
C      1  0.4791670000000  0.5581250000000  0.5448760000000 1.0
C      1  0.5066040000000  0.5587110000000  0.5247950000000 1.0
C      1  0.5403070000000  0.5552340000000  0.5219530000000 1.0
C      1  0.5451780000000  0.5632320000000  0.4906200000000 1.0
C      1  0.5017050000000  0.5647310000000  0.4707730000000 1.0
C      1  0.4448070000000  0.5678530000000  0.4832160000000 1.0
C      1  0.4629060000000  0.5508520000000  0.5018380000000 1.0
C      1  0.4416410000000  0.5052090000000  0.4233550000000 1.0
C      1  0.3958800000000  0.4981960000000  0.4977660000000 1.0
C      1  0.4396440000000  0.5044550000000  0.5757160000000 1.0
C      1  0.5260550000000  0.5069760000000  0.6032890000000 1.0
C      1  0.5917520000000  0.4883570000000  0.5469610000000 1.0
C      1  0.5890470000000  0.5007260000000  0.4515890000000 1.0
C      1  0.5114010000000  0.4999480000000  0.3995550000000 1.0
C      1  0.5069710000000  0.5923840000000  0.5283330000000 1.0
C      1  0.5272580000000  0.6047480000000  0.5132480000000 1.0
C      1  0.5324830000000  0.5923220000000  0.4880910000000 1.0
C      1  0.5088140000000  0.5920960000000  0.4717090000000 1.0
C      1  0.4839770000000  0.6052480000000  0.4801610000000 1.0
C      1  0.4658830000000  0.5903730000000  0.4975780000000 1.0
C      1  0.4757640000000  0.5857770000000  0.5240320000000 1.0
C      1  0.5562390000000  0.5545470000000  0.5473060000000 1.0
C      1  0.5685420000000  0.5470970000000  0.4745310000000 1.0
C      1  0.5338000000000  0.5588140000000  0.4334310000000 1.0
C      1  0.4754560000000  0.5511710000000  0.4343230000000 1.0
C      1  0.4175840000000  0.5526200000000  0.4905400000000 1.0
C      1  0.4279980000000  0.5507130000000  0.5496270000000 1.0
C      1  0.5026200000000  0.5494240000000  0.5682600000000 1.0
C      1  0.4865080000000  0.5313680000000  0.5894800000000 1.0
C      1  0.5593310000000  0.5238290000000  0.5615740000000 1.0
C      1  0.5927790000000  0.5321440000000  0.4918600000000 1.0
C      1  0.5496530000000  0.5107480000000  0.4227490000000 1.0
C      1  0.4719520000000  0.5248010000000  0.3885870000000 1.0
C      1  0.4110660000000  0.5321200000000  0.4639450000000 1.0
C      1  0.4108220000000  0.5231030000000  0.5444830000000 1.0
C      1  0.4777120000000  0.4779830000000  0.5242120000000 1.0
C      1  0.5020130000000  0.4573090000000  0.5303560000000 1.0
C      1  0.5165060000000  0.4860940000000  0.5194450000000 1.0
C      1  0.5313690000000  0.4609940000000  0.5022160000000 1.0
C      1  0.5181990000000  0.4782850000000  0.4805840000000 1.0
C      1  0.4881910000000  0.4687990000000  0.4760060000000 1.0
C      1  0.4659530000000  0.4825290000000  0.4925130000000 1.0
C      1  0.4652290000000  0.4870850000000  0.5925150000000 1.0
C      1  0.5655170000000  0.4822450000000  0.5940630000000 1.0
C      1  0.6118920000000  0.4785020000000  0.5032810000000 1.0
C      1  0.5785560000000  0.4697080000000  0.4147050000000 1.0
C      1  0.4872860000000  0.4777600000000  0.3927910000000 1.0
C      1  0.4042990000000  0.4809020000000  0.4448370000000 1.0
C      1  0.3955400000000  0.4744360000000  0.5379490000000 1.0
C      1  0.5449280000000  0.4727150000000  0.5503460000000 1.0
C      1  0.5856080000000  0.4713620000000  0.4829250000000 1.0
C      1  0.5459650000000  0.4713610000000  0.4530790000000 1.0
C      1  0.4673610000000  0.4733980000000  0.4212690000000 1.0
C      1  0.4302080000000  0.4782530000000  0.4667020000000 1.0
C      1  0.4339700000000  0.4643530000000  0.5402670000000 1.0
C      1  0.4930900000000  0.4690640000000  0.5850240000000 1.0
C      1  0.5878920000000  0.4687640000000  0.5227650000000 1.0
C      1  0.5884980000000  0.4714130000000  0.4421280000000 1.0
C      1  0.5093110000000  0.4714630000000  0.4168270000000 1.0
C      1  0.4282340000000  0.4781040000000  0.4269970000000 1.0
C      1  0.4074610000000  0.4722550000000  0.5105240000000 1.0
C      1  0.4409050000000  0.4717620000000  0.5787680000000 1.0
C      1  0.5399770000000  0.4800150000000  0.6039540000000 1.0
C      1  0.4874520000000  0.4412250000000  0.4701770000000 1.0
C      1  0.4727940000000  0.4177110000000  0.4839700000000 1.0
C      1  0.4745620000000  0.4169970000000  0.5114380000000 1.0
C      1  0.4990950000000  0.4266300000000  0.5293750000000 1.0
C      1  0.5304050000000  0.4168510000000  0.5259950000000 1.0
C      1  0.5287190000000  0.4317590000000  0.4967480000000 1.0
C      1  0.5152620000000  0.4245190000000  0.4724550000000 1.0
C      1  0.5230110000000  0.5060070000000  0.5472270000000 1.0
C      1  0.5569340000000  0.5034750000000  0.5105060000000 1.0
C      1  0.5343750000000  0.5046960000000  0.4714780000000 1.0
C      1  0.4912400000000  0.4965450000000  0.4577970000000 1.0
C      1  0.4560300000000  0.5081480000000  0.4724450000000 1.0
C      1  0.4451880000000  0.5127170000000  0.5106390000000 1.0
C      1  0.4859840000000  0.4977330000000  0.5577090000000 1.0
C      1  0.3896960000000  0.5236040000000  0.5187560000000 1.0
C      1  0.4574030000000  0.5384530000000  0.5866870000000 1.0
C      1  0.5463000000000  0.5318320000000  0.5919450000000 1.0
C      1  0.5916610000000  0.5365960000000  0.5199940000000 1.0
C      1  0.5767950000000  0.5260030000000  0.4310360000000 1.0
C      1  0.4993510000000  0.5309990000000  0.3963870000000 1.0
C      1  0.4290920000000  0.5357780000000  0.4401000000000 1.0
C      1  0.4489190000000  0.5606870000000  0.4520530000000 1.0
C      1  0.4085820000000  0.5532370000000  0.5234030000000 1.0
C      1  0.4509250000000  0.5570680000000  0.5637880000000 1.0
C      1  0.5354510000000  0.5574560000000  0.5721790000000 1.0
C      1  0.5855390000000  0.5589200000000  0.5354830000000 1.0
C      1  0.5611080000000  0.5537210000000  0.4419820000000 1.0
C      1  0.5036140000000  0.5584380000000  0.4154770000000 1.0
C      1  0.4464100000000  0.4504180000000  0.4350440000000 1.0
C      1  0.4247240000000  0.4544690000000  0.4871140000000 1.0
C      1  0.4478910000000  0.4446650000000  0.5642580000000 1.0
C      1  0.5245320000000  0.4586610000000  0.5927540000000 1.0
C      1  0.5745100000000  0.4398600000000  0.5295610000000 1.0
C      1  0.5762060000000  0.4467170000000  0.4614610000000 1.0
C      1  0.5166860000000  0.4433130000000  0.4306830000000 1.0
C      1  0.4825590000000  0.4444590000000  0.4306370000000 1.0
C      1  0.4363220000000  0.4370790000000  0.4611310000000 1.0
C      1  0.4318260000000  0.4409050000000  0.5174730000000 1.0
C      1  0.4761530000000  0.4417210000000  0.5731430000000 1.0
C      1  0.5375670000000  0.4469460000000  0.5692340000000 1.0
C      1  0.5782340000000  0.4407120000000  0.4957120000000 1.0
C      1  0.5449620000000  0.4397360000000  0.4504460000000 1.0
C      1  0.4925450000000  0.4166640000000  0.4475140000000 1.0
C      1  0.4487700000000  0.4138280000000  0.4694370000000 1.0
C      1  0.4484920000000  0.4199410000000  0.5220270000000 1.0
C      1  0.4902100000000  0.4225260000000  0.5597890000000 1.0
C      1  0.5506830000000  0.4336670000000  0.5442250000000 1.0
C      1  0.5565260000000  0.4163260000000  0.5034760000000 1.0
C      1  0.5259250000000  0.4127480000000  0.4423650000000 1.0
C      1  0.5653470000000  0.4915640000000  0.5644030000000 1.0
C      1  0.5997190000000  0.5023060000000  0.4816820000000 1.0
C      1  0.5540710000000  0.4831950000000  0.4255810000000 1.0
C      1  0.4617990000000  0.4991650000000  0.3997660000000 1.0
C      1  0.4064890000000  0.5027520000000  0.4689900000000 1.0
C      1  0.4176250000000  0.4912740000000  0.5531450000000 1.0
C      1  0.4955400000000  0.5014190000000  0.5960600000000 1.0
C      1  0.4915150000000  0.5579220000000  0.4965380000000 1.0
C      1  0.5064280000000  0.5425790000000  0.4454240000000 1.0
END
