TITL C-3289328-6581-485 0.000331450952164725 125000 -976.129294600609 0 0 179 (C1) n - 1
REM
REM in /nfs/bkarasulu/CARBON/AIRSS/Generating-Clusters/AIREBO/with-SteepDescent/Higher-Symm/SD-CG/HFTN-CG
REM
REM
REM
REM
REM
REM ./C.cell (b20cbc046b6831c77cfcea5457e17084)
REM
REM compiler GCC version 9.2.1 20190827 (Red Hat 9.2.1-1)
REM options -cpp -mtune=generic -march=x86-64 -g -O0 -fpre-include=/usr/include/finclude/math-vector-fortran.h
REM seed 399508939 1387235881 -1333759515 11188984 1178875909 -1962793828 -144939213 -1545932355 2021826728 291112569 -236656256 -214306487 850406060 341843973 1871761355 -1170434276 -326436924 1327757747 1937586899 114772544 1550555076 -1969022047 879885523 -1122632477 -367817274 -797003894 -1445432277 -772300481 1397877588 1340912260 -97668362 -2074906205 -2098936435
REM
CELL 1.54180   50.00000   50.00000   50.00000   90.00000   90.00000   90.00000
LATT -1
SFAC C  
C      1  0.5538440000000  0.5890250000000  0.4368800000000 1.0
C      1  0.4107100000000  0.4676500000000  0.5414600000000 1.0
C      1  0.4840730000000  0.4242330000000  0.4264330000000 1.0
C      1  0.5513510000000  0.4979250000000  0.5798440000000 1.0
C      1  0.4375480000000  0.4851290000000  0.4139400000000 1.0
C      1  0.4611670000000  0.4740610000000  0.5998520000000 1.0
C      1  0.5337090000000  0.5118730000000  0.4029190000000 1.0
C      1  0.4406930000000  0.4918040000000  0.5682810000000 1.0
C      1  0.5513410000000  0.5463680000000  0.4317790000000 1.0
C      1  0.5207000000000  0.5475550000000  0.4247150000000 1.0
C      1  0.5368310000000  0.5838220000000  0.5048780000000 1.0
C      1  0.5357560000000  0.4580300000000  0.4075160000000 1.0
C      1  0.5918830000000  0.4698200000000  0.4861910000000 1.0
C      1  0.4857390000000  0.5317940000000  0.5436630000000 1.0
C      1  0.4675990000000  0.4899280000000  0.4473140000000 1.0
C      1  0.5573690000000  0.5431990000000  0.5569030000000 1.0
C      1  0.4728490000000  0.6087720000000  0.4601890000000 1.0
C      1  0.5248720000000  0.4006730000000  0.5046490000000 1.0
C      1  0.5679540000000  0.4431800000000  0.4484490000000 1.0
C      1  0.5804320000000  0.4428550000000  0.4992890000000 1.0
C      1  0.5180880000000  0.4818460000000  0.3986960000000 1.0
C      1  0.4665790000000  0.4745030000000  0.4173130000000 1.0
C      1  0.5513570000000  0.4965610000000  0.4569370000000 1.0
C      1  0.4518180000000  0.4464480000000  0.5572370000000 1.0
C      1  0.5110200000000  0.4354030000000  0.4132530000000 1.0
C      1  0.5376870000000  0.5669960000000  0.4551600000000 1.0
C      1  0.4729580000000  0.5776310000000  0.5423190000000 1.0
C      1  0.4823700000000  0.4623330000000  0.6167170000000 1.0
C      1  0.5534330000000  0.4243410000000  0.5520530000000 1.0
C      1  0.6091650000000  0.5097690000000  0.4342530000000 1.0
C      1  0.5230940000000  0.3952710000000  0.5383830000000 1.0
C      1  0.4774650000000  0.4712550000000  0.4708100000000 1.0
C      1  0.3935030000000  0.5157550000000  0.4783330000000 1.0
C      1  0.4095320000000  0.5291840000000  0.5535480000000 1.0
C      1  0.4424970000000  0.4703900000000  0.5121570000000 1.0
C      1  0.4193780000000  0.4471790000000  0.5171190000000 1.0
C      1  0.4744800000000  0.4518280000000  0.4985540000000 1.0
C      1  0.5782740000000  0.5187780000000  0.5332230000000 1.0
C      1  0.4595820000000  0.5893070000000  0.5713160000000 1.0
C      1  0.4457120000000  0.5652010000000  0.4684970000000 1.0
C      1  0.5439600000000  0.4628960000000  0.5378960000000 1.0
C      1  0.4413260000000  0.4194320000000  0.5503880000000 1.0
C      1  0.4594180000000  0.5727240000000  0.4318430000000 1.0
C      1  0.5476830000000  0.4261730000000  0.4281500000000 1.0
C      1  0.5629010000000  0.5271710000000  0.4061390000000 1.0
C      1  0.5501410000000  0.3961420000000  0.4673360000000 1.0
C      1  0.5072610000000  0.4608300000000  0.4350550000000 1.0
C      1  0.4327190000000  0.4201420000000  0.5241380000000 1.0
C      1  0.4683050000000  0.4591710000000  0.5312410000000 1.0
C      1  0.4979040000000  0.5501080000000  0.6018960000000 1.0
C      1  0.5767060000000  0.4404490000000  0.5330750000000 1.0
C      1  0.5797790000000  0.5788600000000  0.4445810000000 1.0
C      1  0.5008980000000  0.4929650000000  0.4258550000000 1.0
C      1  0.5743540000000  0.5264550000000  0.4442690000000 1.0
C      1  0.5186760000000  0.3896760000000  0.4660220000000 1.0
C      1  0.4231940000000  0.5214500000000  0.4325290000000 1.0
C      1  0.5121920000000  0.4964290000000  0.6080340000000 1.0
C      1  0.4027930000000  0.4990880000000  0.5390970000000 1.0
C      1  0.4654140000000  0.5537440000000  0.5851540000000 1.0
C      1  0.5102190000000  0.5592680000000  0.5593270000000 1.0
C      1  0.4358720000000  0.5129700000000  0.4096850000000 1.0
C      1  0.5226060000000  0.4160980000000  0.5638030000000 1.0
C      1  0.5100180000000  0.5331940000000  0.3989460000000 1.0
C      1  0.5523350000000  0.5849810000000  0.5325890000000 1.0
C      1  0.5602280000000  0.5085570000000  0.5086980000000 1.0
C      1  0.4855040000000  0.4069000000000  0.5046020000000 1.0
C      1  0.4895740000000  0.5742750000000  0.5785450000000 1.0
C      1  0.4670400000000  0.4131150000000  0.4540420000000 1.0
C      1  0.5165770000000  0.5000240000000  0.5326120000000 1.0
C      1  0.4131510000000  0.4909210000000  0.4658620000000 1.0
C      1  0.4084160000000  0.5296700000000  0.4576200000000 1.0
C      1  0.4405220000000  0.4627810000000  0.4583220000000 1.0
C      1  0.5709480000000  0.5166440000000  0.5660520000000 1.0
C      1  0.4822090000000  0.5263820000000  0.4037230000000 1.0
C      1  0.5447340000000  0.4474250000000  0.5746270000000 1.0
C      1  0.5136630000000  0.6027010000000  0.4959810000000 1.0
C      1  0.6124800000000  0.5079420000000  0.5163360000000 1.0
C      1  0.4807830000000  0.5791700000000  0.4164890000000 1.0
C      1  0.5081600000000  0.5272650000000  0.4971790000000 1.0
C      1  0.4869740000000  0.4729940000000  0.3943390000000 1.0
C      1  0.5696700000000  0.5632870000000  0.5385520000000 1.0
C      1  0.4081350000000  0.4304670000000  0.4714990000000 1.0
C      1  0.4671440000000  0.5095840000000  0.4750630000000 1.0
C      1  0.5679430000000  0.4251400000000  0.4754730000000 1.0
C      1  0.5123740000000  0.5283550000000  0.4464500000000 1.0
C      1  0.5081200000000  0.5749340000000  0.4294520000000 1.0
C      1  0.5083860000000  0.5254440000000  0.5623870000000 1.0
C      1  0.4377100000000  0.4298460000000  0.4603830000000 1.0
C      1  0.5630350000000  0.4690700000000  0.5732420000000 1.0
C      1  0.4393470000000  0.5252570000000  0.5668650000000 1.0
C      1  0.4215430000000  0.4769490000000  0.4363450000000 1.0
C      1  0.4264460000000  0.5674390000000  0.4964820000000 1.0
C      1  0.4871370000000  0.4896530000000  0.4958030000000 1.0
C      1  0.4996240000000  0.4180610000000  0.5300770000000 1.0
C      1  0.5321600000000  0.4489670000000  0.5020700000000 1.0
C      1  0.5276910000000  0.5161540000000  0.4715300000000 1.0
C      1  0.5086290000000  0.4685550000000  0.6078300000000 1.0
C      1  0.5583040000000  0.4650420000000  0.4242370000000 1.0
C      1  0.4868320000000  0.5691260000000  0.5124610000000 1.0
C      1  0.5283540000000  0.4381680000000  0.4491340000000 1.0
C      1  0.5267610000000  0.5391650000000  0.5993170000000 1.0
C      1  0.4715540000000  0.5286280000000  0.6027020000000 1.0
C      1  0.4906480000000  0.4447600000000  0.4599970000000 1.0
C      1  0.4509010000000  0.5061030000000  0.5947820000000 1.0
C      1  0.5917640000000  0.5483480000000  0.5240700000000 1.0
C      1  0.4582800000000  0.3985690000000  0.5577640000000 1.0
C      1  0.4363840000000  0.5694480000000  0.5284390000000 1.0
C      1  0.5282740000000  0.4828930000000  0.5595410000000 1.0
C      1  0.4547070000000  0.5925090000000  0.5163690000000 1.0
C      1  0.5351480000000  0.4900310000000  0.5099110000000 1.0
C      1  0.5342360000000  0.4235490000000  0.4796740000000 1.0
C      1  0.5475920000000  0.5326650000000  0.4936120000000 1.0
C      1  0.4875400000000  0.5119980000000  0.5195020000000 1.0
C      1  0.5872500000000  0.4941860000000  0.5029890000000 1.0
C      1  0.4951380000000  0.4133960000000  0.4724180000000 1.0
C      1  0.5737340000000  0.5500710000000  0.4888350000000 1.0
C      1  0.4006450000000  0.5585150000000  0.4953170000000 1.0
C      1  0.5152150000000  0.5710080000000  0.5278050000000 1.0
C      1  0.4600800000000  0.5440430000000  0.4457720000000 1.0
C      1  0.4947490000000  0.5907630000000  0.4762680000000 1.0
C      1  0.3902000000000  0.5326240000000  0.5006670000000 1.0
C      1  0.4915140000000  0.4638100000000  0.5564060000000 1.0
C      1  0.5755540000000  0.4100510000000  0.5212990000000 1.0
C      1  0.5127450000000  0.4487160000000  0.5368300000000 1.0
C      1  0.6008240000000  0.5221450000000  0.4651960000000 1.0
C      1  0.5346320000000  0.5981800000000  0.5498180000000 1.0
C      1  0.5353400000000  0.5118050000000  0.6034330000000 1.0
C      1  0.4536880000000  0.5087530000000  0.5207310000000 1.0
C      1  0.3878400000000  0.5257380000000  0.5275550000000 1.0
C      1  0.5155750000000  0.4588150000000  0.5799250000000 1.0
C      1  0.4301910000000  0.4663320000000  0.5613480000000 1.0
C      1  0.4633250000000  0.4991440000000  0.5486090000000 1.0
C      1  0.4323830000000  0.5752580000000  0.5581250000000 1.0
C      1  0.5766620000000  0.4689310000000  0.5450960000000 1.0
C      1  0.5354980000000  0.5514750000000  0.5758760000000 1.0
C      1  0.4063390000000  0.4766840000000  0.4934990000000 1.0
C      1  0.4418790000000  0.4312990000000  0.4210320000000 1.0
C      1  0.5589640000000  0.4665570000000  0.5086780000000 1.0
C      1  0.4604180000000  0.5475510000000  0.5520960000000 1.0
C      1  0.5912520000000  0.5151750000000  0.4100260000000 1.0
C      1  0.5508530000000  0.5708040000000  0.4822950000000 1.0
C      1  0.4907760000000  0.5064690000000  0.5926520000000 1.0
C      1  0.5043910000000  0.5643220000000  0.4615990000000 1.0
C      1  0.4518990000000  0.5935890000000  0.4512930000000 1.0
C      1  0.5296270000000  0.5966580000000  0.4246620000000 1.0
C      1  0.4874110000000  0.5369670000000  0.4739760000000 1.0
C      1  0.4131210000000  0.5581580000000  0.5684740000000 1.0
C      1  0.4901240000000  0.4967600000000  0.5622500000000 1.0
C      1  0.5443130000000  0.4223180000000  0.5193410000000 1.0
C      1  0.5198470000000  0.4601190000000  0.4726970000000 1.0
C      1  0.4600570000000  0.4288170000000  0.4833960000000 1.0
C      1  0.4228190000000  0.4954690000000  0.5155300000000 1.0
C      1  0.4728420000000  0.4486670000000  0.5804540000000 1.0
C      1  0.5802030000000  0.5555660000000  0.4584090000000 1.0
C      1  0.4724210000000  0.5445830000000  0.5011460000000 1.0
C      1  0.5273140000000  0.5424300000000  0.5173100000000 1.0
C      1  0.4491350000000  0.5402790000000  0.5208560000000 1.0
C      1  0.4852760000000  0.4047770000000  0.5559170000000 1.0
C      1  0.5025250000000  0.3801420000000  0.4923270000000 1.0
C      1  0.5180110000000  0.4880640000000  0.4842700000000 1.0
C      1  0.5321540000000  0.4971460000000  0.4323640000000 1.0
C      1  0.5022080000000  0.4625470000000  0.5107030000000 1.0
C      1  0.5956170000000  0.4917180000000  0.5410260000000 1.0
C      1  0.5027580000000  0.6165300000000  0.5175900000000 1.0
C      1  0.4017100000000  0.4472590000000  0.4918430000000 1.0
C      1  0.5991930000000  0.5313480000000  0.4955330000000 1.0
C      1  0.4659460000000  0.5820390000000  0.4889430000000 1.0
C      1  0.5720370000000  0.4717090000000  0.4609680000000 1.0
C      1  0.4519560000000  0.4095440000000  0.5063950000000 1.0
C      1  0.5991030000000  0.4896300000000  0.4594670000000 1.0
C      1  0.4818190000000  0.5189520000000  0.4367400000000 1.0
C      1  0.4647180000000  0.4494870000000  0.4384600000000 1.0
C      1  0.4559390000000  0.5250090000000  0.3938150000000 1.0
C      1  0.5012010000000  0.5976710000000  0.5435920000000 1.0
C      1  0.5338130000000  0.5273080000000  0.5433280000000 1.0
C      1  0.4429920000000  0.4867500000000  0.4823320000000 1.0
C      1  0.4960920000000  0.4242200000000  0.5761630000000 1.0
C      1  0.5715000000000  0.4959310000000  0.4295420000000 1.0
C      1  0.4402260000000  0.5261990000000  0.4625760000000 1.0
END
