TITL C-3289322-3858-229 -0.00233529970246049 125000 -361.751078166259 0 0 67 (C5) n - 1
REM
REM in /nfs/bkarasulu/CARBON/AIRSS/Generating-Clusters/AIREBO/with-SteepDescent/Higher-Symm/SD-CG/HFTN-CG
REM
REM
REM
REM
REM
REM ./C.cell (b20cbc046b6831c77cfcea5457e17084)
REM
REM compiler GCC version 9.2.1 20190827 (Red Hat 9.2.1-1)
REM options -cpp -mtune=generic -march=x86-64 -g -O0 -fpre-include=/usr/include/finclude/math-vector-fortran.h
REM seed 1111727094 -1856458760 -2054336775 455181470 1141361360 -2004559483 -835831364 1022043520 -695229685 -202210229 778865076 -187558778 -1755742339 -811562772 217745152 -1388743753 -611598006 -687719576 -296760550 62238591 1207099393 589632164 -495592233 -1478508544 1866373488 1219489631 -1141678912 457165592 -579567010 1870521757 1749837738 697515360 -1628790979
REM
CELL 1.54180   50.00000   50.00000   50.00000   90.00000   90.00000   90.00000
LATT -1
SFAC C  
C      1  0.4859960000000  0.4797730000000  0.5764010000000 1.0
C      1  0.4768760000000  0.5073840000000  0.5764000000000 1.0
C      1  0.5003190000000  0.5245910000000  0.5764010000000 1.0
C      1  0.5239270000000  0.5076130000000  0.5764010000000 1.0
C      1  0.5150750000000  0.4799140000000  0.5764010000000 1.0
C      1  0.4772080000000  0.4846440000000  0.4239390000000 1.0
C      1  0.4787960000000  0.5172470000000  0.4239380000000 1.0
C      1  0.5102950000000  0.5258120000000  0.4239390000000 1.0
C      1  0.5281740000000  0.4985020000000  0.4239390000000 1.0
C      1  0.5077250000000  0.4730590000000  0.4239390000000 1.0
C      1  0.5329160000000  0.4387400000000  0.5173360000000 1.0
C      1  0.4523510000000  0.4500800000000  0.5173360000000 1.0
C      1  0.4382440000000  0.5302060000000  0.5173330000000 1.0
C      1  0.5100870000000  0.5683870000000  0.5173360000000 1.0
C      1  0.5685980000000  0.5118560000000  0.5173360000000 1.0
C      1  0.5416500000000  0.4366940000000  0.4872920000000 1.0
C      1  0.4531060000000  0.4411420000000  0.4872920000000 1.0
C      1  0.4299740000000  0.5267270000000  0.4872890000000 1.0
C      1  0.5042230000000  0.5751740000000  0.4872910000000 1.0
C      1  0.5732430000000  0.5195300000000  0.4872910000000 1.0
C      1  0.4591670000000  0.5342350000000  0.5391320000000 1.0
C      1  0.5203840000000  0.5497330000000  0.5391350000000 1.0
C      1  0.5540380000000  0.4962990000000  0.5391340000000 1.0
C      1  0.5136200000000  0.4477800000000  0.5391350000000 1.0
C      1  0.4549860000000  0.4712250000000  0.5391350000000 1.0
C      1  0.4478190000000  0.5367280000000  0.4647870000000 1.0
C      1  0.5192490000000  0.5612930000000  0.4647880000000 1.0
C      1  0.5646850000000  0.5009500000000  0.4647890000000 1.0
C      1  0.5213360000000  0.4390920000000  0.4647890000000 1.0
C      1  0.4491090000000  0.4612030000000  0.4647880000000 1.0
C      1  0.4774530000000  0.5246800000000  0.5120890000000 1.0
C      1  0.5169490000000  0.5293890000000  0.5120920000000 1.0
C      1  0.5336290000000  0.4932800000000  0.5120910000000 1.0
C      1  0.5044430000000  0.4662570000000  0.5120910000000 1.0
C      1  0.4697220000000  0.4856630000000  0.5120910000000 1.0
C      1  0.4718070000000  0.5179260000000  0.4794300000000 1.0
C      1  0.5087800000000  0.5326700000000  0.4794320000000 1.0
C      1  0.5342260000000  0.5020620000000  0.4794310000000 1.0
C      1  0.5129800000000  0.4684020000000  0.4794320000000 1.0
C      1  0.4744020000000  0.4782070000000  0.4794320000000 1.0
C      1  0.5283700000000  0.4675700000000  0.4488870000000 1.0
C      1  0.4783680000000  0.4633130000000  0.4488870000000 1.0
C      1  0.4588670000000  0.5095530000000  0.4488850000000 1.0
C      1  0.4968180000000  0.5423870000000  0.4488870000000 1.0
C      1  0.5397740000000  0.5164410000000  0.4488860000000 1.0
C      1  0.5295090000000  0.4615540000000  0.5607970000000 1.0
C      1  0.4729950000000  0.4603710000000  0.5607980000000 1.0
C      1  0.4544080000000  0.5137530000000  0.5607950000000 1.0
C      1  0.4994330000000  0.5479280000000  0.5607970000000 1.0
C      1  0.5458480000000  0.5156670000000  0.5607970000000 1.0
C      1  0.5463070000000  0.5418400000000  0.5533410000000 1.0
C      1  0.5545430000000  0.4692060000000  0.5533400000000 1.0
C      1  0.4880090000000  0.4389270000000  0.5533400000000 1.0
C      1  0.4386520000000  0.4928480000000  0.5533390000000 1.0
C      1  0.4746820000000  0.5564520000000  0.5533380000000 1.0
C      1  0.5357140000000  0.5458610000000  0.4415460000000 1.0
C      1  0.5550960000000  0.4805220000000  0.4415470000000 1.0
C      1  0.4989440000000  0.4418980000000  0.4415470000000 1.0
C      1  0.4448590000000  0.4833660000000  0.4415460000000 1.0
C      1  0.4675850000000  0.5476180000000  0.4415460000000 1.0
C      1  0.4437040000000  0.5024480000000  0.5032650000000 1.0
C      1  0.4853750000000  0.5546140000000  0.5032680000000 1.0
C      1  0.4804390000000  0.4466970000000  0.5032680000000 1.0
C      1  0.5478650000000  0.5311030000000  0.5032660000000 1.0
C      1  0.5448140000000  0.4644070000000  0.5032680000000 1.0
C      1  0.5004380000000  0.4998550000000  0.5157800000000 1.0
C      1  0.5004390000000  0.4998540000000  0.4761280000000 1.0
END
