TITL C-3289322-3858-284 2.27851491680751e-07 125000 -187.18970032113 0 0 33 (C1) n - 1
REM
REM in /nfs/bkarasulu/CARBON/AIRSS/Generating-Clusters/AIREBO/with-SteepDescent/Higher-Symm/SD-CG/HFTN-CG
REM
REM
REM
REM
REM
REM ./C.cell (b20cbc046b6831c77cfcea5457e17084)
REM
REM compiler GCC version 9.2.1 20190827 (Red Hat 9.2.1-1)
REM options -cpp -mtune=generic -march=x86-64 -g -O0 -fpre-include=/usr/include/finclude/math-vector-fortran.h
REM seed -872721503 1961286228 -2069201602 1272015872 -377451415 1094986717 2130353557 72235977 -1065931655 970459067 -235981477 911815179 505409687 1384386676 397131145 1735005814 -236640758 2104999998 1562742533 -1392966949 -481812698 219640724 -348457091 -1962562202 -1180398272 -567413706 -1263066365 916546104 1355747983 1205589432 -1028906252 -572880873 -337702473
REM
CELL 1.54180   50.00000   50.00000   50.00000   90.00000   90.00000   90.00000
LATT -1
SFAC C  
C      1  0.4895390000000  0.5093860000000  0.5429850000000 1.0
C      1  0.4772810000000  0.4493270000000  0.4857410000000 1.0
C      1  0.4905990000000  0.5227700000000  0.4557280000000 1.0
C      1  0.4586140000000  0.5526600000000  0.5039920000000 1.0
C      1  0.4470830000000  0.5290190000000  0.4969660000000 1.0
C      1  0.4709760000000  0.4964590000000  0.5266410000000 1.0
C      1  0.4703160000000  0.4747730000000  0.4803400000000 1.0
C      1  0.4808850000000  0.5017900000000  0.4693320000000 1.0
C      1  0.5337060000000  0.5228130000000  0.5328420000000 1.0
C      1  0.5143840000000  0.4436640000000  0.5153060000000 1.0
C      1  0.5270070000000  0.3816300000000  0.4585320000000 1.0
C      1  0.4950270000000  0.5807330000000  0.4884700000000 1.0
C      1  0.5591090000000  0.4485720000000  0.5307000000000 1.0
C      1  0.5453020000000  0.3995500000000  0.4981930000000 1.0
C      1  0.5272280000000  0.6095830000000  0.4676090000000 1.0
C      1  0.5452280000000  0.5694730000000  0.5242080000000 1.0
C      1  0.4988720000000  0.4056550000000  0.4887140000000 1.0
C      1  0.5093840000000  0.5717090000000  0.4438480000000 1.0
C      1  0.4987770000000  0.5550470000000  0.5298930000000 1.0
C      1  0.5251560000000  0.4759070000000  0.5507070000000 1.0
C      1  0.5243420000000  0.3953750000000  0.4816530000000 1.0
C      1  0.5109150000000  0.5881220000000  0.4668020000000 1.0
C      1  0.5270120000000  0.5502260000000  0.5287570000000 1.0
C      1  0.5331440000000  0.4561590000000  0.5316110000000 1.0
C      1  0.4836750000000  0.5648000000000  0.5081730000000 1.0
C      1  0.5170930000000  0.5019100000000  0.5424770000000 1.0
C      1  0.4969350000000  0.4327350000000  0.4965460000000 1.0
C      1  0.5037130000000  0.5448300000000  0.4483070000000 1.0
C      1  0.5250660000000  0.4696220000000  0.5770380000000 1.0
C      1  0.4769360000000  0.3899150000000  0.4878320000000 1.0
C      1  0.5128530000000  0.5818060000000  0.4190900000000 1.0
C      1  0.4855410000000  0.5371500000000  0.5477140000000 1.0
C      1  0.4624080000000  0.5021180000000  0.4974520000000 1.0
END
