TITL C-3289320-4661-636 -0.000151884189138417 125000 -780.655103135076 0 0 150 (C1) n - 1
REM
REM in /nfs/bkarasulu/CARBON/AIRSS/Generating-Clusters/AIREBO/with-SteepDescent/Higher-Symm/SD-CG/HFTN-CG
REM
REM
REM
REM
REM
REM ./C.cell (b20cbc046b6831c77cfcea5457e17084)
REM
REM compiler GCC version 9.2.1 20190827 (Red Hat 9.2.1-1)
REM options -cpp -mtune=generic -march=x86-64 -g -O0 -fpre-include=/usr/include/finclude/math-vector-fortran.h
REM seed -485783649 -1813022042 1894471392 1608469196 -778500283 1316746365 -1973097219 -1985253682 264617621 1277100234 -1916245438 -757710933 644579279 -1743699088 -294292367 1921057725 -255708107 340770014 1440234969 -2143314092 -616238880 -1479267439 371575982 -871476585 97984083 1314527507 973028394 -424909848 1904878916 -19911232 -1591223386 -698802689 -900390879
REM
CELL 1.54180   50.00000   50.00000   50.00000   90.00000   90.00000   90.00000
LATT -1
SFAC C  
C      1  0.5536830000000  0.4855520000000  0.4709280000000 1.0
C      1  0.4773920000000  0.4476290000000  0.4761100000000 1.0
C      1  0.4436920000000  0.5225140000000  0.4722000000000 1.0
C      1  0.5214330000000  0.5513250000000  0.4645500000000 1.0
C      1  0.5542600000000  0.5093410000000  0.5331470000000 1.0
C      1  0.4737980000000  0.5561560000000  0.5481920000000 1.0
C      1  0.4457090000000  0.4867490000000  0.5288930000000 1.0
C      1  0.5118240000000  0.4459520000000  0.5308390000000 1.0
C      1  0.5381960000000  0.4385360000000  0.4141650000000 1.0
C      1  0.4449250000000  0.4692070000000  0.4122270000000 1.0
C      1  0.4618220000000  0.5547400000000  0.4169210000000 1.0
C      1  0.5511560000000  0.5353420000000  0.4105780000000 1.0
C      1  0.5399090000000  0.5579840000000  0.5791590000000 1.0
C      1  0.4421260000000  0.5354360000000  0.5918010000000 1.0
C      1  0.4556000000000  0.4372140000000  0.5722210000000 1.0
C      1  0.5467240000000  0.4658110000000  0.5856970000000 1.0
C      1  0.5313530000000  0.6055130000000  0.5027420000000 1.0
C      1  0.6027780000000  0.4745180000000  0.4927970000000 1.0
C      1  0.4765280000000  0.4015880000000  0.4919270000000 1.0
C      1  0.3983880000000  0.5236730000000  0.4950130000000 1.0
C      1  0.5252730000000  0.4203350000000  0.5129710000000 1.0
C      1  0.5966020000000  0.5274800000000  0.5071420000000 1.0
C      1  0.4647060000000  0.5995420000000  0.4948450000000 1.0
C      1  0.4187550000000  0.4753840000000  0.5115530000000 1.0
C      1  0.4012680000000  0.5475160000000  0.4537450000000 1.0
C      1  0.5412910000000  0.5984900000000  0.4550500000000 1.0
C      1  0.5808930000000  0.4674900000000  0.4693080000000 1.0
C      1  0.4538620000000  0.4098720000000  0.4496960000000 1.0
C      1  0.4054320000000  0.4538910000000  0.5421360000000 1.0
C      1  0.5432380000000  0.4055860000000  0.5451850000000 1.0
C      1  0.5875630000000  0.5463680000000  0.5409570000000 1.0
C      1  0.4593810000000  0.5830640000000  0.5403530000000 1.0
C      1  0.5221000000000  0.4519600000000  0.4360840000000 1.0
C      1  0.4524820000000  0.4824530000000  0.4402990000000 1.0
C      1  0.4810050000000  0.5445550000000  0.4389810000000 1.0
C      1  0.5514960000000  0.5190620000000  0.4380120000000 1.0
C      1  0.5206380000000  0.5464490000000  0.5575150000000 1.0
C      1  0.4505220000000  0.5181620000000  0.5674140000000 1.0
C      1  0.4797840000000  0.4548110000000  0.5599430000000 1.0
C      1  0.5417390000000  0.4806210000000  0.5578840000000 1.0
C      1  0.5496070000000  0.4392370000000  0.4879040000000 1.0
C      1  0.4419360000000  0.4690890000000  0.4797040000000 1.0
C      1  0.4655950000000  0.5546680000000  0.4814820000000 1.0
C      1  0.5465100000000  0.5527890000000  0.4868600000000 1.0
C      1  0.5387490000000  0.5597730000000  0.5164690000000 1.0
C      1  0.4508010000000  0.5406350000000  0.5065950000000 1.0
C      1  0.4516300000000  0.4538880000000  0.5059390000000 1.0
C      1  0.5539790000000  0.4516390000000  0.5176090000000 1.0
C      1  0.5848510000000  0.4551340000000  0.5417560000000 1.0
C      1  0.4549320000000  0.4139870000000  0.5388110000000 1.0
C      1  0.4138630000000  0.5411890000000  0.5377540000000 1.0
C      1  0.5422650000000  0.5917720000000  0.5392830000000 1.0
C      1  0.5869680000000  0.5509640000000  0.4595140000000 1.0
C      1  0.4555560000000  0.5848880000000  0.4576020000000 1.0
C      1  0.4111830000000  0.4555990000000  0.4581330000000 1.0
C      1  0.5436510000000  0.4142880000000  0.4674750000000 1.0
C      1  0.4760930000000  0.4933140000000  0.4187970000000 1.0
C      1  0.4966360000000  0.5181420000000  0.4243320000000 1.0
C      1  0.5272640000000  0.5042120000000  0.4193330000000 1.0
C      1  0.5068970000000  0.4796670000000  0.4235450000000 1.0
C      1  0.4785900000000  0.5031100000000  0.5793800000000 1.0
C      1  0.4926670000000  0.4727660000000  0.5826990000000 1.0
C      1  0.5187580000000  0.4936690000000  0.5793160000000 1.0
C      1  0.5038090000000  0.5232960000000  0.5758900000000 1.0
C      1  0.4536620000000  0.4228910000000  0.4811060000000 1.0
C      1  0.4195220000000  0.5446600000000  0.4822870000000 1.0
C      1  0.5521500000000  0.5919460000000  0.4830410000000 1.0
C      1  0.5893670000000  0.4433290000000  0.4888240000000 1.0
C      1  0.4485060000000  0.5791820000000  0.5128380000000 1.0
C      1  0.4139660000000  0.4436520000000  0.5135090000000 1.0
C      1  0.5559240000000  0.4135290000000  0.5179210000000 1.0
C      1  0.5801600000000  0.5549070000000  0.5109780000000 1.0
C      1  0.5413410000000  0.5217090000000  0.4824010000000 1.0
C      1  0.5275480000000  0.4610540000000  0.4882290000000 1.0
C      1  0.4693220000000  0.4857100000000  0.4899480000000 1.0
C      1  0.4805680000000  0.5256190000000  0.4880980000000 1.0
C      1  0.5343670000000  0.4757670000000  0.5168360000000 1.0
C      1  0.5268480000000  0.5301040000000  0.5129990000000 1.0
C      1  0.4690000000000  0.5173260000000  0.5183910000000 1.0
C      1  0.4786610000000  0.4660590000000  0.5117600000000 1.0
C      1  0.5722340000000  0.4858600000000  0.4182170000000 1.0
C      1  0.4718370000000  0.4202790000000  0.4256900000000 1.0
C      1  0.4222710000000  0.5209240000000  0.4173460000000 1.0
C      1  0.5165550000000  0.5758310000000  0.4169190000000 1.0
C      1  0.5767740000000  0.5177220000000  0.5783580000000 1.0
C      1  0.4943000000000  0.5722930000000  0.5848750000000 1.0
C      1  0.4306370000000  0.4862970000000  0.5810700000000 1.0
C      1  0.5071060000000  0.4158590000000  0.5820060000000 1.0
C      1  0.4374830000000  0.5738020000000  0.4811220000000 1.0
C      1  0.5743090000000  0.5662860000000  0.4803260000000 1.0
C      1  0.5714180000000  0.4144750000000  0.4875730000000 1.0
C      1  0.4228260000000  0.4385630000000  0.4810730000000 1.0
C      1  0.4420880000000  0.4245460000000  0.5130430000000 1.0
C      1  0.5828860000000  0.4340510000000  0.5201840000000 1.0
C      1  0.5627400000000  0.5837740000000  0.5143270000000 1.0
C      1  0.4245420000000  0.5550900000000  0.5142680000000 1.0
C      1  0.5611720000000  0.5133010000000  0.6001360000000 1.0
C      1  0.5071510000000  0.4303840000000  0.6047910000000 1.0
C      1  0.4529210000000  0.4901210000000  0.5957040000000 1.0
C      1  0.5041110000000  0.5491270000000  0.5946150000000 1.0
C      1  0.5524890000000  0.4961270000000  0.4030390000000 1.0
C      1  0.5198090000000  0.5568400000000  0.3981280000000 1.0
C      1  0.4377990000000  0.5158820000000  0.3960070000000 1.0
C      1  0.4797100000000  0.4354670000000  0.4046260000000 1.0
C      1  0.4739090000000  0.5183060000000  0.4571910000000 1.0
C      1  0.5249880000000  0.5184860000000  0.4564550000000 1.0
C      1  0.5246770000000  0.4757060000000  0.4596770000000 1.0
C      1  0.4758510000000  0.4767220000000  0.4600520000000 1.0
C      1  0.4756790000000  0.4772830000000  0.5393800000000 1.0
C      1  0.5155540000000  0.4763240000000  0.5415050000000 1.0
C      1  0.5227380000000  0.5179660000000  0.5411340000000 1.0
C      1  0.4739970000000  0.5270340000000  0.5478770000000 1.0
C      1  0.4094550000000  0.5055190000000  0.5204360000000 1.0
C      1  0.5088860000000  0.5911410000000  0.5084300000000 1.0
C      1  0.5862960000000  0.4957790000000  0.5135920000000 1.0
C      1  0.4945490000000  0.4114640000000  0.5182160000000 1.0
C      1  0.4076720000000  0.4932140000000  0.4872730000000 1.0
C      1  0.5083290000000  0.4107550000000  0.4858330000000 1.0
C      1  0.5937350000000  0.5056400000000  0.4812410000000 1.0
C      1  0.4894220000000  0.5903180000000  0.4878330000000 1.0
C      1  0.5522490000000  0.4991600000000  0.3758620000000 1.0
C      1  0.4907840000000  0.4600120000000  0.4023740000000 1.0
C      1  0.4602020000000  0.5007030000000  0.3930480000000 1.0
C      1  0.5089930000000  0.5319320000000  0.3972670000000 1.0
C      1  0.5377600000000  0.4999550000000  0.6042260000000 1.0
C      1  0.5134960000000  0.5459010000000  0.6202100000000 1.0
C      1  0.4567280000000  0.4833030000000  0.6219580000000 1.0
C      1  0.4964260000000  0.4552950000000  0.6078450000000 1.0
C      1  0.4245630000000  0.5139480000000  0.5490770000000 1.0
C      1  0.5142640000000  0.5726690000000  0.5364770000000 1.0
C      1  0.5695040000000  0.4796570000000  0.5383960000000 1.0
C      1  0.4820490000000  0.4241000000000  0.5454550000000 1.0
C      1  0.4237760000000  0.4871820000000  0.4579390000000 1.0
C      1  0.5154530000000  0.4314040000000  0.4597680000000 1.0
C      1  0.5807130000000  0.5229160000000  0.4550050000000 1.0
C      1  0.4867480000000  0.5706670000000  0.4602000000000 1.0
C      1  0.5753140000000  0.5246870000000  0.5514990000000 1.0
C      1  0.5151370000000  0.4191560000000  0.5515840000000 1.0
C      1  0.4208010000000  0.4802130000000  0.5511170000000 1.0
C      1  0.4898050000000  0.5842310000000  0.5557630000000 1.0
C      1  0.5779030000000  0.4908560000000  0.4476410000000 1.0
C      1  0.5174120000000  0.5783590000000  0.4476320000000 1.0
C      1  0.4195240000000  0.5195620000000  0.4484640000000 1.0
C      1  0.4847030000000  0.4227420000000  0.4560350000000 1.0
C      1  0.4442400000000  0.5037380000000  0.4994570000000 1.0
C      1  0.5068040000000  0.5391700000000  0.4908330000000 1.0
C      1  0.5483350000000  0.4984260000000  0.5015110000000 1.0
C      1  0.5012450000000  0.4490220000000  0.4991710000000 1.0
C      1  0.5011350000000  0.4979780000000  0.4585550000000 1.0
C      1  0.4954700000000  0.5014970000000  0.5432190000000 1.0
END
