TITL C-3289332-8317-446 -0.000583777741506285 125000 -740.468607861485 0 0 140 (C1) n - 1
REM
REM in /nfs/bkarasulu/CARBON/AIRSS/Generating-Clusters/AIREBO/with-SteepDescent/Higher-Symm/SD-CG/HFTN-CG
REM
REM
REM
REM
REM
REM ./C.cell (b20cbc046b6831c77cfcea5457e17084)
REM
REM compiler GCC version 9.2.1 20190827 (Red Hat 9.2.1-1)
REM options -cpp -mtune=generic -march=x86-64 -g -O0 -fpre-include=/usr/include/finclude/math-vector-fortran.h
REM seed -1705978647 2098495329 -1834904382 -973703699 820061814 -1935317920 -1585556127 1184315838 -1136011460 -2137877434 152389354 -172364931 -1378973440 -564193914 -25147327 303849301 -443031945 -2112284390 -860520750 485586259 1493701605 -1331978551 -1921734688 1228932590 -1093763277 1452107869 499079629 666686154 937195651 -1796460397 -779741352 152418935 1916750811
REM
CELL 1.54180   50.00000   50.00000   50.00000   90.00000   90.00000   90.00000
LATT -1
SFAC C  
C      1  0.5671500000000  0.5674370000000  0.5040060000000 1.0
C      1  0.5437620000000  0.5755900000000  0.4499280000000 1.0
C      1  0.4883390000000  0.5757270000000  0.4329810000000 1.0
C      1  0.4399000000000  0.5697210000000  0.4668520000000 1.0
C      1  0.4390200000000  0.5738620000000  0.5275220000000 1.0
C      1  0.4805350000000  0.5707210000000  0.5647780000000 1.0
C      1  0.5392320000000  0.5735710000000  0.5556980000000 1.0
C      1  0.5645310000000  0.5587030000000  0.4708940000000 1.0
C      1  0.5181690000000  0.5594510000000  0.4344080000000 1.0
C      1  0.4612540000000  0.5578340000000  0.4431100000000 1.0
C      1  0.4332300000000  0.5576080000000  0.4982020000000 1.0
C      1  0.4506010000000  0.5575240000000  0.5550110000000 1.0
C      1  0.5120460000000  0.5593120000000  0.5705920000000 1.0
C      1  0.5602340000000  0.5559630000000  0.5352570000000 1.0
C      1  0.5262830000000  0.5086540000000  0.6084220000000 1.0
C      1  0.6087180000000  0.5145010000000  0.5377080000000 1.0
C      1  0.5957230000000  0.5072800000000  0.4500560000000 1.0
C      1  0.5313240000000  0.5062930000000  0.3998050000000 1.0
C      1  0.4285130000000  0.5120410000000  0.4172580000000 1.0
C      1  0.3972960000000  0.5102360000000  0.4877610000000 1.0
C      1  0.4282380000000  0.5140940000000  0.5919330000000 1.0
C      1  0.5194510000000  0.4398950000000  0.4337710000000 1.0
C      1  0.4644000000000  0.4504390000000  0.4449360000000 1.0
C      1  0.4362210000000  0.4342330000000  0.4973750000000 1.0
C      1  0.4543490000000  0.4417380000000  0.5504820000000 1.0
C      1  0.5105720000000  0.4436380000000  0.5635440000000 1.0
C      1  0.5609000000000  0.4456260000000  0.5340800000000 1.0
C      1  0.5547960000000  0.4437320000000  0.4768480000000 1.0
C      1  0.4237360000000  0.5405040000000  0.4703930000000 1.0
C      1  0.4271350000000  0.5428260000000  0.5347000000000 1.0
C      1  0.4845060000000  0.5444770000000  0.5844510000000 1.0
C      1  0.5520230000000  0.5441350000000  0.5657620000000 1.0
C      1  0.5876370000000  0.5441260000000  0.4911410000000 1.0
C      1  0.5497800000000  0.5459040000000  0.4351390000000 1.0
C      1  0.4834740000000  0.5453840000000  0.4203900000000 1.0
C      1  0.5955380000000  0.4787770000000  0.4611650000000 1.0
C      1  0.5262160000000  0.4771670000000  0.3928320000000 1.0
C      1  0.4360940000000  0.4821360000000  0.4095480000000 1.0
C      1  0.4132390000000  0.4810190000000  0.4807590000000 1.0
C      1  0.4334070000000  0.4876060000000  0.5829480000000 1.0
C      1  0.5191210000000  0.4786550000000  0.6022370000000 1.0
C      1  0.6071240000000  0.4825410000000  0.5419750000000 1.0
C      1  0.4671190000000  0.5087190000000  0.5866500000000 1.0
C      1  0.5475070000000  0.5097440000000  0.5835190000000 1.0
C      1  0.5837140000000  0.5067110000000  0.5207490000000 1.0
C      1  0.5651160000000  0.5095250000000  0.4400470000000 1.0
C      1  0.4947490000000  0.5094750000000  0.4079830000000 1.0
C      1  0.4277710000000  0.5086510000000  0.4490880000000 1.0
C      1  0.4036900000000  0.5086150000000  0.5265850000000 1.0
C      1  0.4687990000000  0.4154850000000  0.5134640000000 1.0
C      1  0.4905540000000  0.4163500000000  0.5311010000000 1.0
C      1  0.5177510000000  0.4161510000000  0.5261880000000 1.0
C      1  0.5304450000000  0.4165560000000  0.5019430000000 1.0
C      1  0.5197280000000  0.4152810000000  0.4767180000000 1.0
C      1  0.4925930000000  0.4159980000000  0.4698390000000 1.0
C      1  0.4685760000000  0.4143330000000  0.4849800000000 1.0
C      1  0.5174280000000  0.5534710000000  0.5292630000000 1.0
C      1  0.5342080000000  0.5445190000000  0.5052540000000 1.0
C      1  0.5244350000000  0.5523190000000  0.4758740000000 1.0
C      1  0.4968120000000  0.5447200000000  0.4648380000000 1.0
C      1  0.4713870000000  0.5504320000000  0.4812550000000 1.0
C      1  0.4682670000000  0.5426050000000  0.5101810000000 1.0
C      1  0.4872540000000  0.5480940000000  0.5328030000000 1.0
C      1  0.5422470000000  0.4756200000000  0.5542800000000 1.0
C      1  0.5621310000000  0.4760280000000  0.4990790000000 1.0
C      1  0.5429630000000  0.4784830000000  0.4447140000000 1.0
C      1  0.4858400000000  0.4811900000000  0.4321160000000 1.0
C      1  0.4326570000000  0.4705030000000  0.4586910000000 1.0
C      1  0.4427380000000  0.4755940000000  0.5328970000000 1.0
C      1  0.4889200000000  0.4798170000000  0.5684320000000 1.0
C      1  0.5486180000000  0.4498630000000  0.5715710000000 1.0
C      1  0.5839700000000  0.4520430000000  0.5027930000000 1.0
C      1  0.5576510000000  0.4500380000000  0.4380890000000 1.0
C      1  0.4851580000000  0.4510910000000  0.4175230000000 1.0
C      1  0.4271110000000  0.4386230000000  0.4502320000000 1.0
C      1  0.4219010000000  0.4516980000000  0.5296800000000 1.0
C      1  0.4759460000000  0.4533610000000  0.5810080000000 1.0
C      1  0.4404620000000  0.4216440000000  0.4694740000000 1.0
C      1  0.4403170000000  0.4231270000000  0.5284890000000 1.0
C      1  0.4835410000000  0.4273920000000  0.5603920000000 1.0
C      1  0.5369000000000  0.4269740000000  0.5493230000000 1.0
C      1  0.5586700000000  0.4293710000000  0.5042930000000 1.0
C      1  0.5400650000000  0.4246180000000  0.4522720000000 1.0
C      1  0.4886540000000  0.4288090000000  0.4429760000000 1.0
C      1  0.4440800000000  0.4580110000000  0.5788830000000 1.0
C      1  0.5250900000000  0.4522790000000  0.5930520000000 1.0
C      1  0.5915330000000  0.4607360000000  0.5327000000000 1.0
C      1  0.5819210000000  0.4528610000000  0.4584870000000 1.0
C      1  0.5155420000000  0.4551040000000  0.4039810000000 1.0
C      1  0.4388260000000  0.4545320000000  0.4229040000000 1.0
C      1  0.4099220000000  0.4555920000000  0.5002790000000 1.0
C      1  0.5172210000000  0.4937210000000  0.4280910000000 1.0
C      1  0.4530510000000  0.4885720000000  0.4383090000000 1.0
C      1  0.4238050000000  0.4919380000000  0.5111760000000 1.0
C      1  0.4577290000000  0.4902130000000  0.5597030000000 1.0
C      1  0.5196540000000  0.4939620000000  0.5718800000000 1.0
C      1  0.5617890000000  0.4875250000000  0.5311570000000 1.0
C      1  0.5644030000000  0.4904470000000  0.4682830000000 1.0
C      1  0.4456510000000  0.5188800000000  0.5459750000000 1.0
C      1  0.5000770000000  0.5213510000000  0.5686840000000 1.0
C      1  0.5534610000000  0.5177430000000  0.5443520000000 1.0
C      1  0.5691180000000  0.5189230000000  0.4862640000000 1.0
C      1  0.5276560000000  0.5219930000000  0.4437090000000 1.0
C      1  0.4671500000000  0.5193180000000  0.4348250000000 1.0
C      1  0.4354010000000  0.5136350000000  0.4876880000000 1.0
C      1  0.4518350000000  0.4619340000000  0.5030910000000 1.0
C      1  0.4793770000000  0.4621730000000  0.5411850000000 1.0
C      1  0.5129560000000  0.4672500000000  0.5391730000000 1.0
C      1  0.5366600000000  0.4607750000000  0.5156640000000 1.0
C      1  0.5325610000000  0.4668920000000  0.4738620000000 1.0
C      1  0.5068840000000  0.4632690000000  0.4518430000000 1.0
C      1  0.4618500000000  0.4687660000000  0.4718670000000 1.0
C      1  0.4821740000000  0.4919350000000  0.5284080000000 1.0
C      1  0.5109470000000  0.5012900000000  0.5335850000000 1.0
C      1  0.5276540000000  0.4916460000000  0.5110950000000 1.0
C      1  0.5277960000000  0.4989150000000  0.4819490000000 1.0
C      1  0.5034850000000  0.4929870000000  0.4657130000000 1.0
C      1  0.4754050000000  0.4969660000000  0.4755400000000 1.0
C      1  0.4648920000000  0.4919970000000  0.5040780000000 1.0
C      1  0.5251730000000  0.5862950000000  0.4744980000000 1.0
C      1  0.4952260000000  0.5782930000000  0.4655730000000 1.0
C      1  0.4672560000000  0.5841570000000  0.4809690000000 1.0
C      1  0.4677760000000  0.5759250000000  0.5118630000000 1.0
C      1  0.4900920000000  0.5819240000000  0.5350140000000 1.0
C      1  0.5216030000000  0.5871200000000  0.5317810000000 1.0
C      1  0.5353680000000  0.5784810000000  0.5038670000000 1.0
C      1  0.5294200000000  0.5377160000000  0.5903450000000 1.0
C      1  0.5882120000000  0.5394760000000  0.5248200000000 1.0
C      1  0.5797180000000  0.5376890000000  0.4490440000000 1.0
C      1  0.5143680000000  0.5366390000000  0.4091790000000 1.0
C      1  0.4329960000000  0.5398240000000  0.4376750000000 1.0
C      1  0.4085030000000  0.5360020000000  0.5070650000000 1.0
C      1  0.4510210000000  0.5384910000000  0.5834090000000 1.0
C      1  0.4784040000000  0.5210100000000  0.5451070000000 1.0
C      1  0.5220710000000  0.5270870000000  0.5456470000000 1.0
C      1  0.5470970000000  0.5185640000000  0.5109550000000 1.0
C      1  0.5414150000000  0.5239510000000  0.4718190000000 1.0
C      1  0.4957020000000  0.5200980000000  0.4488150000000 1.0
C      1  0.4603600000000  0.5234710000000  0.4670900000000 1.0
C      1  0.4524750000000  0.5193320000000  0.5147220000000 1.0
END
