TITL C-3289325-7307-227 0.00104492185409151 125000 -880.270012583948 0 0 165 (C1) n - 1
REM
REM in /nfs/bkarasulu/CARBON/AIRSS/Generating-Clusters/AIREBO/with-SteepDescent/Higher-Symm/SD-CG/HFTN-CG
REM
REM
REM
REM
REM
REM ./C.cell (b20cbc046b6831c77cfcea5457e17084)
REM
REM compiler GCC version 9.2.1 20190827 (Red Hat 9.2.1-1)
REM options -cpp -mtune=generic -march=x86-64 -g -O0 -fpre-include=/usr/include/finclude/math-vector-fortran.h
REM seed -53943250 -1989548300 176119003 -1122453899 -1954893686 -1766256695 1121137387 -1192427754 -1221394250 -1168618180 1167843856 281701101 115161445 1504763532 1581620865 1230182286 687728868 783653766 1051622865 1163904254 -827127211 -1544161084 -354897071 748821046 1365587001 1657063656 -1167286714 -240440799 -1573806324 -366349824 -1911414245 -847636406 1970623131
REM
CELL 1.54180   50.00000   50.00000   50.00000   90.00000   90.00000   90.00000
LATT -1
SFAC C  
C      1  0.5500520000000  0.5265520000000  0.5223780000000 1.0
C      1  0.4451560000000  0.5331520000000  0.4786990000000 1.0
C      1  0.5585020000000  0.5298670000000  0.4695750000000 1.0
C      1  0.4540190000000  0.5356940000000  0.5218910000000 1.0
C      1  0.4096100000000  0.5184440000000  0.4677910000000 1.0
C      1  0.5928220000000  0.5135770000000  0.5414220000000 1.0
C      1  0.4075160000000  0.5269940000000  0.5387500000000 1.0
C      1  0.5975740000000  0.5116380000000  0.4563130000000 1.0
C      1  0.5386340000000  0.5748950000000  0.4845090000000 1.0
C      1  0.4619920000000  0.5686450000000  0.5190860000000 1.0
C      1  0.5434110000000  0.5871380000000  0.5145450000000 1.0
C      1  0.4634390000000  0.5772530000000  0.4860970000000 1.0
C      1  0.4149940000000  0.4698570000000  0.4348340000000 1.0
C      1  0.5767290000000  0.4692720000000  0.5695620000000 1.0
C      1  0.4242820000000  0.4719290000000  0.5532260000000 1.0
C      1  0.5729090000000  0.4603740000000  0.4326870000000 1.0
C      1  0.4817150000000  0.5556780000000  0.4577960000000 1.0
C      1  0.5211830000000  0.5530300000000  0.5342350000000 1.0
C      1  0.4901350000000  0.5534410000000  0.5454990000000 1.0
C      1  0.5112090000000  0.5617160000000  0.4585790000000 1.0
C      1  0.4500150000000  0.5797030000000  0.4549400000000 1.0
C      1  0.5486020000000  0.5863200000000  0.5482740000000 1.0
C      1  0.4526390000000  0.5751480000000  0.5519250000000 1.0
C      1  0.5471850000000  0.5771520000000  0.4516720000000 1.0
C      1  0.5873040000000  0.4508930000000  0.5445320000000 1.0
C      1  0.4132430000000  0.4363250000000  0.4402900000000 1.0
C      1  0.5801050000000  0.4319070000000  0.4445470000000 1.0
C      1  0.4284340000000  0.4449510000000  0.5329000000000 1.0
C      1  0.5863590000000  0.5253220000000  0.4280200000000 1.0
C      1  0.4322920000000  0.5387340000000  0.5573800000000 1.0
C      1  0.5761310000000  0.5316940000000  0.5637960000000 1.0
C      1  0.4238570000000  0.5364030000000  0.4446510000000 1.0
C      1  0.4509240000000  0.4426710000000  0.5583060000000 1.0
C      1  0.5421900000000  0.4524330000000  0.4569120000000 1.0
C      1  0.4493860000000  0.4519470000000  0.4444960000000 1.0
C      1  0.5587210000000  0.4367020000000  0.5555230000000 1.0
C      1  0.5578960000000  0.4969760000000  0.5305220000000 1.0
C      1  0.4355160000000  0.5006060000000  0.4807310000000 1.0
C      1  0.5592330000000  0.4990930000000  0.4734520000000 1.0
C      1  0.4380690000000  0.5065260000000  0.5141150000000 1.0
C      1  0.4842850000000  0.6033350000000  0.4833570000000 1.0
C      1  0.5168850000000  0.6081430000000  0.5195260000000 1.0
C      1  0.4871560000000  0.5911610000000  0.5148240000000 1.0
C      1  0.5160800000000  0.5997240000000  0.4886860000000 1.0
C      1  0.5194330000000  0.4315940000000  0.4315940000000 1.0
C      1  0.5010100000000  0.4335870000000  0.5657500000000 1.0
C      1  0.5237430000000  0.4402100000000  0.5745180000000 1.0
C      1  0.4922900000000  0.4329090000000  0.4377150000000 1.0
C      1  0.4431970000000  0.4203010000000  0.5051260000000 1.0
C      1  0.5477360000000  0.4094820000000  0.4865840000000 1.0
C      1  0.4538290000000  0.4059460000000  0.4786590000000 1.0
C      1  0.5636270000000  0.4157120000000  0.5131120000000 1.0
C      1  0.4449120000000  0.5357840000000  0.4106530000000 1.0
C      1  0.5322790000000  0.5754270000000  0.6003230000000 1.0
C      1  0.4366720000000  0.5296370000000  0.5906130000000 1.0
C      1  0.5429860000000  0.5295410000000  0.4078060000000 1.0
C      1  0.5188870000000  0.4158650000000  0.5347260000000 1.0
C      1  0.4755920000000  0.4118010000000  0.4462280000000 1.0
C      1  0.5347260000000  0.4138860000000  0.4493620000000 1.0
C      1  0.4873620000000  0.4116650000000  0.5468210000000 1.0
C      1  0.4681390000000  0.4821040000000  0.5828000000000 1.0
C      1  0.5269050000000  0.4831510000000  0.4184850000000 1.0
C      1  0.4793790000000  0.4797340000000  0.4230160000000 1.0
C      1  0.5260790000000  0.4689760000000  0.5892250000000 1.0
C      1  0.4234880000000  0.5517530000000  0.4887000000000 1.0
C      1  0.5746000000000  0.5456210000000  0.5156770000000 1.0
C      1  0.4235930000000  0.5508410000000  0.5206000000000 1.0
C      1  0.5810720000000  0.5462180000000  0.4844390000000 1.0
C      1  0.5289080000000  0.5217740000000  0.5932030000000 1.0
C      1  0.4842380000000  0.5134590000000  0.4239390000000 1.0
C      1  0.5163690000000  0.5126280000000  0.4317610000000 1.0
C      1  0.4833050000000  0.5125440000000  0.5843150000000 1.0
C      1  0.6030720000000  0.5275650000000  0.5119600000000 1.0
C      1  0.3933580000000  0.5313690000000  0.4917230000000 1.0
C      1  0.6103190000000  0.5330690000000  0.4794290000000 1.0
C      1  0.3903020000000  0.5170850000000  0.5156750000000 1.0
C      1  0.4303370000000  0.4523100000000  0.5803260000000 1.0
C      1  0.5407170000000  0.4545450000000  0.4230090000000 1.0
C      1  0.4321000000000  0.4488230000000  0.4143130000000 1.0
C      1  0.5541440000000  0.4499290000000  0.5859580000000 1.0
C      1  0.5560760000000  0.5118240000000  0.5821860000000 1.0
C      1  0.4398110000000  0.5086080000000  0.4216980000000 1.0
C      1  0.5559870000000  0.5006770000000  0.4203210000000 1.0
C      1  0.4439030000000  0.5029250000000  0.5708530000000 1.0
C      1  0.5207180000000  0.4885540000000  0.4755410000000 1.0
C      1  0.4906950000000  0.5028610000000  0.5189100000000 1.0
C      1  0.5187870000000  0.4913230000000  0.5354530000000 1.0
C      1  0.4906630000000  0.4982530000000  0.4863160000000 1.0
C      1  0.4728940000000  0.5455560000000  0.4866860000000 1.0
C      1  0.5208390000000  0.5361340000000  0.5074990000000 1.0
C      1  0.4875330000000  0.5366040000000  0.5160580000000 1.0
C      1  0.5298190000000  0.5426670000000  0.4781480000000 1.0
C      1  0.4545320000000  0.5224020000000  0.4490740000000 1.0
C      1  0.5440860000000  0.5375160000000  0.5540040000000 1.0
C      1  0.4622980000000  0.5254600000000  0.5532480000000 1.0
C      1  0.5636780000000  0.5382420000000  0.4406000000000 1.0
C      1  0.4192280000000  0.4782240000000  0.5128640000000 1.0
C      1  0.5838620000000  0.4886920000000  0.4877720000000 1.0
C      1  0.4123660000000  0.4774530000000  0.4735970000000 1.0
C      1  0.5793150000000  0.4778090000000  0.5162330000000 1.0
C      1  0.5552560000000  0.4426490000000  0.4851060000000 1.0
C      1  0.4284080000000  0.4482780000000  0.4996130000000 1.0
C      1  0.5718570000000  0.4469470000000  0.5145000000000 1.0
C      1  0.4253250000000  0.4509470000000  0.4685120000000 1.0
C      1  0.5869600000000  0.4914550000000  0.4309680000000 1.0
C      1  0.4115020000000  0.5026820000000  0.5600990000000 1.0
C      1  0.5881630000000  0.5012170000000  0.5728820000000 1.0
C      1  0.4101800000000  0.5038800000000  0.4370710000000 1.0
C      1  0.4869450000000  0.5217710000000  0.6168390000000 1.0
C      1  0.5047690000000  0.5031730000000  0.3765280000000 1.0
C      1  0.4864200000000  0.5186950000000  0.3904090000000 1.0
C      1  0.5125100000000  0.5078170000000  0.6137330000000 1.0
C      1  0.4723310000000  0.4801680000000  0.5334520000000 1.0
C      1  0.5435140000000  0.4741200000000  0.4903920000000 1.0
C      1  0.4641110000000  0.4843240000000  0.4720160000000 1.0
C      1  0.5381370000000  0.4727870000000  0.5202690000000 1.0
C      1  0.6087680000000  0.4946990000000  0.5181380000000 1.0
C      1  0.3882220000000  0.4791220000000  0.4856490000000 1.0
C      1  0.6131170000000  0.5003240000000  0.4844460000000 1.0
C      1  0.3907130000000  0.4890410000000  0.5127700000000 1.0
C      1  0.5412290000000  0.5572260000000  0.4274710000000 1.0
C      1  0.4540030000000  0.5555930000000  0.5774450000000 1.0
C      1  0.5383390000000  0.5665040000000  0.5698570000000 1.0
C      1  0.4477580000000  0.5579300000000  0.4326910000000 1.0
C      1  0.5161450000000  0.5176260000000  0.4627120000000 1.0
C      1  0.4902640000000  0.5139490000000  0.5510530000000 1.0
C      1  0.5219510000000  0.5136200000000  0.5609350000000 1.0
C      1  0.4836310000000  0.5157340000000  0.4579110000000 1.0
C      1  0.5103400000000  0.4754350000000  0.5613410000000 1.0
C      1  0.4811090000000  0.4617710000000  0.4517890000000 1.0
C      1  0.5114870000000  0.4765850000000  0.4480790000000 1.0
C      1  0.4798410000000  0.4605420000000  0.5592190000000 1.0
C      1  0.5174820000000  0.5933460000000  0.4562230000000 1.0
C      1  0.4827630000000  0.5865690000000  0.5477570000000 1.0
C      1  0.5151610000000  0.5841950000000  0.5424940000000 1.0
C      1  0.4829440000000  0.5894020000000  0.4536360000000 1.0
C      1  0.5527490000000  0.4824640000000  0.4488670000000 1.0
C      1  0.4459710000000  0.4907190000000  0.5391830000000 1.0
C      1  0.5531380000000  0.4888970000000  0.5596560000000 1.0
C      1  0.4437310000000  0.4844500000000  0.4450870000000 1.0
C      1  0.4867260000000  0.5456410000000  0.5771660000000 1.0
C      1  0.5122470000000  0.5415790000000  0.4190060000000 1.0
C      1  0.4795310000000  0.5469800000000  0.4271950000000 1.0
C      1  0.5156310000000  0.5501220000000  0.5887200000000 1.0
C      1  0.5142080000000  0.4042840000000  0.4836020000000 1.0
C      1  0.4712260000000  0.4059390000000  0.5175200000000 1.0
C      1  0.5026390000000  0.3993760000000  0.5124380000000 1.0
C      1  0.4842650000000  0.3972110000000  0.4721370000000 1.0
C      1  0.4832840000000  0.4725440000000  0.6095090000000 1.0
C      1  0.5116970000000  0.4797160000000  0.3905430000000 1.0
C      1  0.4878810000000  0.4672060000000  0.4003420000000 1.0
C      1  0.5096940000000  0.4805610000000  0.6107450000000 1.0
C      1  0.5635870000000  0.4144240000000  0.4569050000000 1.0
C      1  0.4459730000000  0.4158470000000  0.5384470000000 1.0
C      1  0.5502660000000  0.4093300000000  0.5391040000000 1.0
C      1  0.4425170000000  0.4192420000000  0.4507660000000 1.0
C      1  0.4936830000000  0.4484100000000  0.4802820000000 1.0
C      1  0.5358590000000  0.4453750000000  0.5329830000000 1.0
C      1  0.4830360000000  0.4415500000000  0.5311870000000 1.0
C      1  0.5186090000000  0.4340700000000  0.4714750000000 1.0
C      1  0.5705560000000  0.5732120000000  0.5264690000000 1.0
C      1  0.4254990000000  0.5769450000000  0.4737850000000 1.0
C      1  0.5736460000000  0.5696980000000  0.4663560000000 1.0
C      1  0.4266740000000  0.5750300000000  0.5365880000000 1.0
C      1  0.4887720000000  0.4484740000000  0.5063320000000 1.0
END
