TITL C-3289323-3850-600 -0.00262117996517972 125000 -357.588735351386 0 0 67 (C1) n - 1
REM
REM in /nfs/bkarasulu/CARBON/AIRSS/Generating-Clusters/AIREBO/with-SteepDescent/Higher-Symm/SD-CG/HFTN-CG
REM
REM
REM
REM
REM
REM ./C.cell (b20cbc046b6831c77cfcea5457e17084)
REM
REM compiler GCC version 9.2.1 20190827 (Red Hat 9.2.1-1)
REM options -cpp -mtune=generic -march=x86-64 -g -O0 -fpre-include=/usr/include/finclude/math-vector-fortran.h
REM seed -2067207373 -1888999284 67585619 1721061512 783049220 -1653542619 -956206121 892346665 -95296896 -146373856 -403702897 1446601102 1736245598 -1247381705 -1504449633 361710109 1143568028 -1035104664 1914809572 459849550 -1245361350 1159432681 944076158 1856597731 2133611013 1722831350 1098348256 -866013862 93249547 -1759875377 -826945290 -1963949995 149606048
REM
CELL 1.54180   50.00000   50.00000   50.00000   90.00000   90.00000   90.00000
LATT -1
SFAC C  
C      1  0.4730730000000  0.4584940000000  0.5075340000000 1.0
C      1  0.5116190000000  0.5448210000000  0.5213860000000 1.0
C      1  0.5207810000000  0.4517290000000  0.4957540000000 1.0
C      1  0.4874750000000  0.5364730000000  0.4767860000000 1.0
C      1  0.5368020000000  0.5473360000000  0.5421290000000 1.0
C      1  0.5374580000000  0.4543290000000  0.4665470000000 1.0
C      1  0.4621690000000  0.5450180000000  0.4586100000000 1.0
C      1  0.4597160000000  0.4553890000000  0.5382050000000 1.0
C      1  0.5156160000000  0.5699080000000  0.5027140000000 1.0
C      1  0.5032940000000  0.4266580000000  0.4788760000000 1.0
C      1  0.4881900000000  0.5641820000000  0.4934580000000 1.0
C      1  0.4885630000000  0.4302380000000  0.5051140000000 1.0
C      1  0.4407480000000  0.5572810000000  0.4920780000000 1.0
C      1  0.5017690000000  0.4481140000000  0.5531000000000 1.0
C      1  0.5613610000000  0.5563200000000  0.5051170000000 1.0
C      1  0.5081860000000  0.4465630000000  0.4353530000000 1.0
C      1  0.4401420000000  0.4968690000000  0.5250870000000 1.0
C      1  0.5240900000000  0.5070990000000  0.5593430000000 1.0
C      1  0.5584840000000  0.4897940000000  0.4790900000000 1.0
C      1  0.4729490000000  0.4997400000000  0.4348220000000 1.0
C      1  0.5014350000000  0.4921800000000  0.4241080000000 1.0
C      1  0.4252590000000  0.5072600000000  0.4985200000000 1.0
C      1  0.4972580000000  0.4951910000000  0.5715260000000 1.0
C      1  0.5709190000000  0.5047400000000  0.5044260000000 1.0
C      1  0.5490440000000  0.5271890000000  0.5176050000000 1.0
C      1  0.5180290000000  0.4760910000000  0.4490520000000 1.0
C      1  0.4497020000000  0.5255890000000  0.4835990000000 1.0
C      1  0.4850750000000  0.4767910000000  0.5456590000000 1.0
C      1  0.5433980000000  0.4990300000000  0.5365530000000 1.0
C      1  0.5380870000000  0.5019470000000  0.4598540000000 1.0
C      1  0.4616140000000  0.4988880000000  0.4657010000000 1.0
C      1  0.4660710000000  0.5045260000000  0.5404760000000 1.0
C      1  0.4877790000000  0.4771200000000  0.4645800000000 1.0
C      1  0.4653150000000  0.5258050000000  0.5138320000000 1.0
C      1  0.5149480000000  0.4815650000000  0.5301050000000 1.0
C      1  0.5325810000000  0.5185300000000  0.4891230000000 1.0
C      1  0.5037760000000  0.5263030000000  0.5481470000000 1.0
C      1  0.5456320000000  0.4742650000000  0.5013900000000 1.0
C      1  0.4919510000000  0.5198720000000  0.4505940000000 1.0
C      1  0.4462360000000  0.4746470000000  0.5061050000000 1.0
C      1  0.4993760000000  0.5662170000000  0.5667340000000 1.0
C      1  0.5711300000000  0.4365730000000  0.4980400000000 1.0
C      1  0.5001940000000  0.5600750000000  0.4343460000000 1.0
C      1  0.4342940000000  0.4379900000000  0.4954790000000 1.0
C      1  0.4907410000000  0.4340260000000  0.4546980000000 1.0
C      1  0.4634430000000  0.5670960000000  0.5073000000000 1.0
C      1  0.5126190000000  0.4361630000000  0.5248760000000 1.0
C      1  0.5398520000000  0.5664790000000  0.4881470000000 1.0
C      1  0.4757430000000  0.5525300000000  0.5584580000000 1.0
C      1  0.5641020000000  0.4471020000000  0.5237720000000 1.0
C      1  0.5221850000000  0.5451240000000  0.4442050000000 1.0
C      1  0.4428120000000  0.4529970000000  0.4728280000000 1.0
C      1  0.4723420000000  0.5598000000000  0.4380620000000 1.0
C      1  0.4421820000000  0.4378700000000  0.5221820000000 1.0
C      1  0.5269770000000  0.5630090000000  0.5625880000000 1.0
C      1  0.5637250000000  0.4505530000000  0.4747390000000 1.0
C      1  0.4639590000000  0.5538180000000  0.5335840000000 1.0
C      1  0.5364840000000  0.4554030000000  0.5348130000000 1.0
C      1  0.5361300000000  0.5457180000000  0.4685160000000 1.0
C      1  0.4671620000000  0.4509730000000  0.4596670000000 1.0
C      1  0.5673850000000  0.4795390000000  0.5269870000000 1.0
C      1  0.5215580000000  0.5148710000000  0.4371740000000 1.0
C      1  0.4355990000000  0.4836160000000  0.4763600000000 1.0
C      1  0.4758220000000  0.5219910000000  0.5670140000000 1.0
C      1  0.4968930000000  0.4731210000000  0.4935210000000 1.0
C      1  0.4951310000000  0.5252790000000  0.5050590000000 1.0
C      1  0.5096770000000  0.4989400000000  0.5036730000000 1.0
END
