TITL C-3289320-4661-153 0.00523481730519271 125000 -698.1737935212 0 0 130 (C1) n - 1
REM
REM in /nfs/bkarasulu/CARBON/AIRSS/Generating-Clusters/AIREBO/with-SteepDescent/Higher-Symm/SD-CG/HFTN-CG
REM
REM
REM
REM
REM
REM ./C.cell (b20cbc046b6831c77cfcea5457e17084)
REM
REM compiler GCC version 9.2.1 20190827 (Red Hat 9.2.1-1)
REM options -cpp -mtune=generic -march=x86-64 -g -O0 -fpre-include=/usr/include/finclude/math-vector-fortran.h
REM seed -2024383675 1298172086 -1328037699 1066678822 614853647 -1973590091 -701759412 -354649016 759626741 1848431828 1805675950 541332920 -279338952 1073140456 -1751047826 -1480349483 -408356094 601107899 -1572692682 1024501338 132508051 -622944952 196156807 -1424446960 1782770132 -405423388 -1574991539 761401309 2020893215 -1229852617 357712980 -1537873524 1410225771
REM
CELL 1.54180   50.00000   50.00000   50.00000   90.00000   90.00000   90.00000
LATT -1
SFAC C  
C      1  0.5051140000000  0.5373630000000  0.5067120000000 1.0
C      1  0.5263420000000  0.4724360000000  0.5123280000000 1.0
C      1  0.4658790000000  0.4933550000000  0.5031560000000 1.0
C      1  0.5096440000000  0.5577900000000  0.4161140000000 1.0
C      1  0.5378420000000  0.4726040000000  0.4146030000000 1.0
C      1  0.4590350000000  0.4927380000000  0.4132600000000 1.0
C      1  0.4832750000000  0.5330650000000  0.5339910000000 1.0
C      1  0.5449460000000  0.4951140000000  0.5299950000000 1.0
C      1  0.4794660000000  0.4584870000000  0.5383610000000 1.0
C      1  0.4582110000000  0.4359710000000  0.5633410000000 1.0
C      1  0.4635920000000  0.5655790000000  0.5581120000000 1.0
C      1  0.5766870000000  0.4966040000000  0.5542740000000 1.0
C      1  0.5773910000000  0.5084000000000  0.5017610000000 1.0
C      1  0.4735950000000  0.4361630000000  0.5050760000000 1.0
C      1  0.4537920000000  0.5573330000000  0.5090850000000 1.0
C      1  0.5234540000000  0.5656000000000  0.5417680000000 1.0
C      1  0.5386500000000  0.4338440000000  0.5523550000000 1.0
C      1  0.4337060000000  0.5049650000000  0.5434610000000 1.0
C      1  0.4794200000000  0.4137020000000  0.5257970000000 1.0
C      1  0.4299980000000  0.5586530000000  0.5259450000000 1.0
C      1  0.5897570000000  0.5287760000000  0.5202630000000 1.0
C      1  0.4592310000000  0.5260750000000  0.4967330000000 1.0
C      1  0.5523210000000  0.5313720000000  0.5004860000000 1.0
C      1  0.5072580000000  0.4369140000000  0.4983990000000 1.0
C      1  0.5391230000000  0.3829640000000  0.4904630000000 1.0
C      1  0.3711230000000  0.5202170000000  0.4892110000000 1.0
C      1  0.5716910000000  0.5912410000000  0.4796980000000 1.0
C      1  0.5184320000000  0.3748300000000  0.5490110000000 1.0
C      1  0.3749100000000  0.5242540000000  0.5574580000000 1.0
C      1  0.5777470000000  0.5888700000000  0.5506480000000 1.0
C      1  0.4211520000000  0.4585750000000  0.4885340000000 1.0
C      1  0.4929000000000  0.5914540000000  0.4818040000000 1.0
C      1  0.5810950000000  0.4463790000000  0.4902040000000 1.0
C      1  0.4851630000000  0.5956570000000  0.5149600000000 1.0
C      1  0.5957540000000  0.4636450000000  0.5155700000000 1.0
C      1  0.4296940000000  0.4409590000000  0.5163360000000 1.0
C      1  0.5028980000000  0.4575190000000  0.5770450000000 1.0
C      1  0.4580210000000  0.5197080000000  0.5777160000000 1.0
C      1  0.5406320000000  0.5260880000000  0.5710720000000 1.0
C      1  0.5838380000000  0.4708150000000  0.5439730000000 1.0
C      1  0.4365660000000  0.4466230000000  0.5459490000000 1.0
C      1  0.4795900000000  0.5858640000000  0.5470390000000 1.0
C      1  0.5436740000000  0.5707500000000  0.5149220000000 1.0
C      1  0.5379340000000  0.4189300000000  0.5236130000000 1.0
C      1  0.4110100000000  0.5096420000000  0.5193670000000 1.0
C      1  0.5093020000000  0.4260110000000  0.5657720000000 1.0
C      1  0.4285690000000  0.5299320000000  0.5641330000000 1.0
C      1  0.5639470000000  0.5421680000000  0.5567870000000 1.0
C      1  0.4911530000000  0.4397370000000  0.4696290000000 1.0
C      1  0.4342970000000  0.5384920000000  0.4803170000000 1.0
C      1  0.5535110000000  0.5157980000000  0.4702390000000 1.0
C      1  0.5166190000000  0.5130870000000  0.5249410000000 1.0
C      1  0.5057220000000  0.4721070000000  0.5342870000000 1.0
C      1  0.4858880000000  0.4993970000000  0.5299770000000 1.0
C      1  0.5824970000000  0.5234610000000  0.5467470000000 1.0
C      1  0.4795680000000  0.4206970000000  0.5526690000000 1.0
C      1  0.4369970000000  0.5575550000000  0.5525780000000 1.0
C      1  0.4078250000000  0.5490890000000  0.5138110000000 1.0
C      1  0.5903810000000  0.5532860000000  0.5076840000000 1.0
C      1  0.4951040000000  0.3943700000000  0.5142550000000 1.0
C      1  0.4126390000000  0.5328790000000  0.4622920000000 1.0
C      1  0.5642900000000  0.5456440000000  0.4580280000000 1.0
C      1  0.5129200000000  0.4153510000000  0.4653250000000 1.0
C      1  0.5483280000000  0.4839500000000  0.4809830000000 1.0
C      1  0.4763880000000  0.4702470000000  0.4669370000000 1.0
C      1  0.4954540000000  0.5495930000000  0.4685290000000 1.0
C      1  0.3987900000000  0.5251720000000  0.4924090000000 1.0
C      1  0.5632950000000  0.5613480000000  0.4887660000000 1.0
C      1  0.5214500000000  0.4059350000000  0.4968660000000 1.0
C      1  0.5872870000000  0.5081250000000  0.4716920000000 1.0
C      1  0.4617130000000  0.4245420000000  0.4774530000000 1.0
C      1  0.4476720000000  0.5665220000000  0.4795310000000 1.0
C      1  0.5734190000000  0.4514460000000  0.4631150000000 1.0
C      1  0.4263690000000  0.4624790000000  0.4579020000000 1.0
C      1  0.5012270000000  0.5943740000000  0.4498110000000 1.0
C      1  0.5563880000000  0.5252860000000  0.4315280000000 1.0
C      1  0.4921690000000  0.4380560000000  0.4228480000000 1.0
C      1  0.4490630000000  0.5431630000000  0.4243890000000 1.0
C      1  0.5237430000000  0.5245060000000  0.4563060000000 1.0
C      1  0.5147490000000  0.4750360000000  0.4574010000000 1.0
C      1  0.4757270000000  0.5055820000000  0.4484340000000 1.0
C      1  0.4840540000000  0.5616750000000  0.5156210000000 1.0
C      1  0.5655360000000  0.4778500000000  0.5091430000000 1.0
C      1  0.4553900000000  0.4631860000000  0.5148150000000 1.0
C      1  0.4935000000000  0.5748670000000  0.4304050000000 1.0
C      1  0.5631240000000  0.4567570000000  0.4311410000000 1.0
C      1  0.4415840000000  0.4698370000000  0.4279130000000 1.0
C      1  0.5100910000000  0.4581550000000  0.4099210000000 1.0
C      1  0.4643770000000  0.5213780000000  0.4135330000000 1.0
C      1  0.5318890000000  0.5348870000000  0.4099710000000 1.0
C      1  0.4978540000000  0.4942960000000  0.4794460000000 1.0
C      1  0.4828320000000  0.5217960000000  0.4774650000000 1.0
C      1  0.5221380000000  0.4991910000000  0.4949950000000 1.0
C      1  0.5322800000000  0.4640320000000  0.5508560000000 1.0
C      1  0.4617710000000  0.4920530000000  0.5493580000000 1.0
C      1  0.5203910000000  0.5366290000000  0.5483480000000 1.0
C      1  0.5184430000000  0.4823730000000  0.5833530000000 1.0
C      1  0.4729760000000  0.4960360000000  0.5874310000000 1.0
C      1  0.5078480000000  0.5298910000000  0.5792480000000 1.0
C      1  0.3991640000000  0.5227410000000  0.5485710000000 1.0
C      1  0.5629460000000  0.5670720000000  0.5427260000000 1.0
C      1  0.5194290000000  0.4004560000000  0.5454110000000 1.0
C      1  0.4538750000000  0.4470170000000  0.4574800000000 1.0
C      1  0.4724520000000  0.5708070000000  0.4641150000000 1.0
C      1  0.5730940000000  0.4833810000000  0.4576900000000 1.0
C      1  0.4231860000000  0.5369450000000  0.4360500000000 1.0
C      1  0.5822780000000  0.5453170000000  0.4313170000000 1.0
C      1  0.5039870000000  0.4171640000000  0.4380630000000 1.0
C      1  0.5581000000000  0.4449080000000  0.5149200000000 1.0
C      1  0.4256720000000  0.4804790000000  0.5128920000000 1.0
C      1  0.5127540000000  0.5765560000000  0.5050450000000 1.0
C      1  0.5078820000000  0.5841630000000  0.5536800000000 1.0
C      1  0.5648040000000  0.4525460000000  0.5535390000000 1.0
C      1  0.4333320000000  0.4735410000000  0.5518070000000 1.0
C      1  0.4800380000000  0.5393670000000  0.5641410000000 1.0
C      1  0.5442730000000  0.4930350000000  0.5639440000000 1.0
C      1  0.4708910000000  0.4667730000000  0.5702140000000 1.0
C      1  0.5278770000000  0.5043370000000  0.4130250000000 1.0
C      1  0.4851270000000  0.4766270000000  0.4046190000000 1.0
C      1  0.4957950000000  0.5289230000000  0.4080210000000 1.0
C      1  0.4537410000000  0.4952650000000  0.4720940000000 1.0
C      1  0.5248030000000  0.5406510000000  0.4832120000000 1.0
C      1  0.5263640000000  0.4577710000000  0.4816510000000 1.0
C      1  0.5619930000000  0.4917010000000  0.4290930000000 1.0
C      1  0.4646540000000  0.4448720000000  0.4267160000000 1.0
C      1  0.4644360000000  0.5660420000000  0.4327430000000 1.0
C      1  0.5221550000000  0.4992110000000  0.4398930000000 1.0
C      1  0.4882420000000  0.4785240000000  0.4363910000000 1.0
C      1  0.4956690000000  0.5293060000000  0.4406220000000 1.0
C      1  0.5005690000000  0.5026470000000  0.5908030000000 1.0
END
