TITL C-3289326-3776-304 -4.39303122287468e-09 125000 -62.7460958588741 0 0 11 (Cs) n - 1
REM
REM in /nfs/bkarasulu/CARBON/AIRSS/Generating-Clusters/AIREBO/with-SteepDescent/Higher-Symm/SD-CG/HFTN-CG
REM
REM
REM
REM
REM
REM ./C.cell (b20cbc046b6831c77cfcea5457e17084)
REM
REM compiler GCC version 9.2.1 20190827 (Red Hat 9.2.1-1)
REM options -cpp -mtune=generic -march=x86-64 -g -O0 -fpre-include=/usr/include/finclude/math-vector-fortran.h
REM seed 690248917 1057666113 1430224649 -985869505 -1244696630 1116737633 1860730077 -412373745 -1963338784 -1910951547 -1805542540 -1266161967 -1040414356 1676209475 889882699 -1722798370 -582578281 1195781552 -1942300449 -171633524 -1610612588 -879616646 -2111335201 1102773510 -1756533331 1225252152 -647344275 -35091397 802566949 1259044630 606198092 825274068 1603855820
REM
CELL 1.54180   50.00000   50.00000   50.00000   90.00000   90.00000   90.00000
LATT -1
SFAC C  
C      1  0.5000000000000  0.4616130000000  0.4714180000000 1.0
C      1  0.5000000000000  0.4522540000000  0.4967080000000 1.0
C      1  0.5000000000000  0.4580540000000  0.5230440000000 1.0
C      1  0.5000000000000  0.4771720000000  0.5420640000000 1.0
C      1  0.5000000000000  0.5035370000000  0.5477280000000 1.0
C      1  0.5000000000000  0.5287790000000  0.5382390000000 1.0
C      1  0.5000000000000  0.5448840000000  0.5166100000000 1.0
C      1  0.5000000000000  0.5467390000000  0.4897070000000 1.0
C      1  0.5000000000000  0.5337540000000  0.4660720000000 1.0
C      1  0.5000000000000  0.5100530000000  0.4532090000000 1.0
C      1  0.5000000000000  0.4831600000000  0.4552020000000 1.0
END
