TITL C-3289321-8710-508 0.00165333894237187 125000 -314.517062322346 0 0 60 (C1) n - 1
REM
REM in /nfs/bkarasulu/CARBON/AIRSS/Generating-Clusters/AIREBO/with-SteepDescent/Higher-Symm/SD-CG/HFTN-CG
REM
REM
REM
REM
REM
REM ./C.cell (b20cbc046b6831c77cfcea5457e17084)
REM
REM compiler GCC version 9.2.1 20190827 (Red Hat 9.2.1-1)
REM options -cpp -mtune=generic -march=x86-64 -g -O0 -fpre-include=/usr/include/finclude/math-vector-fortran.h
REM seed 944161187 -496981490 -495223927 -1231659531 -41414138 -1166149990 1285686583 802740458 1720356670 -1787427152 -75693730 -761504432 -956558829 -39634231 -1217118142 -332552981 160175160 2122733174 910762889 1133726321 -1543668959 -2049585124 -2051227683 1157437985 828336086 947069068 -357524943 -1365231212 -1875579692 -218140917 -1037701246 -977449424 -1022395722
REM
CELL 1.54180   50.00000   50.00000   50.00000   90.00000   90.00000   90.00000
LATT -1
SFAC C  
C      1  0.5544440000000  0.5122160000000  0.5717430000000 1.0
C      1  0.4438390000000  0.4908240000000  0.5743200000000 1.0
C      1  0.4418670000000  0.5160140000000  0.5705260000000 1.0
C      1  0.5532890000000  0.4867840000000  0.5735320000000 1.0
C      1  0.5093360000000  0.5400540000000  0.5674220000000 1.0
C      1  0.4825650000000  0.4493750000000  0.5613520000000 1.0
C      1  0.4850210000000  0.5494380000000  0.5588720000000 1.0
C      1  0.5116110000000  0.4489320000000  0.5615710000000 1.0
C      1  0.5730170000000  0.5436320000000  0.4989540000000 1.0
C      1  0.4213600000000  0.4564620000000  0.5072150000000 1.0
C      1  0.4255190000000  0.5384260000000  0.5106560000000 1.0
C      1  0.5750630000000  0.4605400000000  0.5168070000000 1.0
C      1  0.4720720000000  0.5453940000000  0.4869170000000 1.0
C      1  0.5309620000000  0.4552920000000  0.4891010000000 1.0
C      1  0.5264820000000  0.5396800000000  0.4797260000000 1.0
C      1  0.4690980000000  0.4500780000000  0.4877490000000 1.0
C      1  0.5280990000000  0.4825420000000  0.4382990000000 1.0
C      1  0.4629340000000  0.5336330000000  0.4376820000000 1.0
C      1  0.4797260000000  0.4706860000000  0.4389050000000 1.0
C      1  0.5375450000000  0.5115860000000  0.4313430000000 1.0
C      1  0.4893980000000  0.4311090000000  0.4678980000000 1.0
C      1  0.5141110000000  0.5655390000000  0.4628080000000 1.0
C      1  0.5160730000000  0.4357500000000  0.4658810000000 1.0
C      1  0.4872670000000  0.5698490000000  0.4682810000000 1.0
C      1  0.5343780000000  0.4731230000000  0.5534160000000 1.0
C      1  0.4607610000000  0.5280460000000  0.5487640000000 1.0
C      1  0.4620520000000  0.4756800000000  0.5542720000000 1.0
C      1  0.5337160000000  0.5255880000000  0.5521480000000 1.0
C      1  0.4690840000000  0.4507070000000  0.4541500000000 1.0
C      1  0.5293240000000  0.5404660000000  0.4468070000000 1.0
C      1  0.5365720000000  0.4592700000000  0.4561890000000 1.0
C      1  0.4625400000000  0.5545070000000  0.4562270000000 1.0
C      1  0.4844930000000  0.5333660000000  0.4192330000000 1.0
C      1  0.5163420000000  0.4716700000000  0.4104210000000 1.0
C      1  0.5105500000000  0.5296630000000  0.4220560000000 1.0
C      1  0.4888260000000  0.4680950000000  0.4121780000000 1.0
C      1  0.4503780000000  0.4646810000000  0.5073530000000 1.0
C      1  0.5445770000000  0.5333030000000  0.5026950000000 1.0
C      1  0.5461300000000  0.4688530000000  0.5126470000000 1.0
C      1  0.4546280000000  0.5296140000000  0.5083650000000 1.0
C      1  0.5306860000000  0.5444920000000  0.5275800000000 1.0
C      1  0.4699520000000  0.4537820000000  0.5303230000000 1.0
C      1  0.4759110000000  0.5488070000000  0.5264450000000 1.0
C      1  0.5236450000000  0.4513040000000  0.5306860000000 1.0
C      1  0.4981410000000  0.5285790000000  0.4853270000000 1.0
C      1  0.4988670000000  0.4637240000000  0.4890280000000 1.0
C      1  0.4672000000000  0.5006370000000  0.5342080000000 1.0
C      1  0.5286300000000  0.4980000000000  0.5340350000000 1.0
C      1  0.4569570000000  0.4962680000000  0.5020810000000 1.0
C      1  0.5430310000000  0.5016860000000  0.5043320000000 1.0
C      1  0.5072000000000  0.5591110000000  0.5270700000000 1.0
C      1  0.4970920000000  0.4488880000000  0.5162900000000 1.0
C      1  0.5637400000000  0.5127090000000  0.4162050000000 1.0
C      1  0.4536470000000  0.5091180000000  0.4485810000000 1.0
C      1  0.5255320000000  0.4930750000000  0.4774620000000 1.0
C      1  0.4706950000000  0.4958560000000  0.4711130000000 1.0
C      1  0.4976540000000  0.4986420000000  0.5252780000000 1.0
C      1  0.5001480000000  0.4905380000000  0.4549740000000 1.0
C      1  0.4961280000000  0.4972440000000  0.4940220000000 1.0
C      1  0.4981670000000  0.5005060000000  0.5592300000000 1.0
END
