TITL C-3289327-5623-692 -0.00159090688368237 125000 -981.0644737592 0 0 177 (C1) n - 1
REM
REM in /nfs/bkarasulu/CARBON/AIRSS/Generating-Clusters/AIREBO/with-SteepDescent/Higher-Symm/SD-CG/HFTN-CG
REM
REM
REM
REM
REM
REM ./C.cell (b20cbc046b6831c77cfcea5457e17084)
REM
REM compiler GCC version 9.2.1 20190827 (Red Hat 9.2.1-1)
REM options -cpp -mtune=generic -march=x86-64 -g -O0 -fpre-include=/usr/include/finclude/math-vector-fortran.h
REM seed 287475275 -369689593 -1575797343 -781459762 -1606295674 -1801802739 289014075 1937116717 -442440195 911308791 899333468 833732376 -1694397437 -183419435 -341249524 -1572038632 1811600226 -606960238 -1423218772 920539607 -500296204 1221264301 -776076207 -1261729668 1869834471 -762057121 -370772044 378694700 1022322714 568982190 1919695356 -432938301 -424154604
REM
CELL 1.54180   50.00000   50.00000   50.00000   90.00000   90.00000   90.00000
LATT -1
SFAC C  
C      1  0.5274450000000  0.5615950000000  0.5767290000000 1.0
C      1  0.5371570000000  0.4025950000000  0.5148520000000 1.0
C      1  0.5322410000000  0.5321260000000  0.4036760000000 1.0
C      1  0.4727820000000  0.5518320000000  0.5716190000000 1.0
C      1  0.4805530000000  0.4128450000000  0.5081790000000 1.0
C      1  0.4726740000000  0.5289760000000  0.4219480000000 1.0
C      1  0.5384880000000  0.5738330000000  0.4391650000000 1.0
C      1  0.5320940000000  0.5150360000000  0.5984590000000 1.0
C      1  0.5425630000000  0.4103030000000  0.4596230000000 1.0
C      1  0.4804940000000  0.5746600000000  0.4354860000000 1.0
C      1  0.4532490000000  0.5146350000000  0.6027710000000 1.0
C      1  0.4813370000000  0.4051600000000  0.4584060000000 1.0
C      1  0.5577690000000  0.4250820000000  0.5201500000000 1.0
C      1  0.5546920000000  0.5191900000000  0.4195950000000 1.0
C      1  0.5521890000000  0.5549730000000  0.5592740000000 1.0
C      1  0.4524360000000  0.4264010000000  0.5141450000000 1.0
C      1  0.4399990000000  0.5266790000000  0.4234820000000 1.0
C      1  0.4482820000000  0.5529310000000  0.5480510000000 1.0
C      1  0.5134400000000  0.5156510000000  0.4681760000000 1.0
C      1  0.5048200000000  0.5337200000000  0.5319510000000 1.0
C      1  0.5163570000000  0.4627500000000  0.5001310000000 1.0
C      1  0.4835510000000  0.5175250000000  0.4520690000000 1.0
C      1  0.4777580000000  0.5266080000000  0.5513540000000 1.0
C      1  0.4870490000000  0.4455770000000  0.5015920000000 1.0
C      1  0.4796810000000  0.4487420000000  0.4066950000000 1.0
C      1  0.4867070000000  0.6080860000000  0.5031280000000 1.0
C      1  0.4861160000000  0.4465490000000  0.5886830000000 1.0
C      1  0.5119770000000  0.4434840000000  0.4036180000000 1.0
C      1  0.5169600000000  0.6049490000000  0.5045730000000 1.0
C      1  0.5175360000000  0.4470230000000  0.5979790000000 1.0
C      1  0.5156000000000  0.5181140000000  0.5595710000000 1.0
C      1  0.5259750000000  0.4368180000000  0.4840940000000 1.0
C      1  0.5206340000000  0.5401370000000  0.4504590000000 1.0
C      1  0.4703970000000  0.5038590000000  0.5754540000000 1.0
C      1  0.4762070000000  0.4347800000000  0.4712390000000 1.0
C      1  0.4831220000000  0.5507090000000  0.4595170000000 1.0
C      1  0.5733460000000  0.5709670000000  0.5379150000000 1.0
C      1  0.5776770000000  0.4394770000000  0.5436610000000 1.0
C      1  0.5733510000000  0.4907750000000  0.4187330000000 1.0
C      1  0.4215020000000  0.5677230000000  0.5405550000000 1.0
C      1  0.4242070000000  0.4324800000000  0.5321180000000 1.0
C      1  0.4154000000000  0.5027560000000  0.4222460000000 1.0
C      1  0.5431160000000  0.5070170000000  0.5562420000000 1.0
C      1  0.5424280000000  0.4513710000000  0.4581420000000 1.0
C      1  0.5464960000000  0.5472360000000  0.4679180000000 1.0
C      1  0.4508720000000  0.4808240000000  0.5656920000000 1.0
C      1  0.4532830000000  0.4511450000000  0.4594800000000 1.0
C      1  0.4565450000000  0.5615970000000  0.4739320000000 1.0
C      1  0.5171470000000  0.4537430000000  0.5444520000000 1.0
C      1  0.5197940000000  0.4836860000000  0.4317790000000 1.0
C      1  0.5162530000000  0.5617450000000  0.5169920000000 1.0
C      1  0.4842330000000  0.4514220000000  0.5349790000000 1.0
C      1  0.4897620000000  0.4866100000000  0.4392230000000 1.0
C      1  0.4835010000000  0.5694710000000  0.5120790000000 1.0
C      1  0.4154530000000  0.5135870000000  0.4855120000000 1.0
C      1  0.4232980000000  0.5130040000000  0.5162690000000 1.0
C      1  0.4176040000000  0.4857420000000  0.5014670000000 1.0
C      1  0.5781040000000  0.5046600000000  0.4843260000000 1.0
C      1  0.5804660000000  0.5095510000000  0.5154710000000 1.0
C      1  0.5794210000000  0.4789720000000  0.5038590000000 1.0
C      1  0.4747790000000  0.4907290000000  0.4113690000000 1.0
C      1  0.4723850000000  0.5856490000000  0.5375170000000 1.0
C      1  0.4751670000000  0.4221910000000  0.5466460000000 1.0
C      1  0.5258160000000  0.4883260000000  0.4020860000000 1.0
C      1  0.5239780000000  0.5848400000000  0.5384720000000 1.0
C      1  0.5287790000000  0.4255410000000  0.5526300000000 1.0
C      1  0.5261050000000  0.5778600000000  0.4887200000000 1.0
C      1  0.5177570000000  0.4692930000000  0.5747540000000 1.0
C      1  0.5196080000000  0.4520690000000  0.4356260000000 1.0
C      1  0.4786040000000  0.5842370000000  0.4818310000000 1.0
C      1  0.4794750000000  0.4667020000000  0.5639080000000 1.0
C      1  0.4767020000000  0.4552490000000  0.4371010000000 1.0
C      1  0.5759440000000  0.4615960000000  0.5694440000000 1.0
C      1  0.5705080000000  0.4583940000000  0.4269970000000 1.0
C      1  0.5731010000000  0.5780140000000  0.5045910000000 1.0
C      1  0.4255690000000  0.4503320000000  0.5642340000000 1.0
C      1  0.4196700000000  0.4673820000000  0.4298480000000 1.0
C      1  0.4247770000000  0.5807330000000  0.5089180000000 1.0
C      1  0.3893810000000  0.4765110000000  0.5392430000000 1.0
C      1  0.3829180000000  0.4833560000000  0.4657260000000 1.0
C      1  0.3898650000000  0.5444900000000  0.5095630000000 1.0
C      1  0.6135980000000  0.4783790000000  0.5457990000000 1.0
C      1  0.6015650000000  0.4684700000000  0.4673280000000 1.0
C      1  0.6092590000000  0.5465660000000  0.5050180000000 1.0
C      1  0.5065610000000  0.5190610000000  0.5013090000000 1.0
C      1  0.5098560000000  0.4899700000000  0.5164760000000 1.0
C      1  0.5115340000000  0.4864910000000  0.4769190000000 1.0
C      1  0.4782360000000  0.5091170000000  0.4853350000000 1.0
C      1  0.4826690000000  0.5010860000000  0.5294220000000 1.0
C      1  0.4814150000000  0.4752240000000  0.4854990000000 1.0
C      1  0.4925820000000  0.4014330000000  0.5347610000000 1.0
C      1  0.4870030000000  0.5135820000000  0.3963800000000 1.0
C      1  0.4843540000000  0.5781520000000  0.5620910000000 1.0
C      1  0.5201040000000  0.4041970000000  0.5370420000000 1.0
C      1  0.5149870000000  0.5125130000000  0.3935030000000 1.0
C      1  0.5120240000000  0.5802670000000  0.5630940000000 1.0
C      1  0.5538160000000  0.5163480000000  0.4737640000000 1.0
C      1  0.5544850000000  0.5146220000000  0.5275390000000 1.0
C      1  0.5575250000000  0.4588870000000  0.4943520000000 1.0
C      1  0.4371370000000  0.5268760000000  0.4710700000000 1.0
C      1  0.4516510000000  0.5144220000000  0.5238190000000 1.0
C      1  0.4402360000000  0.4683590000000  0.4931030000000 1.0
C      1  0.5882040000000  0.5422210000000  0.5483560000000 1.0
C      1  0.5953010000000  0.4374070000000  0.5144950000000 1.0
C      1  0.5906010000000  0.5144620000000  0.4359810000000 1.0
C      1  0.4046450000000  0.5477810000000  0.5603740000000 1.0
C      1  0.4010380000000  0.4333550000000  0.5127240000000 1.0
C      1  0.3979250000000  0.5270070000000  0.4366650000000 1.0
C      1  0.3935380000000  0.5396030000000  0.4645580000000 1.0
C      1  0.4038780000000  0.5137760000000  0.5610240000000 1.0
C      1  0.3918790000000  0.4516000000000  0.4898840000000 1.0
C      1  0.5884780000000  0.5361840000000  0.4620720000000 1.0
C      1  0.5865910000000  0.5108800000000  0.5687260000000 1.0
C      1  0.6107240000000  0.4570690000000  0.4927530000000 1.0
C      1  0.5535410000000  0.4293060000000  0.5645440000000 1.0
C      1  0.5517310000000  0.4772820000000  0.3976430000000 1.0
C      1  0.5498670000000  0.5931300000000  0.5330770000000 1.0
C      1  0.4461330000000  0.4245770000000  0.5558510000000 1.0
C      1  0.4456330000000  0.4872840000000  0.4205340000000 1.0
C      1  0.4420150000000  0.5932440000000  0.5354300000000 1.0
C      1  0.4063010000000  0.4608030000000  0.4604310000000 1.0
C      1  0.4103320000000  0.5590530000000  0.4869400000000 1.0
C      1  0.4099420000000  0.4805440000000  0.5650620000000 1.0
C      1  0.5836840000000  0.4516800000000  0.4515920000000 1.0
C      1  0.5894610000000  0.5590290000000  0.4873980000000 1.0
C      1  0.5941610000000  0.4834160000000  0.5656150000000 1.0
C      1  0.5497990000000  0.4489200000000  0.5873810000000 1.0
C      1  0.5456390000000  0.4482180000000  0.4057410000000 1.0
C      1  0.5510040000000  0.6040590000000  0.5046410000000 1.0
C      1  0.4535390000000  0.4432080000000  0.5827880000000 1.0
C      1  0.4464210000000  0.4545980000000  0.4111670000000 1.0
C      1  0.4535720000000  0.6007050000000  0.5057040000000 1.0
C      1  0.3934470000000  0.4723960000000  0.5129280000000 1.0
C      1  0.3886530000000  0.5090290000000  0.4709600000000 1.0
C      1  0.4012380000000  0.5271640000000  0.5298820000000 1.0
C      1  0.6085880000000  0.4744990000000  0.5191590000000 1.0
C      1  0.5998600000000  0.5022100000000  0.4634290000000 1.0
C      1  0.5994100000000  0.5298890000000  0.5246090000000 1.0
C      1  0.4948420000000  0.3995580000000  0.4846180000000 1.0
C      1  0.4898530000000  0.5549890000000  0.4168310000000 1.0
C      1  0.4812250000000  0.5344970000000  0.5984270000000 1.0
C      1  0.5250610000000  0.4058060000000  0.4872680000000 1.0
C      1  0.5196140000000  0.5515050000000  0.4218010000000 1.0
C      1  0.5128080000000  0.5368410000000  0.5860470000000 1.0
C      1  0.5153810000000  0.4912300000000  0.6010710000000 1.0
C      1  0.5237800000000  0.4184150000000  0.4381700000000 1.0
C      1  0.5222680000000  0.5863060000000  0.4586450000000 1.0
C      1  0.4859580000000  0.5015900000000  0.6056040000000 1.0
C      1  0.4910850000000  0.4243220000000  0.4358510000000 1.0
C      1  0.4941800000000  0.5892310000000  0.4563850000000 1.0
C      1  0.5797340000000  0.4184440000000  0.4965590000000 1.0
C      1  0.5775470000000  0.5419440000000  0.4244070000000 1.0
C      1  0.5764050000000  0.5412520000000  0.5788030000000 1.0
C      1  0.4323860000000  0.4200590000000  0.4918760000000 1.0
C      1  0.4282550000000  0.5524900000000  0.4312570000000 1.0
C      1  0.4402190000000  0.5300340000000  0.5646200000000 1.0
C      1  0.4291940000000  0.5564560000000  0.4595390000000 1.0
C      1  0.4306410000000  0.5036930000000  0.5794320000000 1.0
C      1  0.4281280000000  0.4431150000000  0.4756540000000 1.0
C      1  0.5680870000000  0.5598590000000  0.4483400000000 1.0
C      1  0.5572610000000  0.5135500000000  0.5824500000000 1.0
C      1  0.5647880000000  0.4326270000000  0.4724790000000 1.0
C      1  0.5458800000000  0.4563860000000  0.5262650000000 1.0
C      1  0.5438130000000  0.5014330000000  0.4465100000000 1.0
C      1  0.5443660000000  0.5457080000000  0.5274900000000 1.0
C      1  0.4546210000000  0.4592770000000  0.5201340000000 1.0
C      1  0.4456050000000  0.5053350000000  0.4493550000000 1.0
C      1  0.4625760000000  0.5463860000000  0.5204550000000 1.0
C      1  0.5416490000000  0.4786350000000  0.4716740000000 1.0
C      1  0.5365560000000  0.5335000000000  0.4972970000000 1.0
C      1  0.5359870000000  0.4864370000000  0.5316650000000 1.0
C      1  0.4554310000000  0.4824530000000  0.4665060000000 1.0
C      1  0.4610950000000  0.5339400000000  0.4905470000000 1.0
C      1  0.4566970000000  0.4842590000000  0.5361820000000 1.0
C      1  0.4994370000000  0.4936510000000  0.5648220000000 1.0
C      1  0.5034910000000  0.4480640000000  0.4653230000000 1.0
C      1  0.5084700000000  0.5541280000000  0.4777380000000 1.0
END
