TITL C-3289330-4660-693 -6.02328890143278e-06 125000 -700.150863320849 0 0 131 (C1) n - 1
REM
REM in /nfs/bkarasulu/CARBON/AIRSS/Generating-Clusters/AIREBO/with-SteepDescent/Higher-Symm/SD-CG/HFTN-CG
REM
REM
REM
REM
REM
REM ./C.cell (b20cbc046b6831c77cfcea5457e17084)
REM
REM compiler GCC version 9.2.1 20190827 (Red Hat 9.2.1-1)
REM options -cpp -mtune=generic -march=x86-64 -g -O0 -fpre-include=/usr/include/finclude/math-vector-fortran.h
REM seed -1488643573 1026145338 -1129211239 2014916711 695014693 -1375372547 440053994 -345872475 -637572644 775041186 -336107834 -844113345 1266541563 -1248199869 1675775681 -31602028 -1351787408 373882595 1659770390 1426872414 282440010 407639260 -677912473 -3384826 248004340 -1355101859 -928887306 1441354123 -211902420 -2030460234 642892542 -1893703453 -1758492001
REM
CELL 1.54180   50.00000   50.00000   50.00000   90.00000   90.00000   90.00000
LATT -1
SFAC C  
C      1  0.4709510000000  0.4835930000000  0.4123070000000 1.0
C      1  0.5420450000000  0.5335620000000  0.4192640000000 1.0
C      1  0.5834690000000  0.4707120000000  0.4611870000000 1.0
C      1  0.5848200000000  0.5248320000000  0.5318230000000 1.0
C      1  0.5252220000000  0.4657910000000  0.5777990000000 1.0
C      1  0.4643480000000  0.5199350000000  0.5831000000000 1.0
C      1  0.4150700000000  0.4633620000000  0.5254920000000 1.0
C      1  0.4248760000000  0.5252870000000  0.4539990000000 1.0
C      1  0.4213380000000  0.4787380000000  0.4718090000000 1.0
C      1  0.4669900000000  0.5323010000000  0.4181650000000 1.0
C      1  0.5289030000000  0.4779740000000  0.4223630000000 1.0
C      1  0.5808330000000  0.5333840000000  0.4643440000000 1.0
C      1  0.5858700000000  0.4713260000000  0.5261820000000 1.0
C      1  0.5417900000000  0.5153390000000  0.5804230000000 1.0
C      1  0.4624440000000  0.4769030000000  0.5787310000000 1.0
C      1  0.4292360000000  0.5132850000000  0.5414330000000 1.0
C      1  0.5720120000000  0.4921760000000  0.5706500000000 1.0
C      1  0.4941330000000  0.5084210000000  0.5841980000000 1.0
C      1  0.4245550000000  0.4876520000000  0.5754180000000 1.0
C      1  0.4025370000000  0.5082520000000  0.5121320000000 1.0
C      1  0.4473510000000  0.4901020000000  0.4317390000000 1.0
C      1  0.5015700000000  0.5154470000000  0.3903960000000 1.0
C      1  0.5733400000000  0.4935600000000  0.4380890000000 1.0
C      1  0.5922430000000  0.5051260000000  0.5051060000000 1.0
C      1  0.4594090000000  0.5645450000000  0.4180180000000 1.0
C      1  0.5438780000000  0.4525700000000  0.4054370000000 1.0
C      1  0.5888420000000  0.5663310000000  0.4617860000000 1.0
C      1  0.5933190000000  0.4425630000000  0.5427310000000 1.0
C      1  0.5389500000000  0.5421040000000  0.5903040000000 1.0
C      1  0.4321640000000  0.4609610000000  0.5905320000000 1.0
C      1  0.4183540000000  0.5409070000000  0.5283890000000 1.0
C      1  0.4167770000000  0.4469420000000  0.4640420000000 1.0
C      1  0.4724580000000  0.4382750000000  0.5772650000000 1.0
C      1  0.4486010000000  0.5635450000000  0.5400590000000 1.0
C      1  0.4434270000000  0.4187140000000  0.4932240000000 1.0
C      1  0.4565420000000  0.5709280000000  0.4512910000000 1.0
C      1  0.5082810000000  0.4417840000000  0.4358390000000 1.0
C      1  0.5545100000000  0.5640770000000  0.4604370000000 1.0
C      1  0.5654060000000  0.4421750000000  0.5049870000000 1.0
C      1  0.5432090000000  0.5634620000000  0.5484360000000 1.0
C      1  0.4906140000000  0.4153370000000  0.4867360000000 1.0
C      1  0.4930350000000  0.5839520000000  0.4604690000000 1.0
C      1  0.5139610000000  0.4379570000000  0.4796910000000 1.0
C      1  0.5313630000000  0.5663160000000  0.4944680000000 1.0
C      1  0.5168910000000  0.4390980000000  0.5251230000000 1.0
C      1  0.5015650000000  0.5637480000000  0.5275520000000 1.0
C      1  0.4844230000000  0.4292560000000  0.5277960000000 1.0
C      1  0.4775850000000  0.5745380000000  0.4892630000000 1.0
C      1  0.4815920000000  0.5420030000000  0.4890110000000 1.0
C      1  0.4771570000000  0.4796840000000  0.4874000000000 1.0
C      1  0.5089620000000  0.5291320000000  0.4760630000000 1.0
C      1  0.5079650000000  0.4659380000000  0.4874910000000 1.0
C      1  0.5285110000000  0.5352740000000  0.5032050000000 1.0
C      1  0.5159260000000  0.4693170000000  0.5175770000000 1.0
C      1  0.4973490000000  0.5315160000000  0.5172650000000 1.0
C      1  0.4742070000000  0.4586730000000  0.5139860000000 1.0
C      1  0.4465710000000  0.4945150000000  0.4882800000000 1.0
C      1  0.5000610000000  0.5104660000000  0.4488770000000 1.0
C      1  0.5171490000000  0.4879910000000  0.4678320000000 1.0
C      1  0.5478500000000  0.5083280000000  0.5011030000000 1.0
C      1  0.5370920000000  0.4934680000000  0.5259040000000 1.0
C      1  0.5060120000000  0.5038170000000  0.5350190000000 1.0
C      1  0.4762480000000  0.4876650000000  0.5317820000000 1.0
C      1  0.4454880000000  0.4923340000000  0.5222110000000 1.0
C      1  0.4488730000000  0.4501240000000  0.4967910000000 1.0
C      1  0.4558100000000  0.5259470000000  0.4791260000000 1.0
C      1  0.4798870000000  0.4839740000000  0.4542480000000 1.0
C      1  0.5361430000000  0.5158970000000  0.4637700000000 1.0
C      1  0.5544070000000  0.4854130000000  0.4839920000000 1.0
C      1  0.5451810000000  0.5384770000000  0.5326990000000 1.0
C      1  0.5083300000000  0.4735320000000  0.5504560000000 1.0
C      1  0.4702700000000  0.5212130000000  0.5361380000000 1.0
C      1  0.5920750000000  0.4964860000000  0.5446110000000 1.0
C      1  0.5204620000000  0.4974810000000  0.5855950000000 1.0
C      1  0.4453620000000  0.5012810000000  0.5951610000000 1.0
C      1  0.4074870000000  0.4888930000000  0.5339810000000 1.0
C      1  0.4262490000000  0.4974600000000  0.4486810000000 1.0
C      1  0.4741970000000  0.5078790000000  0.3986890000000 1.0
C      1  0.5491050000000  0.5043520000000  0.4214900000000 1.0
C      1  0.5892960000000  0.5018050000000  0.4737000000000 1.0
C      1  0.4372190000000  0.5560370000000  0.5085590000000 1.0
C      1  0.4374590000000  0.4287760000000  0.4649950000000 1.0
C      1  0.4868260000000  0.5609000000000  0.4377950000000 1.0
C      1  0.5367420000000  0.4399040000000  0.4313660000000 1.0
C      1  0.5705850000000  0.5696950000000  0.4898940000000 1.0
C      1  0.5655050000000  0.4378260000000  0.5332850000000 1.0
C      1  0.5273530000000  0.5603580000000  0.5715220000000 1.0
C      1  0.4451460000000  0.4412360000000  0.5736560000000 1.0
C      1  0.4952930000000  0.5257300000000  0.5587120000000 1.0
C      1  0.4438280000000  0.4740210000000  0.5508170000000 1.0
C      1  0.4254880000000  0.5203650000000  0.4948670000000 1.0
C      1  0.4596040000000  0.4612850000000  0.4425590000000 1.0
C      1  0.4996570000000  0.5262600000000  0.4229840000000 1.0
C      1  0.5455370000000  0.4789220000000  0.4520060000000 1.0
C      1  0.5713970000000  0.5301360000000  0.4949910000000 1.0
C      1  0.5572950000000  0.4772850000000  0.5438540000000 1.0
C      1  0.5428880000000  0.4497510000000  0.5534940000000 1.0
C      1  0.5001110000000  0.5545200000000  0.5660690000000 1.0
C      1  0.4344620000000  0.4421180000000  0.5436560000000 1.0
C      1  0.4229260000000  0.5487040000000  0.4785860000000 1.0
C      1  0.4595670000000  0.4354590000000  0.4499770000000 1.0
C      1  0.5170160000000  0.5538960000000  0.4236710000000 1.0
C      1  0.5572330000000  0.4471810000000  0.4554370000000 1.0
C      1  0.5805560000000  0.5534130000000  0.5180340000000 1.0
C      1  0.4969600000000  0.4708380000000  0.4279420000000 1.0
C      1  0.5536010000000  0.5334750000000  0.4484710000000 1.0
C      1  0.5790610000000  0.4688950000000  0.4948570000000 1.0
C      1  0.5582810000000  0.5165080000000  0.5512700000000 1.0
C      1  0.4910440000000  0.4650400000000  0.5784420000000 1.0
C      1  0.4502610000000  0.5348070000000  0.5571980000000 1.0
C      1  0.4242920000000  0.4634330000000  0.4996670000000 1.0
C      1  0.4537010000000  0.5382910000000  0.4475070000000 1.0
C      1  0.5181720000000  0.4112330000000  0.4590950000000 1.0
C      1  0.5298490000000  0.5928510000000  0.4729980000000 1.0
C      1  0.5337580000000  0.4190230000000  0.5085050000000 1.0
C      1  0.5226830000000  0.5889960000000  0.5259110000000 1.0
C      1  0.4878460000000  0.4218130000000  0.5607940000000 1.0
C      1  0.4676200000000  0.5832330000000  0.5198920000000 1.0
C      1  0.4666230000000  0.4007400000000  0.5061570000000 1.0
C      1  0.5057900000000  0.6129450000000  0.4627240000000 1.0
C      1  0.5234590000000  0.5717300000000  0.4488190000000 1.0
C      1  0.5466990000000  0.4335830000000  0.4806370000000 1.0
C      1  0.5533410000000  0.5760650000000  0.5185160000000 1.0
C      1  0.5138120000000  0.4344490000000  0.5569080000000 1.0
C      1  0.4795170000000  0.5720610000000  0.5498020000000 1.0
C      1  0.4509690000000  0.4233960000000  0.5261010000000 1.0
C      1  0.4446970000000  0.5741270000000  0.4806350000000 1.0
C      1  0.4869160000000  0.4237850000000  0.4540090000000 1.0
C      1  0.4973660000000  0.3997530000000  0.5161920000000 1.0
C      1  0.5069980000000  0.5892950000000  0.4975380000000 1.0
C      1  0.4899810000000  0.5041340000000  0.4985010000000 1.0
END
