TITL C-3289328-6581-733 -0.00172758485480428 125000 -848.545121842522 0 0 155 (C1) n - 1
REM
REM in /nfs/bkarasulu/CARBON/AIRSS/Generating-Clusters/AIREBO/with-SteepDescent/Higher-Symm/SD-CG/HFTN-CG
REM
REM
REM
REM
REM
REM ./C.cell (b20cbc046b6831c77cfcea5457e17084)
REM
REM compiler GCC version 9.2.1 20190827 (Red Hat 9.2.1-1)
REM options -cpp -mtune=generic -march=x86-64 -g -O0 -fpre-include=/usr/include/finclude/math-vector-fortran.h
REM seed 2116401203 402892863 -824468500 1389444229 538754010 -1734351043 -1428361307 -66645297 -565312852 294078037 -860546508 526109880 397009068 56806055 -697859224 -485285986 1099586390 -514676942 1437489059 1205394857 -1595873361 -868810656 1674590636 -217489094 486447202 -1477696983 -17941634 727734550 538644799 109751462 2058670461 566341933 149984503
REM
CELL 1.54180   50.00000   50.00000   50.00000   90.00000   90.00000   90.00000
LATT -1
SFAC C  
C      1  0.5542660000000  0.4879480000000  0.4298260000000 1.0
C      1  0.4530120000000  0.4647570000000  0.4286120000000 1.0
C      1  0.4854490000000  0.5530030000000  0.4251480000000 1.0
C      1  0.4850890000000  0.4679840000000  0.5052070000000 1.0
C      1  0.4535330000000  0.5236660000000  0.5044500000000 1.0
C      1  0.5287710000000  0.5052500000000  0.5036860000000 1.0
C      1  0.4880380000000  0.4886600000000  0.4838780000000 1.0
C      1  0.4974670000000  0.5205290000000  0.4782680000000 1.0
C      1  0.5187560000000  0.4856020000000  0.4814400000000 1.0
C      1  0.4359670000000  0.5796110000000  0.4846540000000 1.0
C      1  0.5933630000000  0.5163010000000  0.4916590000000 1.0
C      1  0.4570590000000  0.4068660000000  0.4850170000000 1.0
C      1  0.4517450000000  0.5523870000000  0.5742240000000 1.0
C      1  0.5558930000000  0.5128350000000  0.5650920000000 1.0
C      1  0.4770140000000  0.4533400000000  0.5587380000000 1.0
C      1  0.5518080000000  0.4127680000000  0.5382850000000 1.0
C      1  0.4016870000000  0.4992320000000  0.5420000000000 1.0
C      1  0.5533360000000  0.5937950000000  0.5448080000000 1.0
C      1  0.5486690000000  0.4636770000000  0.5855180000000 1.0
C      1  0.4577420000000  0.4845050000000  0.5899090000000 1.0
C      1  0.5202160000000  0.5334020000000  0.5884950000000 1.0
C      1  0.5160430000000  0.5161250000000  0.4117660000000 1.0
C      1  0.5076660000000  0.4663800000000  0.4212980000000 1.0
C      1  0.4820430000000  0.5158620000000  0.4109850000000 1.0
C      1  0.4515030000000  0.4476090000000  0.5120770000000 1.0
C      1  0.4762180000000  0.5570300000000  0.5293850000000 1.0
C      1  0.5603660000000  0.4929140000000  0.5248800000000 1.0
C      1  0.4153260000000  0.4345860000000  0.4942910000000 1.0
C      1  0.4835310000000  0.6083740000000  0.5020950000000 1.0
C      1  0.6034720000000  0.4584330000000  0.4978750000000 1.0
C      1  0.4221910000000  0.4865350000000  0.4941380000000 1.0
C      1  0.5220140000000  0.5754000000000  0.4938950000000 1.0
C      1  0.5516700000000  0.4351310000000  0.5025280000000 1.0
C      1  0.5151640000000  0.5473090000000  0.5608690000000 1.0
C      1  0.5449340000000  0.4679980000000  0.5519940000000 1.0
C      1  0.4532970000000  0.4777050000000  0.5576330000000 1.0
C      1  0.4540440000000  0.5372590000000  0.4551900000000 1.0
C      1  0.5604510000000  0.5238980000000  0.4562770000000 1.0
C      1  0.4972520000000  0.4306570000000  0.4568880000000 1.0
C      1  0.4650250000000  0.5205130000000  0.4774620000000 1.0
C      1  0.5448980000000  0.5274060000000  0.4835570000000 1.0
C      1  0.4993920000000  0.4418510000000  0.4886620000000 1.0
C      1  0.5285490000000  0.4928230000000  0.4513820000000 1.0
C      1  0.4691800000000  0.4833850000000  0.4424400000000 1.0
C      1  0.4953670000000  0.5283110000000  0.4463380000000 1.0
C      1  0.4741800000000  0.4664820000000  0.6079380000000 1.0
C      1  0.4956920000000  0.5302440000000  0.6053470000000 1.0
C      1  0.5465040000000  0.4804530000000  0.6041770000000 1.0
C      1  0.4125480000000  0.5078130000000  0.3965320000000 1.0
C      1  0.5427980000000  0.5780390000000  0.4132090000000 1.0
C      1  0.5547730000000  0.4137380000000  0.4092370000000 1.0
C      1  0.4254830000000  0.5059930000000  0.4205740000000 1.0
C      1  0.5376800000000  0.5600150000000  0.4313650000000 1.0
C      1  0.5409900000000  0.4229110000000  0.4304530000000 1.0
C      1  0.4896640000000  0.5333080000000  0.5473790000000 1.0
C      1  0.5282040000000  0.4929230000000  0.5359320000000 1.0
C      1  0.4704980000000  0.4857470000000  0.5294140000000 1.0
C      1  0.4618450000000  0.5690130000000  0.4645330000000 1.0
C      1  0.5843760000000  0.5005990000000  0.4617620000000 1.0
C      1  0.4512250000000  0.4194760000000  0.4600690000000 1.0
C      1  0.4301850000000  0.4432080000000  0.4649330000000 1.0
C      1  0.4938320000000  0.5574410000000  0.4639260000000 1.0
C      1  0.5564240000000  0.4832890000000  0.4688910000000 1.0
C      1  0.5175720000000  0.4072560000000  0.4492250000000 1.0
C      1  0.4229760000000  0.5494630000000  0.4546350000000 1.0
C      1  0.5724400000000  0.5526500000000  0.4495340000000 1.0
C      1  0.4873420000000  0.5541520000000  0.4973650000000 1.0
C      1  0.5534540000000  0.4746250000000  0.4980130000000 1.0
C      1  0.4489450000000  0.4583500000000  0.4856890000000 1.0
C      1  0.4680930000000  0.4044950000000  0.5518000000000 1.0
C      1  0.4322420000000  0.5794400000000  0.5524060000000 1.0
C      1  0.5988170000000  0.5255000000000  0.5488080000000 1.0
C      1  0.5421520000000  0.5301840000000  0.4285320000000 1.0
C      1  0.5182060000000  0.4451360000000  0.4379380000000 1.0
C      1  0.4516170000000  0.5211860000000  0.4253060000000 1.0
C      1  0.5718200000000  0.4406530000000  0.4484720000000 1.0
C      1  0.4181030000000  0.4887590000000  0.4417440000000 1.0
C      1  0.5126200000000  0.5900590000000  0.4397440000000 1.0
C      1  0.4658300000000  0.5943050000000  0.4869280000000 1.0
C      1  0.6001980000000  0.4833930000000  0.4864750000000 1.0
C      1  0.4341270000000  0.4101970000000  0.5013180000000 1.0
C      1  0.4890920000000  0.4521510000000  0.4044460000000 1.0
C      1  0.4663880000000  0.5342510000000  0.3907510000000 1.0
C      1  0.5398150000000  0.5117950000000  0.3933510000000 1.0
C      1  0.5496440000000  0.5240380000000  0.5228610000000 1.0
C      1  0.4811930000000  0.4425070000000  0.5267730000000 1.0
C      1  0.4490520000000  0.5483620000000  0.5185430000000 1.0
C      1  0.4990630000000  0.4297320000000  0.5693770000000 1.0
C      1  0.4243140000000  0.5491860000000  0.5773390000000 1.0
C      1  0.5592090000000  0.5389350000000  0.5737470000000 1.0
C      1  0.5266830000000  0.4989570000000  0.5692700000000 1.0
C      1  0.5035810000000  0.4749250000000  0.5622160000000 1.0
C      1  0.4651110000000  0.5263890000000  0.5666730000000 1.0
C      1  0.4872660000000  0.5874440000000  0.5710870000000 1.0
C      1  0.5911750000000  0.4734150000000  0.5610310000000 1.0
C      1  0.4307340000000  0.4357680000000  0.5688450000000 1.0
C      1  0.4917850000000  0.4104950000000  0.5311700000000 1.0
C      1  0.4221040000000  0.5556920000000  0.5379590000000 1.0
C      1  0.5921750000000  0.5491550000000  0.5536180000000 1.0
C      1  0.4672240000000  0.4422500000000  0.4200740000000 1.0
C      1  0.4551470000000  0.5533210000000  0.4165640000000 1.0
C      1  0.5664440000000  0.5122690000000  0.4128620000000 1.0
C      1  0.5344900000000  0.4000020000000  0.4757130000000 1.0
C      1  0.4122360000000  0.5289740000000  0.4714610000000 1.0
C      1  0.5596260000000  0.5698770000000  0.4671810000000 1.0
C      1  0.5717760000000  0.5358430000000  0.5001820000000 1.0
C      1  0.4857490000000  0.4130980000000  0.4979520000000 1.0
C      1  0.4230980000000  0.5623710000000  0.5051840000000 1.0
C      1  0.4645510000000  0.5747360000000  0.5561350000000 1.0
C      1  0.5806090000000  0.5000720000000  0.5495800000000 1.0
C      1  0.4566250000000  0.4265140000000  0.5632990000000 1.0
C      1  0.5213410000000  0.4200040000000  0.5456040000000 1.0
C      1  0.4147070000000  0.5276230000000  0.5556700000000 1.0
C      1  0.5637380000000  0.5647920000000  0.5526220000000 1.0
C      1  0.4083940000000  0.5360230000000  0.4979530000000 1.0
C      1  0.5697330000000  0.5663540000000  0.4932280000000 1.0
C      1  0.5119390000000  0.3949970000000  0.4994980000000 1.0
C      1  0.5757690000000  0.4295760000000  0.5416040000000 1.0
C      1  0.4053360000000  0.4710690000000  0.5428150000000 1.0
C      1  0.5251480000000  0.5971070000000  0.5459200000000 1.0
C      1  0.5183460000000  0.5417050000000  0.4910490000000 1.0
C      1  0.5307870000000  0.4538430000000  0.4832910000000 1.0
C      1  0.4562280000000  0.4885830000000  0.4718480000000 1.0
C      1  0.5239180000000  0.5022580000000  0.6017020000000 1.0
C      1  0.4972030000000  0.4868240000000  0.5929460000000 1.0
C      1  0.4741210000000  0.5117310000000  0.5912010000000 1.0
C      1  0.5260120000000  0.5683300000000  0.4622080000000 1.0
C      1  0.5451570000000  0.4302970000000  0.4633890000000 1.0
C      1  0.4250110000000  0.5015410000000  0.4680300000000 1.0
C      1  0.5082140000000  0.6105730000000  0.5266180000000 1.0
C      1  0.5965340000000  0.4331140000000  0.5205860000000 1.0
C      1  0.3991580000000  0.4535650000000  0.5212240000000 1.0
C      1  0.5116570000000  0.5791710000000  0.5631020000000 1.0
C      1  0.5730690000000  0.4534650000000  0.5559720000000 1.0
C      1  0.4259800000000  0.4614950000000  0.5586480000000 1.0
C      1  0.5387730000000  0.5462950000000  0.5402970000000 1.0
C      1  0.5114830000000  0.4517820000000  0.5385930000000 1.0
C      1  0.4415460000000  0.5091930000000  0.5524510000000 1.0
C      1  0.5418440000000  0.4071470000000  0.5079510000000 1.0
C      1  0.4107830000000  0.5164970000000  0.5176670000000 1.0
C      1  0.5658910000000  0.5838450000000  0.5172740000000 1.0
C      1  0.4273330000000  0.4620360000000  0.4404290000000 1.0
C      1  0.4997440000000  0.5755540000000  0.4200660000000 1.0
C      1  0.5717340000000  0.4671110000000  0.4439380000000 1.0
C      1  0.4716090000000  0.4256120000000  0.4427600000000 1.0
C      1  0.4408790000000  0.5703230000000  0.4372130000000 1.0
C      1  0.5919210000000  0.5014280000000  0.4303280000000 1.0
C      1  0.4402150000000  0.4995830000000  0.5198630000000 1.0
C      1  0.5387310000000  0.5679680000000  0.5181710000000 1.0
C      1  0.5383170000000  0.4568290000000  0.5223110000000 1.0
C      1  0.5136510000000  0.6031440000000  0.4968480000000 1.0
C      1  0.5800610000000  0.4369020000000  0.4947110000000 1.0
C      1  0.4051540000000  0.4655070000000  0.4943760000000 1.0
C      1  0.4994310000000  0.4967540000000  0.4342450000000 1.0
C      1  0.4961360000000  0.5043990000000  0.5359420000000 1.0
END
