TITL C-3289323-3850-301 -0.003719171104362 125000 -682.173626974893 0 0 128 (C1) n - 1
REM
REM in /nfs/bkarasulu/CARBON/AIRSS/Generating-Clusters/AIREBO/with-SteepDescent/Higher-Symm/SD-CG/HFTN-CG
REM
REM
REM
REM
REM
REM ./C.cell (b20cbc046b6831c77cfcea5457e17084)
REM
REM compiler GCC version 9.2.1 20190827 (Red Hat 9.2.1-1)
REM options -cpp -mtune=generic -march=x86-64 -g -O0 -fpre-include=/usr/include/finclude/math-vector-fortran.h
REM seed 1401298527 1536065477 -1752835637 377408828 314058087 -1268952427 -994929931 -720041139 -547943325 254511845 1274027740 1754620898 -120998389 -551495427 -2054157236 -1985417243 1991080967 1054839240 2009895231 1660213341 -259433282 -104270151 1401682767 621397982 -544915796 -1727758531 16671772 -1720774416 1509165349 -280934176 1600478421 1058091527 1941445443
REM
CELL 1.54180   50.00000   50.00000   50.00000   90.00000   90.00000   90.00000
LATT -1
SFAC C  
C      1  0.5401290000000  0.5658930000000  0.5679780000000 1.0
C      1  0.4479380000000  0.5972670000000  0.4818380000000 1.0
C      1  0.5014210000000  0.5453840000000  0.5054530000000 1.0
C      1  0.5068300000000  0.5535190000000  0.5496220000000 1.0
C      1  0.5590270000000  0.4288760000000  0.4943490000000 1.0
C      1  0.5608630000000  0.4417310000000  0.5258140000000 1.0
C      1  0.4521250000000  0.5003730000000  0.5993420000000 1.0
C      1  0.5287930000000  0.4594400000000  0.4759570000000 1.0
C      1  0.5427810000000  0.4355270000000  0.4652210000000 1.0
C      1  0.5259380000000  0.5157350000000  0.4984870000000 1.0
C      1  0.5035650000000  0.5855180000000  0.4509790000000 1.0
C      1  0.4935570000000  0.5840210000000  0.5425330000000 1.0
C      1  0.5385830000000  0.4266120000000  0.5444600000000 1.0
C      1  0.4486820000000  0.4553880000000  0.4571320000000 1.0
C      1  0.4337760000000  0.5053830000000  0.4329160000000 1.0
C      1  0.5201490000000  0.5295550000000  0.5290260000000 1.0
C      1  0.4316250000000  0.4662880000000  0.5265870000000 1.0
C      1  0.4310330000000  0.4820360000000  0.4178490000000 1.0
C      1  0.4450270000000  0.5249910000000  0.5596180000000 1.0
C      1  0.4616860000000  0.5733250000000  0.5372700000000 1.0
C      1  0.4999220000000  0.4552620000000  0.4402980000000 1.0
C      1  0.5958460000000  0.5018290000000  0.5421880000000 1.0
C      1  0.4786480000000  0.4922500000000  0.3782230000000 1.0
C      1  0.4388840000000  0.5030860000000  0.5748680000000 1.0
C      1  0.4872230000000  0.4826090000000  0.5169060000000 1.0
C      1  0.5194660000000  0.5741080000000  0.5031430000000 1.0
C      1  0.3950530000000  0.5377380000000  0.5057400000000 1.0
C      1  0.5153550000000  0.4533790000000  0.5031120000000 1.0
C      1  0.5671930000000  0.4652300000000  0.4320310000000 1.0
C      1  0.5390990000000  0.5406150000000  0.4806080000000 1.0
C      1  0.5270430000000  0.4202590000000  0.4240030000000 1.0
C      1  0.5159750000000  0.5625880000000  0.4728130000000 1.0
C      1  0.5896140000000  0.4650520000000  0.4556980000000 1.0
C      1  0.4491330000000  0.4330390000000  0.5399450000000 1.0
C      1  0.4504100000000  0.5072120000000  0.4543600000000 1.0
C      1  0.5559020000000  0.5137290000000  0.4727850000000 1.0
C      1  0.4679630000000  0.5206360000000  0.5370850000000 1.0
C      1  0.5827070000000  0.5249580000000  0.5264020000000 1.0
C      1  0.5452630000000  0.5496580000000  0.4371730000000 1.0
C      1  0.5113720000000  0.4997730000000  0.4728040000000 1.0
C      1  0.4417110000000  0.5017300000000  0.4957740000000 1.0
C      1  0.4836280000000  0.5352540000000  0.5605680000000 1.0
C      1  0.4394770000000  0.4385590000000  0.5085420000000 1.0
C      1  0.5277310000000  0.4991150000000  0.4472830000000 1.0
C      1  0.4821560000000  0.5796640000000  0.5734780000000 1.0
C      1  0.5796440000000  0.4914680000000  0.5635810000000 1.0
C      1  0.4630760000000  0.5364950000000  0.5121920000000 1.0
C      1  0.5319640000000  0.5137130000000  0.4001680000000 1.0
C      1  0.4871280000000  0.5018610000000  0.4918480000000 1.0
C      1  0.5381160000000  0.5102280000000  0.6029930000000 1.0
C      1  0.4707820000000  0.4312460000000  0.5150400000000 1.0
C      1  0.5739130000000  0.4615760000000  0.5680690000000 1.0
C      1  0.5705010000000  0.5500770000000  0.4849650000000 1.0
C      1  0.4144760000000  0.5463190000000  0.4853140000000 1.0
C      1  0.4386900000000  0.5531680000000  0.5627410000000 1.0
C      1  0.4657730000000  0.5569000000000  0.5734140000000 1.0
C      1  0.4050710000000  0.4793460000000  0.5127930000000 1.0
C      1  0.5128700000000  0.5593560000000  0.4336040000000 1.0
C      1  0.5886530000000  0.4869400000000  0.5127400000000 1.0
C      1  0.4968090000000  0.4690730000000  0.4712190000000 1.0
C      1  0.5448310000000  0.4593600000000  0.6152550000000 1.0
C      1  0.4883460000000  0.4663470000000  0.5585080000000 1.0
C      1  0.5782160000000  0.5747650000000  0.4949520000000 1.0
C      1  0.5052160000000  0.5953270000000  0.5180230000000 1.0
C      1  0.5849600000000  0.5237760000000  0.4988170000000 1.0
C      1  0.4140720000000  0.5002220000000  0.5384170000000 1.0
C      1  0.4296310000000  0.5657320000000  0.5334000000000 1.0
C      1  0.4984800000000  0.4225800000000  0.4415130000000 1.0
C      1  0.4768150000000  0.5916400000000  0.4678760000000 1.0
C      1  0.4983750000000  0.5295840000000  0.4415900000000 1.0
C      1  0.5238900000000  0.4998570000000  0.5451950000000 1.0
C      1  0.5285690000000  0.5238350000000  0.4284240000000 1.0
C      1  0.5595280000000  0.4925030000000  0.5291250000000 1.0
C      1  0.5472940000000  0.4834700000000  0.4782950000000 1.0
C      1  0.5531120000000  0.5252790000000  0.5362180000000 1.0
C      1  0.5225490000000  0.4804290000000  0.5182820000000 1.0
C      1  0.4844540000000  0.4535790000000  0.4994180000000 1.0
C      1  0.4965150000000  0.5131230000000  0.5771060000000 1.0
C      1  0.5522560000000  0.4682760000000  0.5070160000000 1.0
C      1  0.5456000000000  0.4675360000000  0.4056300000000 1.0
C      1  0.5177980000000  0.4146770000000  0.4649350000000 1.0
C      1  0.4927210000000  0.4870510000000  0.4019190000000 1.0
C      1  0.4123210000000  0.5364450000000  0.5353420000000 1.0
C      1  0.5133000000000  0.5748960000000  0.5753420000000 1.0
C      1  0.4931320000000  0.5372420000000  0.4734600000000 1.0
C      1  0.5877270000000  0.5202760000000  0.4651050000000 1.0
C      1  0.4999760000000  0.4219560000000  0.5522340000000 1.0
C      1  0.4201860000000  0.5161160000000  0.5106720000000 1.0
C      1  0.5256450000000  0.5225000000000  0.5811950000000 1.0
C      1  0.5156890000000  0.6090930000000  0.4419190000000 1.0
C      1  0.5182650000000  0.4501250000000  0.5576960000000 1.0
C      1  0.4165140000000  0.4171940000000  0.4710320000000 1.0
C      1  0.4636160000000  0.5225000000000  0.4817090000000 1.0
C      1  0.4399130000000  0.5813240000000  0.5049100000000 1.0
C      1  0.5680340000000  0.5454190000000  0.4522710000000 1.0
C      1  0.4848190000000  0.5923960000000  0.4957270000000 1.0
C      1  0.5597940000000  0.4903990000000  0.4484050000000 1.0
C      1  0.4201280000000  0.4731990000000  0.4617820000000 1.0
C      1  0.4501160000000  0.4275140000000  0.5715510000000 1.0
C      1  0.5355780000000  0.4043370000000  0.4884540000000 1.0
C      1  0.4812800000000  0.4639770000000  0.4187830000000 1.0
C      1  0.4492440000000  0.5470400000000  0.4128520000000 1.0
C      1  0.4793740000000  0.5030120000000  0.6005540000000 1.0
C      1  0.4550020000000  0.4836280000000  0.5161430000000 1.0
C      1  0.5878310000000  0.4893640000000  0.4794050000000 1.0
C      1  0.5425480000000  0.4814300000000  0.6002050000000 1.0
C      1  0.4344890000000  0.4342810000000  0.4796350000000 1.0
C      1  0.5123740000000  0.4010030000000  0.5095830000000 1.0
C      1  0.5276910000000  0.4695760000000  0.4344610000000 1.0
C      1  0.4510050000000  0.4584200000000  0.4233430000000 1.0
C      1  0.4582560000000  0.4582490000000  0.5591890000000 1.0
C      1  0.4644320000000  0.5281820000000  0.4211170000000 1.0
C      1  0.5477970000000  0.4652720000000  0.5465950000000 1.0
C      1  0.4701720000000  0.4816670000000  0.4549910000000 1.0
C      1  0.4160600000000  0.4855330000000  0.4853610000000 1.0
C      1  0.4327360000000  0.4791560000000  0.5575620000000 1.0
C      1  0.4672740000000  0.4323910000000  0.4403300000000 1.0
C      1  0.4777290000000  0.5663170000000  0.5105300000000 1.0
C      1  0.4902140000000  0.4120150000000  0.5282580000000 1.0
C      1  0.4817380000000  0.5021350000000  0.4303680000000 1.0
C      1  0.5455960000000  0.4897820000000  0.5695050000000 1.0
C      1  0.5243880000000  0.4290050000000  0.5173030000000 1.0
C      1  0.4393850000000  0.5529490000000  0.4968610000000 1.0
C      1  0.5455580000000  0.4406490000000  0.4349570000000 1.0
C      1  0.5763050000000  0.4570720000000  0.4857290000000 1.0
C      1  0.5413690000000  0.5385790000000  0.5631570000000 1.0
C      1  0.5233120000000  0.4876810000000  0.3984630000000 1.0
C      1  0.4910900000000  0.4978010000000  0.5471010000000 1.0
END
