TITL C-3289334-2237-733 -0.00162376031560041 125000 -758.831797068275 0 0 140 (C1) n - 1
REM
REM in /nfs/bkarasulu/CARBON/AIRSS/Generating-Clusters/AIREBO/with-SteepDescent/Higher-Symm/SD-CG/HFTN-CG
REM
REM
REM
REM
REM
REM ./C.cell (b20cbc046b6831c77cfcea5457e17084)
REM
REM compiler GCC version 9.2.1 20190827 (Red Hat 9.2.1-1)
REM options -cpp -mtune=generic -march=x86-64 -g -O0 -fpre-include=/usr/include/finclude/math-vector-fortran.h
REM seed 952475518 1886140794 1534916867 684237583 -1635032704 151723833 -1861290334 -2067241129 1566796090 -827587562 -997347624 1415854968 878905098 -906525703 441204667 -758269816 121892399 -1622121963 1166863656 -1910535833 275379106 -1940876277 378678068 514462713 537154611 911453453 1391017165 1508205549 -1151507629 -2031034425 -308896543 -244513453 1025826152
REM
CELL 1.54180   50.00000   50.00000   50.00000   90.00000   90.00000   90.00000
LATT -1
SFAC C  
C      1  0.4385300000000  0.5470570000000  0.4666870000000 1.0
C      1  0.4336100000000  0.5488170000000  0.5266840000000 1.0
C      1  0.4797170000000  0.5406760000000  0.5668000000000 1.0
C      1  0.5403780000000  0.5447680000000  0.5587280000000 1.0
C      1  0.5709250000000  0.5434210000000  0.5049520000000 1.0
C      1  0.5486470000000  0.5455600000000  0.4466140000000 1.0
C      1  0.4890580000000  0.5442370000000  0.4296000000000 1.0
C      1  0.5271270000000  0.5744330000000  0.5179100000000 1.0
C      1  0.5285070000000  0.5843190000000  0.4901200000000 1.0
C      1  0.5111060000000  0.5714980000000  0.4703390000000 1.0
C      1  0.4809130000000  0.5745650000000  0.4739160000000 1.0
C      1  0.4693990000000  0.5862830000000  0.4979500000000 1.0
C      1  0.4775430000000  0.5750090000000  0.5236140000000 1.0
C      1  0.5041050000000  0.5850960000000  0.5322630000000 1.0
C      1  0.4476290000000  0.5472530000000  0.5576290000000 1.0
C      1  0.5115030000000  0.5462910000000  0.5774880000000 1.0
C      1  0.5678430000000  0.5461130000000  0.5387210000000 1.0
C      1  0.5715640000000  0.5493120000000  0.4714630000000 1.0
C      1  0.5225140000000  0.5483550000000  0.4250380000000 1.0
C      1  0.4557750000000  0.5445940000000  0.4366140000000 1.0
C      1  0.4212610000000  0.5532800000000  0.4953110000000 1.0
C      1  0.4381890000000  0.5813490000000  0.5253460000000 1.0
C      1  0.4814410000000  0.5744680000000  0.5633990000000 1.0
C      1  0.5377950000000  0.5773700000000  0.5562700000000 1.0
C      1  0.5648670000000  0.5768780000000  0.5050090000000 1.0
C      1  0.5453360000000  0.5786650000000  0.4510520000000 1.0
C      1  0.4897680000000  0.5771150000000  0.4350530000000 1.0
C      1  0.4419850000000  0.5802830000000  0.4674340000000 1.0
C      1  0.5175010000000  0.5396630000000  0.4708400000000 1.0
C      1  0.4853580000000  0.5411340000000  0.4693680000000 1.0
C      1  0.4675920000000  0.5346910000000  0.4931490000000 1.0
C      1  0.4745730000000  0.5443970000000  0.5218270000000 1.0
C      1  0.4997780000000  0.5332590000000  0.5330260000000 1.0
C      1  0.5265160000000  0.5440650000000  0.5207200000000 1.0
C      1  0.5340620000000  0.5320060000000  0.4945090000000 1.0
C      1  0.4896640000000  0.5258410000000  0.3995860000000 1.0
C      1  0.4197990000000  0.5268130000000  0.4468020000000 1.0
C      1  0.4036770000000  0.5327400000000  0.5350770000000 1.0
C      1  0.4680540000000  0.5233220000000  0.5945400000000 1.0
C      1  0.5546020000000  0.5270830000000  0.5840490000000 1.0
C      1  0.5991460000000  0.5228650000000  0.5109660000000 1.0
C      1  0.5721880000000  0.5293380000000  0.4267710000000 1.0
C      1  0.5423430000000  0.3961090000000  0.4940500000000 1.0
C      1  0.5274560000000  0.3933460000000  0.4700890000000 1.0
C      1  0.5042370000000  0.3791540000000  0.4709130000000 1.0
C      1  0.4803940000000  0.3974210000000  0.4792080000000 1.0
C      1  0.4810210000000  0.3874810000000  0.5115560000000 1.0
C      1  0.5008680000000  0.3999540000000  0.5272300000000 1.0
C      1  0.5281270000000  0.4001680000000  0.5181450000000 1.0
C      1  0.5602860000000  0.4799890000000  0.4634150000000 1.0
C      1  0.5051210000000  0.4842960000000  0.4357940000000 1.0
C      1  0.4479450000000  0.4772670000000  0.4525380000000 1.0
C      1  0.4138750000000  0.4802410000000  0.5077800000000 1.0
C      1  0.4620170000000  0.4804070000000  0.5593100000000 1.0
C      1  0.5334240000000  0.4737530000000  0.5874520000000 1.0
C      1  0.5630160000000  0.4802870000000  0.5170530000000 1.0
C      1  0.5337970000000  0.4972310000000  0.4228910000000 1.0
C      1  0.4645490000000  0.4946780000000  0.4285140000000 1.0
C      1  0.4119420000000  0.5059680000000  0.4905030000000 1.0
C      1  0.4372560000000  0.5004920000000  0.5511620000000 1.0
C      1  0.5078720000000  0.4943360000000  0.5817370000000 1.0
C      1  0.5618600000000  0.4955420000000  0.5462150000000 1.0
C      1  0.5837030000000  0.5035840000000  0.4692190000000 1.0
C      1  0.5694460000000  0.4322200000000  0.5141230000000 1.0
C      1  0.5503510000000  0.4381380000000  0.4520980000000 1.0
C      1  0.4933790000000  0.4332610000000  0.4319450000000 1.0
C      1  0.4387270000000  0.4255680000000  0.4563570000000 1.0
C      1  0.4240930000000  0.4411830000000  0.5204850000000 1.0
C      1  0.4719600000000  0.4416120000000  0.5626090000000 1.0
C      1  0.5308950000000  0.4384960000000  0.5613230000000 1.0
C      1  0.4400520000000  0.5911970000000  0.4962720000000 1.0
C      1  0.4583870000000  0.5871080000000  0.5476860000000 1.0
C      1  0.5093870000000  0.5862970000000  0.5616300000000 1.0
C      1  0.5542920000000  0.5865260000000  0.5320710000000 1.0
C      1  0.5556360000000  0.5878480000000  0.4781590000000 1.0
C      1  0.5174150000000  0.5862990000000  0.4416610000000 1.0
C      1  0.4650820000000  0.5876560000000  0.4484810000000 1.0
C      1  0.4997470000000  0.4813770000000  0.4023440000000 1.0
C      1  0.4170200000000  0.4815380000000  0.4492150000000 1.0
C      1  0.3938820000000  0.4870630000000  0.5330040000000 1.0
C      1  0.4633210000000  0.4778330000000  0.5920510000000 1.0
C      1  0.5601960000000  0.4824300000000  0.5947950000000 1.0
C      1  0.5932620000000  0.4777410000000  0.5077490000000 1.0
C      1  0.5779250000000  0.4839620000000  0.4348100000000 1.0
C      1  0.4430370000000  0.4541410000000  0.4722760000000 1.0
C      1  0.4301170000000  0.4708360000000  0.5361360000000 1.0
C      1  0.4918670000000  0.4690110000000  0.5656410000000 1.0
C      1  0.5503590000000  0.4663220000000  0.5595530000000 1.0
C      1  0.5603210000000  0.4573550000000  0.4975150000000 1.0
C      1  0.5414720000000  0.4681950000000  0.4388810000000 1.0
C      1  0.4797410000000  0.4644580000000  0.4321810000000 1.0
C      1  0.5265330000000  0.4394710000000  0.4275930000000 1.0
C      1  0.4611260000000  0.4218290000000  0.4358880000000 1.0
C      1  0.4340860000000  0.4277490000000  0.4904550000000 1.0
C      1  0.4418230000000  0.4426620000000  0.5511460000000 1.0
C      1  0.5027780000000  0.4316590000000  0.5737850000000 1.0
C      1  0.5618700000000  0.4370070000000  0.5462500000000 1.0
C      1  0.5698920000000  0.4366550000000  0.4743970000000 1.0
C      1  0.5845340000000  0.5295410000000  0.4537070000000 1.0
C      1  0.5173560000000  0.5240250000000  0.4098430000000 1.0
C      1  0.4410090000000  0.5190930000000  0.4260650000000 1.0
C      1  0.4042570000000  0.5317360000000  0.5056040000000 1.0
C      1  0.4449470000000  0.5228500000000  0.5752400000000 1.0
C      1  0.5254600000000  0.5226520000000  0.5884880000000 1.0
C      1  0.5824540000000  0.5204040000000  0.5355160000000 1.0
C      1  0.4931370000000  0.4584920000000  0.5333280000000 1.0
C      1  0.5186220000000  0.4488560000000  0.5168700000000 1.0
C      1  0.5292390000000  0.4561860000000  0.4910210000000 1.0
C      1  0.5146660000000  0.4444880000000  0.4688030000000 1.0
C      1  0.4864730000000  0.4551850000000  0.4641930000000 1.0
C      1  0.4439120000000  0.4697180000000  0.4988050000000 1.0
C      1  0.4633490000000  0.4559990000000  0.5196070000000 1.0
C      1  0.5018660000000  0.4911940000000  0.5300420000000 1.0
C      1  0.5314850000000  0.4925790000000  0.5203790000000 1.0
C      1  0.5377930000000  0.4887340000000  0.4871870000000 1.0
C      1  0.5107520000000  0.4949140000000  0.4674910000000 1.0
C      1  0.4775510000000  0.4877180000000  0.4656220000000 1.0
C      1  0.4634210000000  0.4950740000000  0.4939340000000 1.0
C      1  0.4679900000000  0.4901690000000  0.5272830000000 1.0
C      1  0.4828840000000  0.5162120000000  0.4478480000000 1.0
C      1  0.4418550000000  0.5184190000000  0.4847510000000 1.0
C      1  0.4515250000000  0.5199160000000  0.5269790000000 1.0
C      1  0.4947440000000  0.5121520000000  0.5559070000000 1.0
C      1  0.5359050000000  0.5176380000000  0.5391360000000 1.0
C      1  0.5601000000000  0.5142070000000  0.4912780000000 1.0
C      1  0.5306250000000  0.5170460000000  0.4510150000000 1.0
C      1  0.4783600000000  0.5004430000000  0.3995300000000 1.0
C      1  0.4084570000000  0.5050060000000  0.4598410000000 1.0
C      1  0.4057410000000  0.5078630000000  0.5473030000000 1.0
C      1  0.4802190000000  0.4987620000000  0.5999350000000 1.0
C      1  0.5682850000000  0.5038240000000  0.5779780000000 1.0
C      1  0.6006950000000  0.5004590000000  0.4946560000000 1.0
C      1  0.5654370000000  0.5033620000000  0.4188870000000 1.0
C      1  0.5675650000000  0.4102190000000  0.4930820000000 1.0
C      1  0.5251340000000  0.4178010000000  0.4537660000000 1.0
C      1  0.4822720000000  0.4215970000000  0.4618910000000 1.0
C      1  0.4590360000000  0.4082950000000  0.5013510000000 1.0
C      1  0.4541440000000  0.4264320000000  0.5246970000000 1.0
C      1  0.4930940000000  0.4251820000000  0.5418420000000 1.0
C      1  0.5335130000000  0.4268670000000  0.5307290000000 1.0
END
