TITL C-3289327-5623-277 3.22828528421757 125000 -946.352291053861 0 0 178 (C1) n - 1
REM
REM in /nfs/bkarasulu/CARBON/AIRSS/Generating-Clusters/AIREBO/with-SteepDescent/Higher-Symm/SD-CG/HFTN-CG
REM
REM
REM
REM
REM
REM ./C.cell (b20cbc046b6831c77cfcea5457e17084)
REM
REM compiler GCC version 9.2.1 20190827 (Red Hat 9.2.1-1)
REM options -cpp -mtune=generic -march=x86-64 -g -O0 -fpre-include=/usr/include/finclude/math-vector-fortran.h
REM seed 937108987 -452912066 -1332866146 1110711515 86049439 969856844 1379322696 1966801014 1477351028 1522021389 -1198990885 -2040767848 -1891384660 -411630766 1995449824 -341456078 -1393237902 -1786786395 -68600666 -825086045 255715026 1342535337 -865587165 1865543451 -990744669 -2008036189 -761041894 342094431 698575064 726627481 -2038690338 1916292003 -830286554
REM
CELL 1.54180   50.00000   50.00000   50.00000   90.00000   90.00000   90.00000
LATT -1
SFAC C  
C      1  0.5541400000000  0.4717460000000  0.5733760000000 1.0
C      1  0.5504990000000  0.5304970000000  0.4363290000000 1.0
C      1  0.4496550000000  0.4664930000000  0.5659380000000 1.0
C      1  0.4399720000000  0.5248840000000  0.4281500000000 1.0
C      1  0.4862720000000  0.5059940000000  0.6019050000000 1.0
C      1  0.4853330000000  0.4899800000000  0.3977970000000 1.0
C      1  0.5145240000000  0.5080700000000  0.5996240000000 1.0
C      1  0.5142780000000  0.4939570000000  0.3985480000000 1.0
C      1  0.5728770000000  0.4412290000000  0.5358330000000 1.0
C      1  0.5692240000000  0.5670850000000  0.4693920000000 1.0
C      1  0.4283230000000  0.4420580000000  0.5233440000000 1.0
C      1  0.4256770000000  0.5497030000000  0.4696970000000 1.0
C      1  0.4450410000000  0.5077590000000  0.5267550000000 1.0
C      1  0.4339550000000  0.4917820000000  0.4784820000000 1.0
C      1  0.5664290000000  0.5032090000000  0.5208500000000 1.0
C      1  0.5556560000000  0.4873070000000  0.4744070000000 1.0
C      1  0.5118410000000  0.4422880000000  0.5273130000000 1.0
C      1  0.5257900000000  0.5609260000000  0.4886130000000 1.0
C      1  0.4838780000000  0.4354770000000  0.5125890000000 1.0
C      1  0.4869530000000  0.5635500000000  0.4794500000000 1.0
C      1  0.5187700000000  0.4041760000000  0.4771770000000 1.0
C      1  0.5162230000000  0.5975860000000  0.5252470000000 1.0
C      1  0.4881550000000  0.4116430000000  0.4681610000000 1.0
C      1  0.4834180000000  0.6064140000000  0.5238640000000 1.0
C      1  0.4767020000000  0.5367710000000  0.4977300000000 1.0
C      1  0.4712680000000  0.4611070000000  0.4991450000000 1.0
C      1  0.5075470000000  0.5423200000000  0.5062900000000 1.0
C      1  0.5231500000000  0.4522210000000  0.4997070000000 1.0
C      1  0.4622910000000  0.3934830000000  0.5080850000000 1.0
C      1  0.4610550000000  0.6075480000000  0.4741170000000 1.0
C      1  0.5414330000000  0.3931490000000  0.5219140000000 1.0
C      1  0.5496070000000  0.6127680000000  0.4961920000000 1.0
C      1  0.5606880000000  0.5607370000000  0.5159470000000 1.0
C      1  0.5535530000000  0.4392080000000  0.4981860000000 1.0
C      1  0.4528460000000  0.5702270000000  0.5024510000000 1.0
C      1  0.4432180000000  0.4353960000000  0.4868390000000 1.0
C      1  0.5624810000000  0.5949780000000  0.5403300000000 1.0
C      1  0.5608360000000  0.4152520000000  0.4527020000000 1.0
C      1  0.4443300000000  0.5899410000000  0.5524920000000 1.0
C      1  0.4384260000000  0.4135660000000  0.4539250000000 1.0
C      1  0.5819890000000  0.4804460000000  0.5760550000000 1.0
C      1  0.5789070000000  0.5292890000000  0.4180890000000 1.0
C      1  0.4215260000000  0.4752690000000  0.5742660000000 1.0
C      1  0.4095530000000  0.5261610000000  0.4174000000000 1.0
C      1  0.5480460000000  0.5791400000000  0.4479970000000 1.0
C      1  0.5429140000000  0.4405100000000  0.5519310000000 1.0
C      1  0.4537030000000  0.5566520000000  0.4516660000000 1.0
C      1  0.4402950000000  0.4221330000000  0.5481710000000 1.0
C      1  0.4183680000000  0.5562180000000  0.5436280000000 1.0
C      1  0.4107950000000  0.4419580000000  0.4590980000000 1.0
C      1  0.5882090000000  0.5528120000000  0.5439080000000 1.0
C      1  0.5900000000000  0.4494370000000  0.4603870000000 1.0
C      1  0.3955350000000  0.4887520000000  0.5191830000000 1.0
C      1  0.3959200000000  0.5177160000000  0.4914090000000 1.0
C      1  0.6026340000000  0.4866880000000  0.5179370000000 1.0
C      1  0.5996690000000  0.5212330000000  0.4784760000000 1.0
C      1  0.4849710000000  0.4094760000000  0.4285000000000 1.0
C      1  0.4911730000000  0.5796860000000  0.5690280000000 1.0
C      1  0.5151990000000  0.4186330000000  0.4315220000000 1.0
C      1  0.5220700000000  0.5843080000000  0.5715540000000 1.0
C      1  0.4789250000000  0.4952230000000  0.4367530000000 1.0
C      1  0.4827340000000  0.5056390000000  0.5622550000000 1.0
C      1  0.5106080000000  0.4827900000000  0.4365980000000 1.0
C      1  0.5141320000000  0.5010660000000  0.5518480000000 1.0
C      1  0.4147510000000  0.5718740000000  0.4931110000000 1.0
C      1  0.4012480000000  0.4280230000000  0.5086700000000 1.0
C      1  0.5932430000000  0.5640360000000  0.4932770000000 1.0
C      1  0.5937830000000  0.4323520000000  0.5105160000000 1.0
C      1  0.5261640000000  0.5330570000000  0.4694830000000 1.0
C      1  0.5236940000000  0.4736800000000  0.5333690000000 1.0
C      1  0.4706780000000  0.5156350000000  0.4596180000000 1.0
C      1  0.4763590000000  0.4566900000000  0.5380850000000 1.0
C      1  0.5212530000000  0.5944350000000  0.4921550000000 1.0
C      1  0.5146200000000  0.3919750000000  0.5055600000000 1.0
C      1  0.4872520000000  0.5951880000000  0.4919410000000 1.0
C      1  0.4856800000000  0.4075900000000  0.4991960000000 1.0
C      1  0.5275370000000  0.5946610000000  0.4584830000000 1.0
C      1  0.5069480000000  0.4098030000000  0.5327140000000 1.0
C      1  0.4979110000000  0.5899460000000  0.4600810000000 1.0
C      1  0.4969780000000  0.4007560000000  0.5550110000000 1.0
C      1  0.4773930000000  0.4785880000000  0.4730680000000 1.0
C      1  0.4779800000000  0.5066240000000  0.5310670000000 1.0
C      1  0.5050570000000  0.4878710000000  0.4659220000000 1.0
C      1  0.5086730000000  0.5182660000000  0.5242160000000 1.0
C      1  0.4875230000000  0.5634370000000  0.4085280000000 1.0
C      1  0.4862620000000  0.4313710000000  0.5812720000000 1.0
C      1  0.5122380000000  0.5593530000000  0.4188330000000 1.0
C      1  0.5139140000000  0.4291280000000  0.5933070000000 1.0
C      1  0.5701440000000  0.4645320000000  0.5111760000000 1.0
C      1  0.5669270000000  0.5316300000000  0.5020890000000 1.0
C      1  0.4377630000000  0.4664130000000  0.5015570000000 1.0
C      1  0.4457940000000  0.5383070000000  0.5118340000000 1.0
C      1  0.5927510000000  0.4869770000000  0.5490540000000 1.0
C      1  0.5895300000000  0.5228760000000  0.4464440000000 1.0
C      1  0.4072160000000  0.4838290000000  0.5498140000000 1.0
C      1  0.4046860000000  0.5137880000000  0.4432840000000 1.0
C      1  0.4291380000000  0.5812780000000  0.5233240000000 1.0
C      1  0.4160630000000  0.4161960000000  0.4797600000000 1.0
C      1  0.5878480000000  0.5797620000000  0.5234830000000 1.0
C      1  0.5774210000000  0.4252910000000  0.4807670000000 1.0
C      1  0.4584680000000  0.4526720000000  0.4618260000000 1.0
C      1  0.4602910000000  0.5584400000000  0.5335930000000 1.0
C      1  0.5473620000000  0.4552600000000  0.4682570000000 1.0
C      1  0.5344060000000  0.5486890000000  0.5261810000000 1.0
C      1  0.4681400000000  0.5141570000000  0.4124140000000 1.0
C      1  0.4744560000000  0.4824340000000  0.5810800000000 1.0
C      1  0.5248540000000  0.5187030000000  0.4173390000000 1.0
C      1  0.5268130000000  0.4877440000000  0.5804480000000 1.0
C      1  0.3824090000000  0.5338190000000  0.5111680000000 1.0
C      1  0.3854260000000  0.4726630000000  0.4956580000000 1.0
C      1  0.6181420000000  0.5236870000000  0.5040240000000 1.0
C      1  0.6194150000000  0.4799800000000  0.4917750000000 1.0
C      1  0.5627360000000  0.4452150000000  0.4405090000000 1.0
C      1  0.5579150000000  0.5492690000000  0.5540720000000 1.0
C      1  0.4371120000000  0.4421100000000  0.4375610000000 1.0
C      1  0.4454960000000  0.5577100000000  0.5640730000000 1.0
C      1  0.4429710000000  0.4133050000000  0.5126900000000 1.0
C      1  0.4509990000000  0.5799910000000  0.4745810000000 1.0
C      1  0.5496410000000  0.4193520000000  0.5255090000000 1.0
C      1  0.5599870000000  0.5856800000000  0.4956220000000 1.0
C      1  0.5335010000000  0.4071280000000  0.4500320000000 1.0
C      1  0.5362750000000  0.5958730000000  0.5490080000000 1.0
C      1  0.4640700000000  0.4019020000000  0.4497730000000 1.0
C      1  0.4725460000000  0.5978270000000  0.5543080000000 1.0
C      1  0.5402020000000  0.4404700000000  0.5854280000000 1.0
C      1  0.5403080000000  0.5605760000000  0.4288900000000 1.0
C      1  0.4557460000000  0.4353230000000  0.5681820000000 1.0
C      1  0.4639780000000  0.5470520000000  0.4206540000000 1.0
C      1  0.5115900000000  0.5367390000000  0.4429630000000 1.0
C      1  0.5175700000000  0.4607220000000  0.5623060000000 1.0
C      1  0.4842800000000  0.5423480000000  0.4546500000000 1.0
C      1  0.4885180000000  0.4578870000000  0.5654200000000 1.0
C      1  0.4582230000000  0.5265080000000  0.5595300000000 1.0
C      1  0.4506160000000  0.4806600000000  0.4441730000000 1.0
C      1  0.5374270000000  0.5238640000000  0.5571060000000 1.0
C      1  0.5409420000000  0.4979730000000  0.4390510000000 1.0
C      1  0.5737470000000  0.4951460000000  0.4475620000000 1.0
C      1  0.5690210000000  0.5109350000000  0.5537530000000 1.0
C      1  0.4199260000000  0.4883750000000  0.4476770000000 1.0
C      1  0.4278150000000  0.5102890000000  0.5559620000000 1.0
C      1  0.4735510000000  0.5307910000000  0.5982730000000 1.0
C      1  0.4733060000000  0.4641540000000  0.4005200000000 1.0
C      1  0.5247480000000  0.5339180000000  0.5960450000000 1.0
C      1  0.5294530000000  0.4703960000000  0.4036610000000 1.0
C      1  0.4105620000000  0.5339980000000  0.5614610000000 1.0
C      1  0.4035110000000  0.4636130000000  0.4404680000000 1.0
C      1  0.5912440000000  0.5294810000000  0.5631020000000 1.0
C      1  0.5911450000000  0.4730820000000  0.4413460000000 1.0
C      1  0.5173470000000  0.5495820000000  0.5667820000000 1.0
C      1  0.5152690000000  0.4518990000000  0.4258290000000 1.0
C      1  0.4836650000000  0.5465460000000  0.5704370000000 1.0
C      1  0.4852230000000  0.4419500000000  0.4199630000000 1.0
C      1  0.6024350000000  0.4578900000000  0.5336230000000 1.0
C      1  0.5984040000000  0.5512070000000  0.4620900000000 1.0
C      1  0.3991120000000  0.4569760000000  0.5297620000000 1.0
C      1  0.4017310000000  0.5289060000000  0.4664130000000 1.0
C      1  0.4478590000000  0.4515730000000  0.4095870000000 1.0
C      1  0.4534020000000  0.5525890000000  0.5957790000000 1.0
C      1  0.5527110000000  0.4539660000000  0.4120310000000 1.0
C      1  0.5513700000000  0.5458460000000  0.5872620000000 1.0
C      1  0.4401470000000  0.5201570000000  0.4606520000000 1.0
C      1  0.4496820000000  0.4745430000000  0.5323750000000 1.0
C      1  0.5573890000000  0.5352090000000  0.4696600000000 1.0
C      1  0.5552840000000  0.4768040000000  0.5391930000000 1.0
C      1  0.5967610000000  0.4588030000000  0.4900910000000 1.0
C      1  0.5959550000000  0.5416100000000  0.5150490000000 1.0
C      1  0.4062780000000  0.4535740000000  0.4890800000000 1.0
C      1  0.4128010000000  0.5463910000000  0.5134790000000 1.0
C      1  0.5184040000000  0.4376090000000  0.4709980000000 1.0
C      1  0.5118540000000  0.5662130000000  0.5376350000000 1.0
C      1  0.4891210000000  0.4403950000000  0.4537180000000 1.0
C      1  0.4850240000000  0.5732190000000  0.5257090000000 1.0
C      1  0.5290440000000  0.5026180000000  0.4789400000000 1.0
C      1  0.5194890000000  0.4834640000000  0.5027410000000 1.0
C      1  0.4785520000000  0.5079920000000  0.4882220000000 1.0
C      1  0.4895870000000  0.4866340000000  0.5098150000000 1.0
C      1  0.5832010000000  0.4968810000000  0.4919570000000 1.0
C      1  0.4201310000000  0.5021000000000  0.5048260000000 1.0
END
