TITL C-3289327-5623-158 -0.00149962337477097 125000 -305.695178584076 0 0 58 (C1) n - 1
REM
REM in /nfs/bkarasulu/CARBON/AIRSS/Generating-Clusters/AIREBO/with-SteepDescent/Higher-Symm/SD-CG/HFTN-CG
REM
REM
REM
REM
REM
REM ./C.cell (b20cbc046b6831c77cfcea5457e17084)
REM
REM compiler GCC version 9.2.1 20190827 (Red Hat 9.2.1-1)
REM options -cpp -mtune=generic -march=x86-64 -g -O0 -fpre-include=/usr/include/finclude/math-vector-fortran.h
REM seed 1299394009 -57941365 -1173513080 395361605 -359035894 969281903 586470311 790865576 -1298168656 500714041 -1337461966 -1989613564 876798915 1020024896 -1007077392 1232656815 1186216020 105733264 -512278040 -1825197613 164902957 198583749 -1992680517 -1511555029 1515601880 -978401840 -1483895692 716756702 -436744620 -1389085842 -1001489575 -309060012 -377716646
REM
CELL 1.54180   50.00000   50.00000   50.00000   90.00000   90.00000   90.00000
LATT -1
SFAC C  
C      1  0.4620780000000  0.4721720000000  0.5891770000000 1.0
C      1  0.5007340000000  0.5521550000000  0.5875790000000 1.0
C      1  0.5409040000000  0.4740510000000  0.5964080000000 1.0
C      1  0.4381060000000  0.5046720000000  0.5134950000000 1.0
C      1  0.5405420000000  0.5531140000000  0.5111950000000 1.0
C      1  0.5242250000000  0.4403500000000  0.5183150000000 1.0
C      1  0.5068070000000  0.4586420000000  0.4299320000000 1.0
C      1  0.4706290000000  0.5186670000000  0.4307760000000 1.0
C      1  0.5305180000000  0.5241630000000  0.4319820000000 1.0
C      1  0.4884500000000  0.4922060000000  0.4749270000000 1.0
C      1  0.4966730000000  0.5251670000000  0.4731380000000 1.0
C      1  0.5214520000000  0.4841260000000  0.4729450000000 1.0
C      1  0.4549400000000  0.4371140000000  0.4744360000000 1.0
C      1  0.4600510000000  0.5740090000000  0.4800990000000 1.0
C      1  0.5792200000000  0.4901010000000  0.4769220000000 1.0
C      1  0.4830040000000  0.5729170000000  0.4614930000000 1.0
C      1  0.5625790000000  0.4755830000000  0.4572770000000 1.0
C      1  0.4502710000000  0.4584090000000  0.4550420000000 1.0
C      1  0.5053540000000  0.5208150000000  0.5753570000000 1.0
C      1  0.5154510000000  0.4911690000000  0.5825610000000 1.0
C      1  0.4834310000000  0.4976990000000  0.5834400000000 1.0
C      1  0.5543150000000  0.5237900000000  0.5040160000000 1.0
C      1  0.4942000000000  0.4431190000000  0.5042200000000 1.0
C      1  0.4520640000000  0.5333790000000  0.5064510000000 1.0
C      1  0.4837040000000  0.4582680000000  0.4766520000000 1.0
C      1  0.4675680000000  0.5408140000000  0.4793600000000 1.0
C      1  0.5468950000000  0.5053530000000  0.4785070000000 1.0
C      1  0.5266390000000  0.4540710000000  0.5451960000000 1.0
C      1  0.4460260000000  0.4949560000000  0.5413180000000 1.0
C      1  0.5318750000000  0.5541550000000  0.5406940000000 1.0
C      1  0.4596760000000  0.4878270000000  0.5619330000000 1.0
C      1  0.5181940000000  0.5482100000000  0.5617430000000 1.0
C      1  0.5309940000000  0.4663840000000  0.5673400000000 1.0
C      1  0.5963020000000  0.5016290000000  0.4954890000000 1.0
C      1  0.4551590000000  0.4170080000000  0.4933260000000 1.0
C      1  0.4413160000000  0.5799710000000  0.4997970000000 1.0
C      1  0.5445900000000  0.5005990000000  0.4449150000000 1.0
C      1  0.4795590000000  0.4632800000000  0.4432770000000 1.0
C      1  0.4770750000000  0.5463540000000  0.4456780000000 1.0
C      1  0.5219160000000  0.5184880000000  0.5066750000000 1.0
C      1  0.5055190000000  0.4744910000000  0.5083240000000 1.0
C      1  0.4770820000000  0.5107730000000  0.5087370000000 1.0
C      1  0.5573040000000  0.5767410000000  0.5017640000000 1.0
C      1  0.5361150000000  0.4123910000000  0.5171410000000 1.0
C      1  0.4083350000000  0.5030580000000  0.5074260000000 1.0
C      1  0.5075790000000  0.5725610000000  0.4738150000000 1.0
C      1  0.5489510000000  0.4539670000000  0.4669270000000 1.0
C      1  0.4396220000000  0.4812400000000  0.4658640000000 1.0
C      1  0.4372970000000  0.5584230000000  0.5168910000000 1.0
C      1  0.5834290000000  0.5193310000000  0.5124800000000 1.0
C      1  0.4750900000000  0.4203590000000  0.5121020000000 1.0
C      1  0.4771850000000  0.4953820000000  0.4429970000000 1.0
C      1  0.5066850000000  0.5316070000000  0.4420600000000 1.0
C      1  0.5259780000000  0.4741240000000  0.4412240000000 1.0
C      1  0.4570710000000  0.4947250000000  0.4878100000000 1.0
C      1  0.5142530000000  0.5473050000000  0.4916500000000 1.0
C      1  0.5291800000000  0.4577640000000  0.4916740000000 1.0
C      1  0.5021030000000  0.5009850000000  0.5114640000000 1.0
END
