TITL C-3289321-8710-666 -0.00570628765382212 125000 -909.128449063279 0 0 179 (C1) n - 1
REM
REM in /nfs/bkarasulu/CARBON/AIRSS/Generating-Clusters/AIREBO/with-SteepDescent/Higher-Symm/SD-CG/HFTN-CG
REM
REM
REM
REM
REM
REM ./C.cell (b20cbc046b6831c77cfcea5457e17084)
REM
REM compiler GCC version 9.2.1 20190827 (Red Hat 9.2.1-1)
REM options -cpp -mtune=generic -march=x86-64 -g -O0 -fpre-include=/usr/include/finclude/math-vector-fortran.h
REM seed 335942550 462829547 927419297 1602702839 -1167333633 -1372328496 1824765294 1444471348 89638325 205315634 -1769586114 73759152 -1317276544 798263050 1727253389 1392430147 681475375 480147019 -1302714749 -951857763 -488357265 -2147012421 -594384439 -1154424227 1625160900 474809774 1920505740 -403853175 1219862125 -746039006 281204269 -1957835543 -179490763
REM
CELL 1.54180   50.00000   50.00000   50.00000   90.00000   90.00000   90.00000
LATT -1
SFAC C  
C      1  0.4908260000000  0.4640840000000  0.5149860000000 1.0
C      1  0.4922280000000  0.5400120000000  0.4831200000000 1.0
C      1  0.5140920000000  0.5443700000000  0.5249010000000 1.0
C      1  0.5142890000000  0.4586210000000  0.4826200000000 1.0
C      1  0.4930200000000  0.5215140000000  0.4545880000000 1.0
C      1  0.4897620000000  0.4863480000000  0.5386470000000 1.0
C      1  0.5056710000000  0.5163160000000  0.5362940000000 1.0
C      1  0.5031550000000  0.4776320000000  0.4633440000000 1.0
C      1  0.4514070000000  0.5432890000000  0.4831320000000 1.0
C      1  0.4468100000000  0.4496750000000  0.5288890000000 1.0
C      1  0.5479160000000  0.4561960000000  0.4781930000000 1.0
C      1  0.5471250000000  0.5491350000000  0.5183210000000 1.0
C      1  0.4486230000000  0.4811890000000  0.5420830000000 1.0
C      1  0.4592900000000  0.5254770000000  0.4552630000000 1.0
C      1  0.5469570000000  0.4822730000000  0.4565120000000 1.0
C      1  0.5507110000000  0.5223850000000  0.5409410000000 1.0
C      1  0.4309420000000  0.5235510000000  0.5739690000000 1.0
C      1  0.4373570000000  0.4774210000000  0.4190300000000 1.0
C      1  0.5703010000000  0.4732530000000  0.5801400000000 1.0
C      1  0.5594800000000  0.5309520000000  0.4092500000000 1.0
C      1  0.4417970000000  0.5864810000000  0.5310600000000 1.0
C      1  0.4332420000000  0.4195090000000  0.4772670000000 1.0
C      1  0.5712930000000  0.5788920000000  0.4778880000000 1.0
C      1  0.5584730000000  0.4052520000000  0.5265070000000 1.0
C      1  0.5775800000000  0.4887880000000  0.4432420000000 1.0
C      1  0.5774900000000  0.5217840000000  0.5619000000000 1.0
C      1  0.4301970000000  0.5295310000000  0.4226060000000 1.0
C      1  0.4232170000000  0.4783170000000  0.5645090000000 1.0
C      1  0.5720250000000  0.4323100000000  0.4803420000000 1.0
C      1  0.5768850000000  0.5654000000000  0.5209130000000 1.0
C      1  0.4209510000000  0.4289100000000  0.5281470000000 1.0
C      1  0.4279680000000  0.5675870000000  0.4816480000000 1.0
C      1  0.4884430000000  0.4213380000000  0.5540370000000 1.0
C      1  0.4878500000000  0.5885220000000  0.4545760000000 1.0
C      1  0.5131070000000  0.5802340000000  0.5547740000000 1.0
C      1  0.5106270000000  0.4241760000000  0.4466170000000 1.0
C      1  0.4835340000000  0.5489470000000  0.4136010000000 1.0
C      1  0.4884510000000  0.4471890000000  0.5761430000000 1.0
C      1  0.5128570000000  0.5530650000000  0.5769110000000 1.0
C      1  0.5118550000000  0.4481780000000  0.4225500000000 1.0
C      1  0.4723130000000  0.4250380000000  0.5073740000000 1.0
C      1  0.4736830000000  0.5818330000000  0.4947590000000 1.0
C      1  0.5227320000000  0.5801620000000  0.5096710000000 1.0
C      1  0.5295220000000  0.4240100000000  0.4950300000000 1.0
C      1  0.4723320000000  0.4979550000000  0.4299620000000 1.0
C      1  0.4755430000000  0.4931330000000  0.5752570000000 1.0
C      1  0.5287430000000  0.5066360000000  0.5748890000000 1.0
C      1  0.5311840000000  0.5008510000000  0.4231870000000 1.0
C      1  0.5338010000000  0.5521080000000  0.4629120000000 1.0
C      1  0.5272350000000  0.4392080000000  0.5412420000000 1.0
C      1  0.4708710000000  0.4387560000000  0.4647500000000 1.0
C      1  0.4699210000000  0.5591790000000  0.5389500000000 1.0
C      1  0.5299570000000  0.4693480000000  0.5522290000000 1.0
C      1  0.5402590000000  0.5258810000000  0.4439150000000 1.0
C      1  0.4761770000000  0.4561850000000  0.4385970000000 1.0
C      1  0.4761540000000  0.5344640000000  0.5560930000000 1.0
C      1  0.4406610000000  0.4684820000000  0.5050870000000 1.0
C      1  0.4292910000000  0.5185810000000  0.4915500000000 1.0
C      1  0.5610510000000  0.5250830000000  0.4987070000000 1.0
C      1  0.5618930000000  0.4733590000000  0.5018510000000 1.0
C      1  0.4349590000000  0.5033950000000  0.4631400000000 1.0
C      1  0.4319220000000  0.4977870000000  0.5175390000000 1.0
C      1  0.5671200000000  0.5008900000000  0.5203120000000 1.0
C      1  0.5678600000000  0.5036640000000  0.4727090000000 1.0
C      1  0.4035440000000  0.4606940000000  0.5593430000000 1.0
C      1  0.4097270000000  0.5449730000000  0.4380300000000 1.0
C      1  0.5954510000000  0.5417670000000  0.5586510000000 1.0
C      1  0.5949010000000  0.4622120000000  0.4470070000000 1.0
C      1  0.4131060000000  0.5635500000000  0.4589560000000 1.0
C      1  0.4055360000000  0.4345250000000  0.5497660000000 1.0
C      1  0.5979770000000  0.5576520000000  0.5358690000000 1.0
C      1  0.5907810000000  0.4386660000000  0.4611190000000 1.0
C      1  0.4013070000000  0.4903120000000  0.5285740000000 1.0
C      1  0.4040300000000  0.4936650000000  0.4735630000000 1.0
C      1  0.5984060000000  0.5003810000000  0.5275930000000 1.0
C      1  0.6014320000000  0.4983580000000  0.4738930000000 1.0
C      1  0.3977530000000  0.5109450000000  0.5017080000000 1.0
C      1  0.4074590000000  0.4722360000000  0.4997460000000 1.0
C      1  0.5944940000000  0.5200160000000  0.4988530000000 1.0
C      1  0.5947120000000  0.4801050000000  0.5004950000000 1.0
C      1  0.4472230000000  0.5867650000000  0.4410890000000 1.0
C      1  0.4373190000000  0.4159460000000  0.5671620000000 1.0
C      1  0.5652130000000  0.4180600000000  0.4382860000000 1.0
C      1  0.5625900000000  0.5844020000000  0.5614510000000 1.0
C      1  0.4376810000000  0.4431850000000  0.5770150000000 1.0
C      1  0.4418290000000  0.5769790000000  0.4160040000000 1.0
C      1  0.5652590000000  0.4411170000000  0.4235600000000 1.0
C      1  0.5625560000000  0.5605100000000  0.5771690000000 1.0
C      1  0.5233810000000  0.4699760000000  0.5133530000000 1.0
C      1  0.5246160000000  0.5443470000000  0.4925580000000 1.0
C      1  0.4705860000000  0.5275520000000  0.5063940000000 1.0
C      1  0.4669100000000  0.4713760000000  0.4919060000000 1.0
C      1  0.5213350000000  0.5040540000000  0.4616580000000 1.0
C      1  0.5312480000000  0.4951450000000  0.5348750000000 1.0
C      1  0.4655060000000  0.5099450000000  0.5352220000000 1.0
C      1  0.4709580000000  0.4815370000000  0.4597060000000 1.0
C      1  0.5437710000000  0.5425170000000  0.5674750000000 1.0
C      1  0.5425060000000  0.4603600000000  0.4308540000000 1.0
C      1  0.4581960000000  0.4590080000000  0.5660450000000 1.0
C      1  0.4566030000000  0.5493410000000  0.4307520000000 1.0
C      1  0.5438840000000  0.5732910000000  0.5420810000000 1.0
C      1  0.5415900000000  0.4324980000000  0.4546270000000 1.0
C      1  0.4640330000000  0.5648740000000  0.4600750000000 1.0
C      1  0.4558890000000  0.4241710000000  0.5466700000000 1.0
C      1  0.4671890000000  0.4882460000000  0.6065860000000 1.0
C      1  0.4669050000000  0.5041270000000  0.3966770000000 1.0
C      1  0.5376800000000  0.5131110000000  0.6056930000000 1.0
C      1  0.5374170000000  0.4854690000000  0.3935120000000 1.0
C      1  0.4654410000000  0.6139850000000  0.4908440000000 1.0
C      1  0.4662670000000  0.3933430000000  0.5148630000000 1.0
C      1  0.5334870000000  0.6111840000000  0.5094050000000 1.0
C      1  0.5272570000000  0.3931120000000  0.4838110000000 1.0
C      1  0.4999710000000  0.4280330000000  0.4786890000000 1.0
C      1  0.4954310000000  0.5727180000000  0.5269480000000 1.0
C      1  0.4978300000000  0.5711570000000  0.4801760000000 1.0
C      1  0.4991740000000  0.4322350000000  0.5235260000000 1.0
C      1  0.5080810000000  0.4806260000000  0.4319890000000 1.0
C      1  0.5028490000000  0.5215830000000  0.5697690000000 1.0
C      1  0.5030820000000  0.4767910000000  0.5684480000000 1.0
C      1  0.4960890000000  0.5198240000000  0.4207690000000 1.0
C      1  0.6051610000000  0.4620290000000  0.5273360000000 1.0
C      1  0.5884860000000  0.5499690000000  0.4837220000000 1.0
C      1  0.3893020000000  0.5279540000000  0.5264880000000 1.0
C      1  0.4116600000000  0.4460260000000  0.4783250000000 1.0
C      1  0.5962570000000  0.5282290000000  0.4598450000000 1.0
C      1  0.5871510000000  0.4771520000000  0.5502490000000 1.0
C      1  0.4088520000000  0.5171310000000  0.5485280000000 1.0
C      1  0.3925440000000  0.4661180000000  0.4635970000000 1.0
C      1  0.5593460000000  0.4301900000000  0.5391860000000 1.0
C      1  0.5651000000000  0.5530640000000  0.4592140000000 1.0
C      1  0.4403200000000  0.5583910000000  0.5367080000000 1.0
C      1  0.4411080000000  0.4498000000000  0.4651020000000 1.0
C      1  0.5735470000000  0.5303500000000  0.4378130000000 1.0
C      1  0.5601300000000  0.4575890000000  0.5537180000000 1.0
C      1  0.4381010000000  0.5285610000000  0.5428970000000 1.0
C      1  0.4392840000000  0.4756330000000  0.4488270000000 1.0
C      1  0.4426900000000  0.4956880000000  0.5835570000000 1.0
C      1  0.4376740000000  0.5053390000000  0.4107980000000 1.0
C      1  0.5612860000000  0.5038510000000  0.5821250000000 1.0
C      1  0.5636880000000  0.4975050000000  0.4137710000000 1.0
C      1  0.4414790000000  0.5908030000000  0.4997460000000 1.0
C      1  0.4400500000000  0.4143930000000  0.5072860000000 1.0
C      1  0.5559400000000  0.5857390000000  0.5049360000000 1.0
C      1  0.5584860000000  0.4083750000000  0.4957160000000 1.0
C      1  0.4778130000000  0.6145500000000  0.4633350000000 1.0
C      1  0.4796730000000  0.3911070000000  0.5411470000000 1.0
C      1  0.5188190000000  0.3929460000000  0.4564220000000 1.0
C      1  0.5208040000000  0.6090940000000  0.5384930000000 1.0
C      1  0.4796460000000  0.4599590000000  0.6064150000000 1.0
C      1  0.4776840000000  0.5311800000000  0.3871560000000 1.0
C      1  0.5255100000000  0.4588120000000  0.3932710000000 1.0
C      1  0.5237050000000  0.5407210000000  0.6066940000000 1.0
C      1  0.4562990000000  0.5392970000000  0.5902690000000 1.0
C      1  0.4568330000000  0.4607600000000  0.4048590000000 1.0
C      1  0.5403120000000  0.4599800000000  0.5895530000000 1.0
C      1  0.5321760000000  0.5394910000000  0.4072110000000 1.0
C      1  0.4653400000000  0.5985160000000  0.5444770000000 1.0
C      1  0.4565240000000  0.4019700000000  0.4602760000000 1.0
C      1  0.5449740000000  0.5900160000000  0.4592940000000 1.0
C      1  0.5321900000000  0.3961250000000  0.5362620000000 1.0
C      1  0.5124060000000  0.4026300000000  0.5132420000000 1.0
C      1  0.5219960000000  0.5951330000000  0.4806080000000 1.0
C      1  0.4824290000000  0.6030400000000  0.5186600000000 1.0
C      1  0.4788390000000  0.4019160000000  0.4840070000000 1.0
C      1  0.5170190000000  0.5135380000000  0.3949960000000 1.0
C      1  0.5214080000000  0.4838220000000  0.5962330000000 1.0
C      1  0.4803860000000  0.5182830000000  0.5951030000000 1.0
C      1  0.4858840000000  0.4776140000000  0.4063270000000 1.0
C      1  0.4775610000000  0.4169190000000  0.4381260000000 1.0
C      1  0.4826070000000  0.5902160000000  0.5660280000000 1.0
C      1  0.5177110000000  0.5748690000000  0.4456890000000 1.0
C      1  0.5204880000000  0.4126730000000  0.5614120000000 1.0
C      1  0.4812330000000  0.4380760000000  0.4117530000000 1.0
C      1  0.4796960000000  0.5605650000000  0.5776690000000 1.0
C      1  0.5232060000000  0.4395620000000  0.5808460000000 1.0
C      1  0.5139000000000  0.5583230000000  0.4185890000000 1.0
C      1  0.5240040000000  0.5135310000000  0.4897540000000 1.0
C      1  0.4784960000000  0.4984110000000  0.4987220000000 1.0
C      1  0.5047830000000  0.5043960000000  0.5063560000000 1.0
END
