TITL C-3289325-7307-299 8.22301130264736e-05 125000 -689.78793443607 0 0 124 (C1) n - 1
REM
REM in /nfs/bkarasulu/CARBON/AIRSS/Generating-Clusters/AIREBO/with-SteepDescent/Higher-Symm/SD-CG/HFTN-CG
REM
REM
REM
REM
REM
REM ./C.cell (b20cbc046b6831c77cfcea5457e17084)
REM
REM compiler GCC version 9.2.1 20190827 (Red Hat 9.2.1-1)
REM options -cpp -mtune=generic -march=x86-64 -g -O0 -fpre-include=/usr/include/finclude/math-vector-fortran.h
REM seed 1157412525 1470281216 -666597579 1545580847 -829807883 -950026191 -1183043282 1652845756 85511119 22205836 981237976 -703559634 -475367593 828087977 575837890 -2146980223 -1647568335 -1173728801 -1982746505 -512309987 -669460052 -422404095 -616408425 1641213175 1685910659 -1923756235 -682071709 364508042 1230651729 1247882279 -265926610 -1455906574 1677287850
REM
CELL 1.54180   50.00000   50.00000   50.00000   90.00000   90.00000   90.00000
LATT -1
SFAC C  
C      1  0.4158840000000  0.4654070000000  0.4784270000000 1.0
C      1  0.5292550000000  0.4074800000000  0.4637340000000 1.0
C      1  0.6005490000000  0.4914700000000  0.4573990000000 1.0
C      1  0.5474940000000  0.5865730000000  0.4688150000000 1.0
C      1  0.4426760000000  0.5580740000000  0.4712340000000 1.0
C      1  0.4229070000000  0.4680870000000  0.5280680000000 1.0
C      1  0.5149200000000  0.4113020000000  0.5323020000000 1.0
C      1  0.5781830000000  0.4757430000000  0.5229620000000 1.0
C      1  0.5463310000000  0.5711110000000  0.5310230000000 1.0
C      1  0.4359250000000  0.5659570000000  0.5283080000000 1.0
C      1  0.5838500000000  0.5434010000000  0.5482360000000 1.0
C      1  0.4765190000000  0.5944960000000  0.5454610000000 1.0
C      1  0.4062370000000  0.5207140000000  0.5386900000000 1.0
C      1  0.4497570000000  0.4364540000000  0.5419420000000 1.0
C      1  0.5693140000000  0.4301890000000  0.5457740000000 1.0
C      1  0.5804950000000  0.5513680000000  0.4568230000000 1.0
C      1  0.4864070000000  0.5907140000000  0.4535910000000 1.0
C      1  0.4088520000000  0.5223620000000  0.4579700000000 1.0
C      1  0.4373410000000  0.4325720000000  0.4711160000000 1.0
C      1  0.5724240000000  0.4350020000000  0.4508370000000 1.0
C      1  0.5287100000000  0.4432770000000  0.4463770000000 1.0
C      1  0.5544110000000  0.5029860000000  0.4472010000000 1.0
C      1  0.5091750000000  0.5663320000000  0.4464330000000 1.0
C      1  0.4534710000000  0.5266030000000  0.4490800000000 1.0
C      1  0.4456050000000  0.4545720000000  0.4540400000000 1.0
C      1  0.5251200000000  0.4424030000000  0.5551940000000 1.0
C      1  0.5514040000000  0.5005550000000  0.5496040000000 1.0
C      1  0.5134820000000  0.5529820000000  0.5562100000000 1.0
C      1  0.4496480000000  0.5276850000000  0.5522290000000 1.0
C      1  0.4506210000000  0.4663880000000  0.5562790000000 1.0
C      1  0.4842970000000  0.5925720000000  0.5146800000000 1.0
C      1  0.4123840000000  0.5031940000000  0.5121970000000 1.0
C      1  0.4575510000000  0.4211640000000  0.5127640000000 1.0
C      1  0.5684540000000  0.4320280000000  0.5117110000000 1.0
C      1  0.5796590000000  0.5377010000000  0.5201830000000 1.0
C      1  0.4857690000000  0.5919190000000  0.4862060000000 1.0
C      1  0.4120350000000  0.5058020000000  0.4851430000000 1.0
C      1  0.4594170000000  0.4216190000000  0.4843380000000 1.0
C      1  0.5682890000000  0.4342580000000  0.4845810000000 1.0
C      1  0.5817950000000  0.5400680000000  0.4888770000000 1.0
C      1  0.5509340000000  0.5227830000000  0.5823950000000 1.0
C      1  0.4850970000000  0.5573820000000  0.5832350000000 1.0
C      1  0.4408640000000  0.5137100000000  0.5803860000000 1.0
C      1  0.4826020000000  0.4578070000000  0.5768690000000 1.0
C      1  0.5411900000000  0.4599510000000  0.5801380000000 1.0
C      1  0.5439440000000  0.5317360000000  0.4225020000000 1.0
C      1  0.4902900000000  0.5557730000000  0.4130050000000 1.0
C      1  0.4505720000000  0.5058280000000  0.4241310000000 1.0
C      1  0.4781390000000  0.4467870000000  0.4225530000000 1.0
C      1  0.5463080000000  0.4614200000000  0.4155840000000 1.0
C      1  0.5239220000000  0.5778630000000  0.4896670000000 1.0
C      1  0.4200870000000  0.5444540000000  0.4812600000000 1.0
C      1  0.4159710000000  0.4386130000000  0.4923050000000 1.0
C      1  0.5568800000000  0.4083500000000  0.4567600000000 1.0
C      1  0.5779030000000  0.4991060000000  0.4791430000000 1.0
C      1  0.5228560000000  0.5830370000000  0.5184050000000 1.0
C      1  0.4214590000000  0.5416190000000  0.5151670000000 1.0
C      1  0.4234250000000  0.4399480000000  0.5205050000000 1.0
C      1  0.5444230000000  0.4108620000000  0.5349550000000 1.0
C      1  0.5778550000000  0.5003100000000  0.5087790000000 1.0
C      1  0.4995580000000  0.5275170000000  0.4834150000000 1.0
C      1  0.4744550000000  0.5045510000000  0.4837080000000 1.0
C      1  0.4740010000000  0.4716690000000  0.4884940000000 1.0
C      1  0.5131350000000  0.4633580000000  0.4769990000000 1.0
C      1  0.5196780000000  0.5022370000000  0.4786710000000 1.0
C      1  0.4995290000000  0.5342090000000  0.5157690000000 1.0
C      1  0.4685280000000  0.5250360000000  0.5082530000000 1.0
C      1  0.4760760000000  0.4691040000000  0.5200280000000 1.0
C      1  0.5144400000000  0.4627640000000  0.5109240000000 1.0
C      1  0.5197810000000  0.5089720000000  0.5124300000000 1.0
C      1  0.5709830000000  0.4792350000000  0.5500780000000 1.0
C      1  0.5405230000000  0.5607290000000  0.5566870000000 1.0
C      1  0.4481380000000  0.5573840000000  0.5538180000000 1.0
C      1  0.4218720000000  0.4776150000000  0.5562680000000 1.0
C      1  0.5007480000000  0.4214590000000  0.5566580000000 1.0
C      1  0.5757120000000  0.4851350000000  0.4418350000000 1.0
C      1  0.5385740000000  0.5719550000000  0.4443200000000 1.0
C      1  0.4500110000000  0.5568790000000  0.4427740000000 1.0
C      1  0.4231670000000  0.4741630000000  0.4491490000000 1.0
C      1  0.5122210000000  0.4193490000000  0.4409890000000 1.0
C      1  0.4969660000000  0.5609400000000  0.4777060000000 1.0
C      1  0.4435470000000  0.5109700000000  0.4734170000000 1.0
C      1  0.4803750000000  0.4415020000000  0.4753420000000 1.0
C      1  0.5443520000000  0.4520480000000  0.4732860000000 1.0
C      1  0.5570730000000  0.5236810000000  0.4722380000000 1.0
C      1  0.4967730000000  0.5644180000000  0.5291390000000 1.0
C      1  0.4422060000000  0.5157290000000  0.5227330000000 1.0
C      1  0.4813180000000  0.4382600000000  0.5176860000000 1.0
C      1  0.5384600000000  0.4424860000000  0.5239110000000 1.0
C      1  0.5516140000000  0.5184330000000  0.5205870000000 1.0
C      1  0.5245000000000  0.5056980000000  0.5697630000000 1.0
C      1  0.4990860000000  0.5282010000000  0.5727310000000 1.0
C      1  0.4730190000000  0.5117000000000  0.5686860000000 1.0
C      1  0.4792810000000  0.4847030000000  0.5566760000000 1.0
C      1  0.5218270000000  0.4745070000000  0.5562800000000 1.0
C      1  0.5247720000000  0.5066210000000  0.4363350000000 1.0
C      1  0.4935320000000  0.5366480000000  0.4409310000000 1.0
C      1  0.4803230000000  0.5073630000000  0.4410280000000 1.0
C      1  0.4782070000000  0.4637750000000  0.4497280000000 1.0
C      1  0.5210680000000  0.4671860000000  0.4309270000000 1.0
C      1  0.4720660000000  0.5713480000000  0.4329450000000 1.0
C      1  0.4242720000000  0.5009350000000  0.4398850000000 1.0
C      1  0.4916500000000  0.4228740000000  0.4227420000000 1.0
C      1  0.5689990000000  0.4584690000000  0.4334150000000 1.0
C      1  0.5565630000000  0.5511760000000  0.4383860000000 1.0
C      1  0.4703830000000  0.5716820000000  0.5627090000000 1.0
C      1  0.4178050000000  0.5055060000000  0.5615720000000 1.0
C      1  0.4766940000000  0.4339960000000  0.5627420000000 1.0
C      1  0.5654990000000  0.4541230000000  0.5626940000000 1.0
C      1  0.5610750000000  0.5437910000000  0.5661730000000 1.0
C      1  0.4644880000000  0.5585280000000  0.4871080000000 1.0
C      1  0.4427020000000  0.4805290000000  0.4842710000000 1.0
C      1  0.5114820000000  0.4295710000000  0.4804720000000 1.0
C      1  0.5471810000000  0.4847960000000  0.4819830000000 1.0
C      1  0.5459510000000  0.5541400000000  0.4792700000000 1.0
C      1  0.4653890000000  0.5575070000000  0.5178350000000 1.0
C      1  0.4468280000000  0.4828000000000  0.5156130000000 1.0
C      1  0.5044070000000  0.4241260000000  0.5101670000000 1.0
C      1  0.5536020000000  0.4686640000000  0.5083690000000 1.0
C      1  0.5432700000000  0.5497740000000  0.5103810000000 1.0
C      1  0.5026000000000  0.4867100000000  0.5319790000000 1.0
C      1  0.5037430000000  0.4859830000000  0.4533610000000 1.0
C      1  0.5124960000000  0.5297930000000  0.4146800000000 1.0
C      1  0.4861800000000  0.5639580000000  0.6097840000000 1.0
END
