TITL C-3289329-2751-23 -0.000432718978754704 125000 -356.258776089506 0 0 69 (C1) n - 1
REM
REM in /nfs/bkarasulu/CARBON/AIRSS/Generating-Clusters/AIREBO/with-SteepDescent/Higher-Symm/SD-CG/HFTN-CG
REM
REM
REM
REM
REM
REM ./C.cell (b20cbc046b6831c77cfcea5457e17084)
REM
REM compiler GCC version 9.2.1 20190827 (Red Hat 9.2.1-1)
REM options -cpp -mtune=generic -march=x86-64 -g -O0 -fpre-include=/usr/include/finclude/math-vector-fortran.h
REM seed 752196939 1854658337 -1093914369 1661796682 1844477418 -979738294 -2130460141 -2125125841 -1310093383 -1564102948 585408151 -1956707853 -1591764611 1833887853 89875087 -349100675 1515375448 -1882669416 432849077 -1889933823 -176312169 1552070584 -757837195 -1240596119 -2128448133 859892078 -2011699299 -1240982427 -940080912 1466005209 1562281726 -515742123 -53487221
REM
CELL 1.54180   50.00000   50.00000   50.00000   90.00000   90.00000   90.00000
LATT -1
SFAC C  
C      1  0.4313980000000  0.4907890000000  0.4841870000000 1.0
C      1  0.4251100000000  0.5007060000000  0.5064350000000 1.0
C      1  0.5761900000000  0.4921720000000  0.5149600000000 1.0
C      1  0.5766250000000  0.4981730000000  0.4903730000000 1.0
C      1  0.5402530000000  0.4656440000000  0.4992840000000 1.0
C      1  0.5456000000000  0.5258960000000  0.4968590000000 1.0
C      1  0.4534580000000  0.4668880000000  0.5074220000000 1.0
C      1  0.4463570000000  0.5345570000000  0.5066660000000 1.0
C      1  0.5269260000000  0.4761800000000  0.4205850000000 1.0
C      1  0.5264430000000  0.5270610000000  0.5757770000000 1.0
C      1  0.4689320000000  0.4868980000000  0.5747130000000 1.0
C      1  0.4723850000000  0.5246100000000  0.4271880000000 1.0
C      1  0.4627480000000  0.4795700000000  0.4772610000000 1.0
C      1  0.4484610000000  0.5101780000000  0.5257500000000 1.0
C      1  0.5478290000000  0.4829810000000  0.5275410000000 1.0
C      1  0.5503810000000  0.5058860000000  0.4737470000000 1.0
C      1  0.4895650000000  0.4919350000000  0.5479140000000 1.0
C      1  0.4914090000000  0.5102810000000  0.4493880000000 1.0
C      1  0.5084760000000  0.4864320000000  0.4472460000000 1.0
C      1  0.5091860000000  0.5146750000000  0.5499550000000 1.0
C      1  0.4648600000000  0.4721110000000  0.4270160000000 1.0
C      1  0.4627670000000  0.5343820000000  0.5687070000000 1.0
C      1  0.5330780000000  0.4749990000000  0.5751820000000 1.0
C      1  0.5355490000000  0.5350970000000  0.4344410000000 1.0
C      1  0.4740290000000  0.4913940000000  0.5196740000000 1.0
C      1  0.4792390000000  0.5065410000000  0.4773870000000 1.0
C      1  0.5242000000000  0.4862600000000  0.4775170000000 1.0
C      1  0.5264720000000  0.5085100000000  0.5213270000000 1.0
C      1  0.5061370000000  0.4653310000000  0.5598760000000 1.0
C      1  0.5052840000000  0.5392780000000  0.4443270000000 1.0
C      1  0.4910000000000  0.4581440000000  0.4388380000000 1.0
C      1  0.4928030000000  0.5415960000000  0.5603090000000 1.0
C      1  0.5423560000000  0.4224440000000  0.4992950000000 1.0
C      1  0.5522660000000  0.5730260000000  0.5011980000000 1.0
C      1  0.4677000000000  0.4250090000000  0.5009830000000 1.0
C      1  0.4537200000000  0.5793130000000  0.4986180000000 1.0
C      1  0.5237550000000  0.4507990000000  0.4386140000000 1.0
C      1  0.5249550000000  0.5510660000000  0.5541320000000 1.0
C      1  0.4728360000000  0.4590850000000  0.5627020000000 1.0
C      1  0.4724730000000  0.5452910000000  0.4519260000000 1.0
C      1  0.5349630000000  0.4559580000000  0.4664350000000 1.0
C      1  0.5417620000000  0.5380930000000  0.5282290000000 1.0
C      1  0.4612280000000  0.4541470000000  0.5382110000000 1.0
C      1  0.4625030000000  0.5328500000000  0.4815750000000 1.0
C      1  0.5519480000000  0.4849440000000  0.5611970000000 1.0
C      1  0.5513690000000  0.5197200000000  0.4463440000000 1.0
C      1  0.4494380000000  0.4789790000000  0.4459780000000 1.0
C      1  0.4477260000000  0.5196790000000  0.5550490000000 1.0
C      1  0.4485220000000  0.4431210000000  0.4834990000000 1.0
C      1  0.4514560000000  0.5594420000000  0.5196550000000 1.0
C      1  0.5569270000000  0.4448070000000  0.5203560000000 1.0
C      1  0.5454840000000  0.5534170000000  0.4830300000000 1.0
C      1  0.5188140000000  0.4357260000000  0.5182800000000 1.0
C      1  0.5108070000000  0.5788090000000  0.5095780000000 1.0
C      1  0.4813230000000  0.4235300000000  0.4730070000000 1.0
C      1  0.4986460000000  0.5534340000000  0.5229500000000 1.0
C      1  0.5020860000000  0.4644230000000  0.5109990000000 1.0
C      1  0.4991270000000  0.5597500000000  0.4839350000000 1.0
C      1  0.4863450000000  0.4555820000000  0.4832070000000 1.0
C      1  0.4992940000000  0.5308000000000  0.5022790000000 1.0
C      1  0.4646180000000  0.4421570000000  0.4532330000000 1.0
C      1  0.4729620000000  0.5573580000000  0.5376380000000 1.0
C      1  0.5301060000000  0.4566610000000  0.5397870000000 1.0
C      1  0.5234070000000  0.5566570000000  0.4657270000000 1.0
C      1  0.4799930000000  0.4403190000000  0.5204610000000 1.0
C      1  0.4702750000000  0.5678530000000  0.4754290000000 1.0
C      1  0.5155240000000  0.4380740000000  0.4845200000000 1.0
C      1  0.5354540000000  0.5714360000000  0.5298460000000 1.0
C      1  0.5018670000000  0.4969100000000  0.5008890000000 1.0
END
