TITL C-3289324-3781-38 0.0028516319628142 125000 -341.859403996264 0 0 64 (C1) n - 1
REM
REM in /nfs/bkarasulu/CARBON/AIRSS/Generating-Clusters/AIREBO/with-SteepDescent/Higher-Symm/SD-CG/HFTN-CG
REM
REM
REM
REM
REM
REM ./C.cell (b20cbc046b6831c77cfcea5457e17084)
REM
REM compiler GCC version 9.2.1 20190827 (Red Hat 9.2.1-1)
REM options -cpp -mtune=generic -march=x86-64 -g -O0 -fpre-include=/usr/include/finclude/math-vector-fortran.h
REM seed -646048703 685549027 883359610 -248711751 1865078815 -452093195 1060573161 179689049 -2124113406 1269626710 309962759 -214551454 387765889 -137932633 1476083935 1925899424 -770919486 496069278 1451326438 -295284176 -450166283 1240323003 -784426517 -1899810168 33769172 -553576411 -1892806912 -193278067 -787837155 1732682103 -1956411409 671803790 2080970370
REM
CELL 1.54180   50.00000   50.00000   50.00000   90.00000   90.00000   90.00000
LATT -1
SFAC C  
C      1  0.4884140000000  0.4827970000000  0.5190730000000 1.0
C      1  0.4856080000000  0.4826730000000  0.4772110000000 1.0
C      1  0.5238090000000  0.4863040000000  0.5008010000000 1.0
C      1  0.4747440000000  0.5394150000000  0.4147450000000 1.0
C      1  0.5834580000000  0.5570910000000  0.5330030000000 1.0
C      1  0.4258620000000  0.5650590000000  0.5351840000000 1.0
C      1  0.4545070000000  0.5209680000000  0.4716280000000 1.0
C      1  0.5573580000000  0.5282570000000  0.4863300000000 1.0
C      1  0.4938310000000  0.5285140000000  0.5585480000000 1.0
C      1  0.5735260000000  0.4542020000000  0.4767490000000 1.0
C      1  0.4830980000000  0.4526210000000  0.5762080000000 1.0
C      1  0.4408430000000  0.4529430000000  0.4415030000000 1.0
C      1  0.5339940000000  0.4355830000000  0.5568170000000 1.0
C      1  0.4346450000000  0.4302750000000  0.4948890000000 1.0
C      1  0.5012960000000  0.4698050000000  0.4271730000000 1.0
C      1  0.5376570000000  0.4833760000000  0.4769990000000 1.0
C      1  0.5022770000000  0.4764820000000  0.5440010000000 1.0
C      1  0.4584470000000  0.4736080000000  0.4774830000000 1.0
C      1  0.5603110000000  0.5487450000000  0.4682090000000 1.0
C      1  0.5102400000000  0.5485500000000  0.5674710000000 1.0
C      1  0.4380770000000  0.5400490000000  0.4822160000000 1.0
C      1  0.5550530000000  0.4338660000000  0.4806140000000 1.0
C      1  0.4913470000000  0.4336070000000  0.5573180000000 1.0
C      1  0.4551240000000  0.4328340000000  0.4547740000000 1.0
C      1  0.4863210000000  0.5550390000000  0.5136140000000 1.0
C      1  0.4946140000000  0.5493530000000  0.4822060000000 1.0
C      1  0.5174800000000  0.5571830000000  0.5054440000000 1.0
C      1  0.4472860000000  0.4544640000000  0.5003130000000 1.0
C      1  0.5222990000000  0.4682060000000  0.4541040000000 1.0
C      1  0.5301220000000  0.4598880000000  0.5438120000000 1.0
C      1  0.4461850000000  0.5059890000000  0.4479000000000 1.0
C      1  0.5753540000000  0.5063170000000  0.4868410000000 1.0
C      1  0.4858830000000  0.5067160000000  0.5748160000000 1.0
C      1  0.5654950000000  0.4812620000000  0.4786810000000 1.0
C      1  0.4894300000000  0.4795430000000  0.5689860000000 1.0
C      1  0.4438980000000  0.4783760000000  0.4537050000000 1.0
C      1  0.4359080000000  0.5403650000000  0.5410930000000 1.0
C      1  0.4634270000000  0.5145840000000  0.4273880000000 1.0
C      1  0.5882950000000  0.5337330000000  0.5157090000000 1.0
C      1  0.4725740000000  0.4357050000000  0.4757650000000 1.0
C      1  0.5278840000000  0.4299670000000  0.4782540000000 1.0
C      1  0.5004240000000  0.4360800000000  0.5314120000000 1.0
C      1  0.5557860000000  0.5049630000000  0.5448190000000 1.0
C      1  0.4463170000000  0.4945410000000  0.5301700000000 1.0
C      1  0.5118690000000  0.4977850000000  0.4297410000000 1.0
C      1  0.4953860000000  0.5500600000000  0.4338530000000 1.0
C      1  0.5554950000000  0.5634900000000  0.5349930000000 1.0
C      1  0.4424970000000  0.5841880000000  0.5244120000000 1.0
C      1  0.5571050000000  0.5278420000000  0.5262660000000 1.0
C      1  0.4535390000000  0.5207850000000  0.5325020000000 1.0
C      1  0.4940130000000  0.5177790000000  0.4420870000000 1.0
C      1  0.5063880000000  0.4560990000000  0.4816140000000 1.0
C      1  0.5190670000000  0.4578670000000  0.5131310000000 1.0
C      1  0.4806710000000  0.4533250000000  0.5037130000000 1.0
C      1  0.4832820000000  0.5283930000000  0.5298360000000 1.0
C      1  0.4880630000000  0.5165720000000  0.4758570000000 1.0
C      1  0.5311190000000  0.5287260000000  0.5053900000000 1.0
C      1  0.5337280000000  0.5749270000000  0.5240680000000 1.0
C      1  0.4687900000000  0.5787250000000  0.5205520000000 1.0
C      1  0.4985920000000  0.5649690000000  0.4559780000000 1.0
C      1  0.5521360000000  0.4808240000000  0.5479090000000 1.0
C      1  0.4346860000000  0.4716940000000  0.5223450000000 1.0
C      1  0.5397100000000  0.4927870000000  0.4383140000000 1.0
C      1  0.5018150000000  0.5114400000000  0.5065500000000 1.0
END
