TITL C-3289330-4660-106 -0.000798123742112205 125000 -671.409151558925 0 0 130 (C1) n - 1
REM
REM in /nfs/bkarasulu/CARBON/AIRSS/Generating-Clusters/AIREBO/with-SteepDescent/Higher-Symm/SD-CG/HFTN-CG
REM
REM
REM
REM
REM
REM ./C.cell (b20cbc046b6831c77cfcea5457e17084)
REM
REM compiler GCC version 9.2.1 20190827 (Red Hat 9.2.1-1)
REM options -cpp -mtune=generic -march=x86-64 -g -O0 -fpre-include=/usr/include/finclude/math-vector-fortran.h
REM seed 1467814673 -642622073 -228311101 -1832598826 451617951 530962959 494315605 1876609913 -1883006480 -698426462 830401862 -719572847 1001426794 1922092197 -1726662428 -1079135407 1557910775 -2001921544 803279659 1227868844 -302796141 -1139643293 883384835 2025121065 519163547 -680885419 -1921744501 958635270 -997721618 -855064508 704799072 2081615900 -1468904244
REM
CELL 1.54180   50.00000   50.00000   50.00000   90.00000   90.00000   90.00000
LATT -1
SFAC C  
C      1  0.4746880000000  0.4493720000000  0.4196330000000 1.0
C      1  0.4704450000000  0.5462840000000  0.4265790000000 1.0
C      1  0.5355270000000  0.5321220000000  0.5139270000000 1.0
C      1  0.5311890000000  0.4713650000000  0.5256950000000 1.0
C      1  0.5251220000000  0.4429800000000  0.5843630000000 1.0
C      1  0.5242290000000  0.5613620000000  0.5790250000000 1.0
C      1  0.4547360000000  0.5472620000000  0.4567550000000 1.0
C      1  0.4625110000000  0.4605740000000  0.4493410000000 1.0
C      1  0.4533670000000  0.4675570000000  0.5282970000000 1.0
C      1  0.4525400000000  0.5316610000000  0.5262900000000 1.0
C      1  0.4697690000000  0.5633800000000  0.5640350000000 1.0
C      1  0.4806210000000  0.4237320000000  0.5589280000000 1.0
C      1  0.4386600000000  0.5329190000000  0.4835200000000 1.0
C      1  0.4385290000000  0.4699670000000  0.4913880000000 1.0
C      1  0.5348250000000  0.4727540000000  0.4441210000000 1.0
C      1  0.5347020000000  0.5220600000000  0.4510030000000 1.0
C      1  0.5528270000000  0.4716470000000  0.4920110000000 1.0
C      1  0.5642240000000  0.5167860000000  0.4912910000000 1.0
C      1  0.4835130000000  0.4221200000000  0.4229710000000 1.0
C      1  0.4726400000000  0.5768810000000  0.4369150000000 1.0
C      1  0.5025160000000  0.4387230000000  0.5381060000000 1.0
C      1  0.4956600000000  0.5643350000000  0.5419970000000 1.0
C      1  0.5127310000000  0.4054170000000  0.4653230000000 1.0
C      1  0.5162990000000  0.5771370000000  0.4652310000000 1.0
C      1  0.5290300000000  0.5818320000000  0.5594100000000 1.0
C      1  0.5303400000000  0.4233920000000  0.5652870000000 1.0
C      1  0.5474070000000  0.5696040000000  0.5076220000000 1.0
C      1  0.5349860000000  0.4198940000000  0.5066090000000 1.0
C      1  0.5732480000000  0.5603520000000  0.4503190000000 1.0
C      1  0.5677470000000  0.4393230000000  0.4493850000000 1.0
C      1  0.4289090000000  0.5582000000000  0.4429920000000 1.0
C      1  0.4338130000000  0.4523150000000  0.4414140000000 1.0
C      1  0.5421920000000  0.4400370000000  0.4853550000000 1.0
C      1  0.5363480000000  0.5479650000000  0.4838390000000 1.0
C      1  0.5591240000000  0.4556180000000  0.5325790000000 1.0
C      1  0.5611340000000  0.5421960000000  0.5340370000000 1.0
C      1  0.5109740000000  0.4076010000000  0.4951360000000 1.0
C      1  0.5176130000000  0.5823760000000  0.4969210000000 1.0
C      1  0.5876770000000  0.5582800000000  0.4739670000000 1.0
C      1  0.5804180000000  0.4457320000000  0.4724310000000 1.0
C      1  0.4708870000000  0.4472460000000  0.5719920000000 1.0
C      1  0.4595270000000  0.5415960000000  0.5880480000000 1.0
C      1  0.4204040000000  0.4633680000000  0.5186960000000 1.0
C      1  0.4220270000000  0.5377730000000  0.5127770000000 1.0
C      1  0.5452600000000  0.4404410000000  0.4238810000000 1.0
C      1  0.5467550000000  0.5460250000000  0.4339770000000 1.0
C      1  0.4855820000000  0.5336400000000  0.4612040000000 1.0
C      1  0.4961800000000  0.4653290000000  0.4493060000000 1.0
C      1  0.5035830000000  0.4322420000000  0.4465190000000 1.0
C      1  0.4957270000000  0.5635280000000  0.4522010000000 1.0
C      1  0.5342640000000  0.4324610000000  0.5342610000000 1.0
C      1  0.5231000000000  0.5775420000000  0.5300440000000 1.0
C      1  0.5050820000000  0.5460340000000  0.5078550000000 1.0
C      1  0.5107490000000  0.4585680000000  0.5016230000000 1.0
C      1  0.4778480000000  0.4523780000000  0.5102210000000 1.0
C      1  0.4716450000000  0.5501440000000  0.5136340000000 1.0
C      1  0.4639090000000  0.5759270000000  0.4725830000000 1.0
C      1  0.4676820000000  0.4379340000000  0.4710930000000 1.0
C      1  0.4920250000000  0.5306820000000  0.4162010000000 1.0
C      1  0.4938840000000  0.4661310000000  0.4081840000000 1.0
C      1  0.5790300000000  0.4554400000000  0.5050160000000 1.0
C      1  0.5725730000000  0.5473150000000  0.5024220000000 1.0
C      1  0.4937350000000  0.4327730000000  0.4874230000000 1.0
C      1  0.4872640000000  0.5698000000000  0.4913080000000 1.0
C      1  0.5682100000000  0.5309930000000  0.5606400000000 1.0
C      1  0.5682940000000  0.4727150000000  0.5605960000000 1.0
C      1  0.5146080000000  0.5320990000000  0.5645960000000 1.0
C      1  0.5171620000000  0.4704970000000  0.5566950000000 1.0
C      1  0.5216130000000  0.4607230000000  0.4154170000000 1.0
C      1  0.5202000000000  0.5346680000000  0.4160280000000 1.0
C      1  0.4922030000000  0.5499460000000  0.5829250000000 1.0
C      1  0.4963190000000  0.4609070000000  0.5821010000000 1.0
C      1  0.6002540000000  0.5332850000000  0.5163180000000 1.0
C      1  0.6055950000000  0.4702290000000  0.5119480000000 1.0
C      1  0.5365390000000  0.4271060000000  0.4544140000000 1.0
C      1  0.5434720000000  0.5674450000000  0.4582320000000 1.0
C      1  0.5445340000000  0.5337140000000  0.5807040000000 1.0
C      1  0.5430050000000  0.4702230000000  0.5787980000000 1.0
C      1  0.4553220000000  0.4271860000000  0.5141120000000 1.0
C      1  0.4533460000000  0.5765330000000  0.5110560000000 1.0
C      1  0.4462690000000  0.4399750000000  0.4892250000000 1.0
C      1  0.4360370000000  0.5666130000000  0.4874780000000 1.0
C      1  0.5200200000000  0.4595860000000  0.4706310000000 1.0
C      1  0.5128530000000  0.5265850000000  0.4731860000000 1.0
C      1  0.4989800000000  0.5310030000000  0.5355120000000 1.0
C      1  0.4925290000000  0.4711500000000  0.5344750000000 1.0
C      1  0.4460930000000  0.5418750000000  0.5565080000000 1.0
C      1  0.4475960000000  0.4581560000000  0.5604690000000 1.0
C      1  0.4782170000000  0.4169720000000  0.5287900000000 1.0
C      1  0.4704750000000  0.5852510000000  0.5326990000000 1.0
C      1  0.4179390000000  0.5317940000000  0.5460000000000 1.0
C      1  0.4200090000000  0.4701350000000  0.5490240000000 1.0
C      1  0.4585190000000  0.4993000000000  0.5241460000000 1.0
C      1  0.6024830000000  0.5035290000000  0.4750150000000 1.0
C      1  0.5143960000000  0.4961320000000  0.6103650000000 1.0
C      1  0.4748330000000  0.4982550000000  0.4943240000000 1.0
C      1  0.5331220000000  0.5005990000000  0.4246760000000 1.0
C      1  0.4747900000000  0.5066670000000  0.4471580000000 1.0
C      1  0.4554650000000  0.4880760000000  0.4680940000000 1.0
C      1  0.5071780000000  0.5007460000000  0.5635260000000 1.0
C      1  0.4668570000000  0.4954020000000  0.6042480000000 1.0
C      1  0.5825230000000  0.5003380000000  0.5641820000000 1.0
C      1  0.5550470000000  0.5027940000000  0.5356560000000 1.0
C      1  0.5403130000000  0.5027530000000  0.5561290000000 1.0
C      1  0.4280660000000  0.5041640000000  0.4282260000000 1.0
C      1  0.5407170000000  0.4989770000000  0.5082370000000 1.0
C      1  0.4122600000000  0.4989110000000  0.5527800000000 1.0
C      1  0.5141120000000  0.5008540000000  0.4893350000000 1.0
C      1  0.6048730000000  0.5011090000000  0.5061820000000 1.0
C      1  0.5411300000000  0.4934690000000  0.4687050000000 1.0
C      1  0.3978060000000  0.5051690000000  0.4320150000000 1.0
C      1  0.3902370000000  0.4969740000000  0.4594170000000 1.0
C      1  0.4355770000000  0.5029190000000  0.4993080000000 1.0
C      1  0.5017600000000  0.4936000000000  0.4358360000000 1.0
C      1  0.4240960000000  0.4994510000000  0.4613710000000 1.0
C      1  0.5730880000000  0.5039460000000  0.4636330000000 1.0
C      1  0.4819170000000  0.5017110000000  0.3775040000000 1.0
C      1  0.5861500000000  0.5085560000000  0.5328540000000 1.0
C      1  0.5366640000000  0.4951440000000  0.3952840000000 1.0
C      1  0.5660070000000  0.5038520000000  0.4327130000000 1.0
C      1  0.4767590000000  0.5027650000000  0.5526570000000 1.0
C      1  0.4543060000000  0.5038140000000  0.4214310000000 1.0
C      1  0.4918130000000  0.4826960000000  0.6028660000000 1.0
C      1  0.4038150000000  0.5111230000000  0.5221860000000 1.0
C      1  0.4980090000000  0.5011340000000  0.5190490000000 1.0
C      1  0.4042230000000  0.5056180000000  0.4885600000000 1.0
C      1  0.4244990000000  0.5082610000000  0.5816960000000 1.0
C      1  0.4846190000000  0.4988360000000  0.4068510000000 1.0
C      1  0.5371280000000  0.5018490000000  0.5899730000000 1.0
C      1  0.4488660000000  0.5132800000000  0.5926320000000 1.0
END
