TITL C-3289335-9438-253 0.00102516974175218 125000 -813.95285582474 0 0 152 (C1) n - 1
REM
REM in /nfs/bkarasulu/CARBON/AIRSS/Generating-Clusters/AIREBO/with-SteepDescent/Higher-Symm/SD-CG/HFTN-CG
REM
REM
REM
REM
REM
REM ./C.cell (b20cbc046b6831c77cfcea5457e17084)
REM
REM compiler GCC version 9.2.1 20190827 (Red Hat 9.2.1-1)
REM options -cpp -mtune=generic -march=x86-64 -g -O0 -fpre-include=/usr/include/finclude/math-vector-fortran.h
REM seed 2043900281 -1387893450 654214461 -1711552975 -1934424488 1281924905 -1476011124 -219789404 1183672045 -1843358840 -1647312923 1714556231 -737796047 1238368300 -72155085 -966653347 2028611453 1116297396 803926842 1342776352 1242854211 1657313996 534661625 1645889643 212034960 -1269289865 -2086308925 1791206598 1939336983 1610464972 -1075338771 -343987025 2061939465
REM
CELL 1.54180   50.00000   50.00000   50.00000   90.00000   90.00000   90.00000
LATT -1
SFAC C  
C      1  0.4312120000000  0.4666990000000  0.4422610000000 1.0
C      1  0.5664440000000  0.5169630000000  0.4465030000000 1.0
C      1  0.4509000000000  0.5551960000000  0.4875790000000 1.0
C      1  0.5460330000000  0.5561920000000  0.5144410000000 1.0
C      1  0.4368320000000  0.5316460000000  0.5544390000000 1.0
C      1  0.5623950000000  0.4818240000000  0.5512370000000 1.0
C      1  0.4391870000000  0.4511750000000  0.5249120000000 1.0
C      1  0.5694140000000  0.4366390000000  0.4812420000000 1.0
C      1  0.4965130000000  0.6064420000000  0.4898990000000 1.0
C      1  0.4963760000000  0.5705180000000  0.5442890000000 1.0
C      1  0.4969280000000  0.5200170000000  0.6065680000000 1.0
C      1  0.4984550000000  0.4513340000000  0.5754470000000 1.0
C      1  0.4977430000000  0.4229250000000  0.5153360000000 1.0
C      1  0.4981680000000  0.4279710000000  0.4522570000000 1.0
C      1  0.5003090000000  0.4817430000000  0.4081240000000 1.0
C      1  0.4978540000000  0.5523710000000  0.4222840000000 1.0
C      1  0.4698150000000  0.4039810000000  0.5191350000000 1.0
C      1  0.5287600000000  0.4168770000000  0.4430370000000 1.0
C      1  0.4701090000000  0.4717690000000  0.4001300000000 1.0
C      1  0.5283560000000  0.5498690000000  0.4128890000000 1.0
C      1  0.4727760000000  0.5984920000000  0.4784990000000 1.0
C      1  0.5274340000000  0.5795590000000  0.5547660000000 1.0
C      1  0.4654040000000  0.5199830000000  0.5963160000000 1.0
C      1  0.5262590000000  0.4491740000000  0.5922460000000 1.0
C      1  0.4795170000000  0.5281610000000  0.4069540000000 1.0
C      1  0.5226430000000  0.5860850000000  0.4417160000000 1.0
C      1  0.4719560000000  0.5867530000000  0.5285740000000 1.0
C      1  0.5197540000000  0.5375090000000  0.5883600000000 1.0
C      1  0.4794360000000  0.4734610000000  0.5918090000000 1.0
C      1  0.5172440000000  0.4177770000000  0.5416650000000 1.0
C      1  0.4737230000000  0.4092150000000  0.4656950000000 1.0
C      1  0.5183790000000  0.4537200000000  0.4148590000000 1.0
C      1  0.5346290000000  0.4860620000000  0.5796310000000 1.0
C      1  0.4723150000000  0.4453060000000  0.5459560000000 1.0
C      1  0.5319520000000  0.4283370000000  0.4913930000000 1.0
C      1  0.4679640000000  0.4531050000000  0.4353240000000 1.0
C      1  0.5330320000000  0.5023270000000  0.4216870000000 1.0
C      1  0.4701010000000  0.5577970000000  0.4505140000000 1.0
C      1  0.5227690000000  0.5848990000000  0.4916480000000 1.0
C      1  0.4718960000000  0.5470200000000  0.5653780000000 1.0
C      1  0.4711270000000  0.4410620000000  0.4044750000000 1.0
C      1  0.5299190000000  0.5248140000000  0.3999850000000 1.0
C      1  0.4746900000000  0.5883070000000  0.4530920000000 1.0
C      1  0.5250060000000  0.5906450000000  0.5252350000000 1.0
C      1  0.4824250000000  0.5491130000000  0.5957480000000 1.0
C      1  0.5243140000000  0.4756070000000  0.6084710000000 1.0
C      1  0.4725850000000  0.4144570000000  0.5471270000000 1.0
C      1  0.5254220000000  0.4054390000000  0.4706900000000 1.0
C      1  0.5501170000000  0.4871760000000  0.4449360000000 1.0
C      1  0.4572110000000  0.5303080000000  0.4399290000000 1.0
C      1  0.5550890000000  0.5794940000000  0.4913970000000 1.0
C      1  0.4611460000000  0.5442870000000  0.5335040000000 1.0
C      1  0.5484350000000  0.5098110000000  0.5631250000000 1.0
C      1  0.4603480000000  0.4749240000000  0.5385030000000 1.0
C      1  0.5528710000000  0.4460280000000  0.5095210000000 1.0
C      1  0.4517290000000  0.4486110000000  0.4625740000000 1.0
C      1  0.4982490000000  0.4880610000000  0.6112550000000 1.0
C      1  0.4970160000000  0.4216810000000  0.5660430000000 1.0
C      1  0.4988640000000  0.4069220000000  0.4861810000000 1.0
C      1  0.4973130000000  0.4320810000000  0.4189010000000 1.0
C      1  0.5034240000000  0.5099600000000  0.3960780000000 1.0
C      1  0.4959890000000  0.5823350000000  0.4327830000000 1.0
C      1  0.4983640000000  0.6015780000000  0.5185880000000 1.0
C      1  0.5045580000000  0.5664590000000  0.5770470000000 1.0
C      1  0.4589930000000  0.5770490000000  0.5559540000000 1.0
C      1  0.5353120000000  0.5130470000000  0.6003220000000 1.0
C      1  0.4582450000000  0.4572650000000  0.5739790000000 1.0
C      1  0.5364500000000  0.4106510000000  0.5180090000000 1.0
C      1  0.4622960000000  0.4198310000000  0.4372270000000 1.0
C      1  0.5414750000000  0.4741160000000  0.4087840000000 1.0
C      1  0.4599510000000  0.5538010000000  0.4177270000000 1.0
C      1  0.5288170000000  0.6019420000000  0.4628540000000 1.0
C      1  0.4805660000000  0.5075550000000  0.4411820000000 1.0
C      1  0.5152760000000  0.5557630000000  0.4749970000000 1.0
C      1  0.4878250000000  0.5422220000000  0.5133120000000 1.0
C      1  0.5230480000000  0.5280090000000  0.5496730000000 1.0
C      1  0.4839360000000  0.4900390000000  0.5557650000000 1.0
C      1  0.5281390000000  0.4546800000000  0.5312510000000 1.0
C      1  0.4764470000000  0.4503450000000  0.4858750000000 1.0
C      1  0.5213210000000  0.4722280000000  0.4551430000000 1.0
C      1  0.5751460000000  0.4757960000000  0.4758050000000 1.0
C      1  0.4251650000000  0.4893470000000  0.4638200000000 1.0
C      1  0.5812550000000  0.5308740000000  0.4809420000000 1.0
C      1  0.4137660000000  0.5469740000000  0.5064610000000 1.0
C      1  0.5667500000000  0.5329770000000  0.5277040000000 1.0
C      1  0.4181950000000  0.5021020000000  0.5310090000000 1.0
C      1  0.5883000000000  0.4691290000000  0.5237390000000 1.0
C      1  0.4091450000000  0.4633710000000  0.5015190000000 1.0
C      1  0.4909400000000  0.4751920000000  0.4401600000000 1.0
C      1  0.5085850000000  0.5221850000000  0.4337180000000 1.0
C      1  0.4828120000000  0.5462820000000  0.4798940000000 1.0
C      1  0.5174760000000  0.5514540000000  0.5258160000000 1.0
C      1  0.4894820000000  0.5232130000000  0.5522820000000 1.0
C      1  0.5139340000000  0.4740090000000  0.5553680000000 1.0
C      1  0.4875820000000  0.4553150000000  0.5172550000000 1.0
C      1  0.5091830000000  0.4488910000000  0.4767100000000 1.0
C      1  0.4497280000000  0.5085360000000  0.5200350000000 1.0
C      1  0.5621720000000  0.4907870000000  0.5209030000000 1.0
C      1  0.4466030000000  0.4783780000000  0.5083770000000 1.0
C      1  0.5480380000000  0.4830680000000  0.4927880000000 1.0
C      1  0.4494720000000  0.4979700000000  0.4815130000000 1.0
C      1  0.5555920000000  0.5106470000000  0.4766250000000 1.0
C      1  0.4380670000000  0.5263920000000  0.4969440000000 1.0
C      1  0.5411880000000  0.5165070000000  0.5134150000000 1.0
C      1  0.5679240000000  0.5438530000000  0.5565690000000 1.0
C      1  0.4338930000000  0.5012670000000  0.5605700000000 1.0
C      1  0.5614390000000  0.4524740000000  0.5530910000000 1.0
C      1  0.4321440000000  0.4388660000000  0.4962570000000 1.0
C      1  0.5689200000000  0.4532060000000  0.4544830000000 1.0
C      1  0.4337680000000  0.4988810000000  0.4321110000000 1.0
C      1  0.5616040000000  0.5468760000000  0.4501070000000 1.0
C      1  0.4227320000000  0.5793070000000  0.5021570000000 1.0
C      1  0.5842030000000  0.4224230000000  0.5030090000000 1.0
C      1  0.4181560000000  0.4374030000000  0.4442760000000 1.0
C      1  0.5846630000000  0.4971370000000  0.4277150000000 1.0
C      1  0.4246620000000  0.5487740000000  0.4669190000000 1.0
C      1  0.5794540000000  0.5639840000000  0.5069730000000 1.0
C      1  0.4319130000000  0.5620520000000  0.5605790000000 1.0
C      1  0.5855410000000  0.4963090000000  0.5687500000000 1.0
C      1  0.4179240000000  0.4559000000000  0.5490290000000 1.0
C      1  0.5214650000000  0.4690850000000  0.5011560000000 1.0
C      1  0.4766390000000  0.4806830000000  0.4705210000000 1.0
C      1  0.5159190000000  0.5051540000000  0.4617390000000 1.0
C      1  0.4780550000000  0.5149240000000  0.4742790000000 1.0
C      1  0.5279160000000  0.5252930000000  0.4833550000000 1.0
C      1  0.4797330000000  0.5109650000000  0.5222040000000 1.0
C      1  0.5231380000000  0.4982040000000  0.5333090000000 1.0
C      1  0.4978250000000  0.4856860000000  0.5183700000000 1.0
C      1  0.6052150000000  0.4972920000000  0.5219860000000 1.0
C      1  0.4064890000000  0.4735130000000  0.5279010000000 1.0
C      1  0.6024500000000  0.4722270000000  0.4950400000000 1.0
C      1  0.4030030000000  0.4828930000000  0.4823720000000 1.0
C      1  0.5955170000000  0.5020370000000  0.4836020000000 1.0
C      1  0.3887710000000  0.5051740000000  0.4928970000000 1.0
C      1  0.5908560000000  0.5228720000000  0.5114290000000 1.0
C      1  0.4006590000000  0.5196170000000  0.5129980000000 1.0
C      1  0.4601890000000  0.4970080000000  0.5775990000000 1.0
C      1  0.5339720000000  0.4399220000000  0.5613320000000 1.0
C      1  0.4610040000000  0.4210070000000  0.4934650000000 1.0
C      1  0.5393640000000  0.4474850000000  0.4403500000000 1.0
C      1  0.4612990000000  0.4999790000000  0.4141980000000 1.0
C      1  0.5332550000000  0.5564430000000  0.4459070000000 1.0
C      1  0.4556090000000  0.5841780000000  0.5003280000000 1.0
C      1  0.5400550000000  0.5527170000000  0.5656920000000 1.0
C      1  0.5773330000000  0.5231900000000  0.5758290000000 1.0
C      1  0.4325160000000  0.4693980000000  0.5694290000000 1.0
C      1  0.5790080000000  0.4395350000000  0.5302810000000 1.0
C      1  0.4295080000000  0.4234420000000  0.4679580000000 1.0
C      1  0.5694630000000  0.4681310000000  0.4243470000000 1.0
C      1  0.4300670000000  0.5266280000000  0.4514240000000 1.0
C      1  0.5766900000000  0.5612700000000  0.4730940000000 1.0
C      1  0.4342060000000  0.5613470000000  0.5279660000000 1.0
END
