TITL C-3289334-2237-726 31.7432267970334 125000 -524.877244039191 0 0 99 (C1) n - 1
REM
REM in /nfs/bkarasulu/CARBON/AIRSS/Generating-Clusters/AIREBO/with-SteepDescent/Higher-Symm/SD-CG/HFTN-CG
REM
REM
REM
REM
REM
REM ./C.cell (b20cbc046b6831c77cfcea5457e17084)
REM
REM compiler GCC version 9.2.1 20190827 (Red Hat 9.2.1-1)
REM options -cpp -mtune=generic -march=x86-64 -g -O0 -fpre-include=/usr/include/finclude/math-vector-fortran.h
REM seed 1150464924 1338321362 884903866 1795786315 -338246630 133089337 -85734242 -518972722 -1069196838 1150629814 1010047948 -2052100183 1684744392 -2132017195 60154902 -1183521558 -933459186 -439302448 715517995 -2139318598 1916096166 1776628824 1088192404 1508000553 1175633175 -687598169 1094674350 1145235414 -1093388298 -1012810535 1891069231 -629695929 -2037254876
REM
CELL 1.54180   50.00000   50.00000   50.00000   90.00000   90.00000   90.00000
LATT -1
SFAC C  
C      1  0.5190270000000  0.5712750000000  0.5417820000000 1.0
C      1  0.5543370000000  0.5801120000000  0.4944210000000 1.0
C      1  0.5201240000000  0.5783750000000  0.4328570000000 1.0
C      1  0.4606710000000  0.5739410000000  0.4833790000000 1.0
C      1  0.4483630000000  0.5689760000000  0.5422680000000 1.0
C      1  0.4285200000000  0.5484130000000  0.4520710000000 1.0
C      1  0.4329900000000  0.5346940000000  0.5571080000000 1.0
C      1  0.5600220000000  0.5429890000000  0.5848940000000 1.0
C      1  0.5959160000000  0.5421520000000  0.4917140000000 1.0
C      1  0.5124710000000  0.5339800000000  0.3943980000000 1.0
C      1  0.5654100000000  0.5035150000000  0.4911790000000 1.0
C      1  0.5188330000000  0.5080670000000  0.4370390000000 1.0
C      1  0.4386330000000  0.5027290000000  0.4658180000000 1.0
C      1  0.4450500000000  0.4877160000000  0.5560620000000 1.0
C      1  0.5263830000000  0.5133850000000  0.5613940000000 1.0
C      1  0.5687420000000  0.4453590000000  0.5137320000000 1.0
C      1  0.5347680000000  0.4505590000000  0.4453910000000 1.0
C      1  0.4393570000000  0.4510010000000  0.4572140000000 1.0
C      1  0.4446420000000  0.4434890000000  0.5308750000000 1.0
C      1  0.5128140000000  0.4593470000000  0.5670150000000 1.0
C      1  0.5254420000000  0.4715770000000  0.4926410000000 1.0
C      1  0.5002400000000  0.4715520000000  0.4698080000000 1.0
C      1  0.4747720000000  0.4663640000000  0.4937030000000 1.0
C      1  0.4843440000000  0.4733320000000  0.5255930000000 1.0
C      1  0.5155610000000  0.4774030000000  0.5246480000000 1.0
C      1  0.5383680000000  0.5622770000000  0.4741030000000 1.0
C      1  0.4933760000000  0.5684200000000  0.4464310000000 1.0
C      1  0.4590490000000  0.5472430000000  0.5000960000000 1.0
C      1  0.4735750000000  0.5519090000000  0.5465080000000 1.0
C      1  0.5292390000000  0.5477580000000  0.5217980000000 1.0
C      1  0.4209810000000  0.5274110000000  0.4711830000000 1.0
C      1  0.4500260000000  0.5154350000000  0.5693210000000 1.0
C      1  0.5537870000000  0.5274180000000  0.5632870000000 1.0
C      1  0.5821090000000  0.5236120000000  0.4734490000000 1.0
C      1  0.5052660000000  0.5276160000000  0.4186060000000 1.0
C      1  0.4675210000000  0.4563840000000  0.5823510000000 1.0
C      1  0.5705240000000  0.4654720000000  0.5418600000000 1.0
C      1  0.5729630000000  0.4692820000000  0.4721530000000 1.0
C      1  0.4579860000000  0.4605410000000  0.4261790000000 1.0
C      1  0.4139020000000  0.4558640000000  0.4989810000000 1.0
C      1  0.4671270000000  0.5171800000000  0.4200020000000 1.0
C      1  0.4120880000000  0.5081300000000  0.5164310000000 1.0
C      1  0.4914950000000  0.5069260000000  0.5958460000000 1.0
C      1  0.5837760000000  0.4952870000000  0.5428720000000 1.0
C      1  0.5597110000000  0.5004550000000  0.4305230000000 1.0
C      1  0.4874140000000  0.4460950000000  0.5637570000000 1.0
C      1  0.5569250000000  0.4357520000000  0.5441310000000 1.0
C      1  0.5553820000000  0.4460380000000  0.4647960000000 1.0
C      1  0.4674230000000  0.4351540000000  0.4314470000000 1.0
C      1  0.4343160000000  0.4373770000000  0.5045310000000 1.0
C      1  0.5415700000000  0.5706500000000  0.4443270000000 1.0
C      1  0.4739790000000  0.5844660000000  0.4653560000000 1.0
C      1  0.4409390000000  0.5682450000000  0.5177010000000 1.0
C      1  0.4984090000000  0.5697930000000  0.5558620000000 1.0
C      1  0.5502390000000  0.5734980000000  0.5186570000000 1.0
C      1  0.5736920000000  0.4755120000000  0.5033670000000 1.0
C      1  0.5337330000000  0.4785240000000  0.4300070000000 1.0
C      1  0.4420920000000  0.4815880000000  0.4457780000000 1.0
C      1  0.4341020000000  0.4692500000000  0.5382590000000 1.0
C      1  0.5142890000000  0.4896810000000  0.5783510000000 1.0
C      1  0.4709470000000  0.4933050000000  0.4355100000000 1.0
C      1  0.4261010000000  0.4828810000000  0.5109470000000 1.0
C      1  0.4812390000000  0.4846050000000  0.5721910000000 1.0
C      1  0.5532840000000  0.4900420000000  0.5263750000000 1.0
C      1  0.5495410000000  0.4851850000000  0.4593650000000 1.0
C      1  0.4973320000000  0.5575230000000  0.5000630000000 1.0
C      1  0.4684730000000  0.5190700000000  0.4854840000000 1.0
C      1  0.4690000000000  0.5261170000000  0.5248210000000 1.0
C      1  0.5021160000000  0.5279910000000  0.5162450000000 1.0
C      1  0.5410190000000  0.5345530000000  0.4936090000000 1.0
C      1  0.5410560000000  0.4413710000000  0.4939670000000 1.0
C      1  0.5077950000000  0.4418080000000  0.4582660000000 1.0
C      1  0.4589940000000  0.4385830000000  0.4820410000000 1.0
C      1  0.4775410000000  0.4405530000000  0.5316810000000 1.0
C      1  0.5302370000000  0.4571820000000  0.5429260000000 1.0
C      1  0.5382540000000  0.5230850000000  0.4554780000000 1.0
C      1  0.4576280000000  0.5317380000000  0.4558850000000 1.0
C      1  0.4352190000000  0.5296530000000  0.5267780000000 1.0
C      1  0.4995960000000  0.5303140000000  0.5500880000000 1.0
C      1  0.5700870000000  0.5308460000000  0.5108600000000 1.0
C      1  0.5045030000000  0.4198280000000  0.5320660000000 1.0
C      1  0.5300430000000  0.4303170000000  0.5241800000000 1.0
C      1  0.5191000000000  0.4198030000000  0.4794950000000 1.0
C      1  0.4790180000000  0.4308750000000  0.4556370000000 1.0
C      1  0.4752290000000  0.4197140000000  0.5048830000000 1.0
C      1  0.4817420000000  0.5434920000000  0.4351460000000 1.0
C      1  0.4171610000000  0.5325980000000  0.4979040000000 1.0
C      1  0.4770290000000  0.5240660000000  0.5747710000000 1.0
C      1  0.5709520000000  0.5226050000000  0.5410030000000 1.0
C      1  0.5675930000000  0.5241290000000  0.4490720000000 1.0
C      1  0.5241830000000  0.5059300000000  0.5302840000000 1.0
C      1  0.5325030000000  0.5033250000000  0.4825710000000 1.0
C      1  0.4958600000000  0.4974340000000  0.4553370000000 1.0
C      1  0.4512510000000  0.4907630000000  0.4931520000000 1.0
C      1  0.4722950000000  0.4968130000000  0.5418470000000 1.0
C      1  0.4999650000000  0.5127170000000  0.4859130000000 1.0
C      1  0.4984500000000  0.4087160000000  0.4941850000000 1.0
C      1  0.5075240000000  0.5654000000000  0.4758900000000 1.0
C      1  0.5024250000000  0.4480950000000  0.5013150000000 1.0
END
