TITL C-3289329-2751-8 0.00057464012201202 125000 -1108.79564539491 0 0 200 (C1) n - 1
REM
REM in /nfs/bkarasulu/CARBON/AIRSS/Generating-Clusters/AIREBO/with-SteepDescent/Higher-Symm/SD-CG/HFTN-CG
REM
REM
REM
REM
REM
REM ./C.cell (b20cbc046b6831c77cfcea5457e17084)
REM
REM compiler GCC version 9.2.1 20190827 (Red Hat 9.2.1-1)
REM options -cpp -mtune=generic -march=x86-64 -g -O0 -fpre-include=/usr/include/finclude/math-vector-fortran.h
REM seed 499870096 1426849414 -931001118 342390496 -1558689241 -871174639 -383243205 -1030387912 2036453148 -1838554382 1120859470 -1830588872 123154512 1174255725 1131860856 394754229 -1310141129 -1908295616 -1573836437 1459370981 -50058714 -538985070 -690669712 1833176758 1497188453 -1960299072 -1237967614 278020237 -1890918852 580220824 904856553 -273662894 772233921
REM
CELL 1.54180   50.00000   50.00000   50.00000   90.00000   90.00000   90.00000
LATT -1
SFAC C  
C      1  0.5763750000000  0.5199500000000  0.5548320000000 1.0
C      1  0.5720520000000  0.4594410000000  0.5358550000000 1.0
C      1  0.5614160000000  0.4558820000000  0.4698920000000 1.0
C      1  0.5601450000000  0.5170700000000  0.4459700000000 1.0
C      1  0.5587900000000  0.5526250000000  0.5013840000000 1.0
C      1  0.4992380000000  0.4437430000000  0.4768340000000 1.0
C      1  0.4967830000000  0.5062780000000  0.4269880000000 1.0
C      1  0.4965380000000  0.5678450000000  0.4832830000000 1.0
C      1  0.4894420000000  0.5404300000000  0.5624880000000 1.0
C      1  0.4958300000000  0.4574660000000  0.5581020000000 1.0
C      1  0.5027930000000  0.4214080000000  0.5006650000000 1.0
C      1  0.4990510000000  0.4726240000000  0.4248340000000 1.0
C      1  0.5029460000000  0.5571900000000  0.4527330000000 1.0
C      1  0.5083170000000  0.5638350000000  0.5595660000000 1.0
C      1  0.5067520000000  0.4714260000000  0.5844500000000 1.0
C      1  0.5811640000000  0.5507930000000  0.5661180000000 1.0
C      1  0.5854120000000  0.4441090000000  0.5628640000000 1.0
C      1  0.5682380000000  0.4243790000000  0.4599470000000 1.0
C      1  0.5903200000000  0.4991670000000  0.4206740000000 1.0
C      1  0.5919950000000  0.5747640000000  0.4901390000000 1.0
C      1  0.4315640000000  0.4542010000000  0.4545820000000 1.0
C      1  0.4309530000000  0.5291150000000  0.4382910000000 1.0
C      1  0.4179190000000  0.5792870000000  0.5132270000000 1.0
C      1  0.4182400000000  0.5145900000000  0.5663110000000 1.0
C      1  0.4223660000000  0.4495880000000  0.5296220000000 1.0
C      1  0.5059670000000  0.4353460000000  0.3952270000000 1.0
C      1  0.5106020000000  0.5710560000000  0.4064830000000 1.0
C      1  0.5063960000000  0.5935270000000  0.5426110000000 1.0
C      1  0.4933910000000  0.4872840000000  0.6263700000000 1.0
C      1  0.5040210000000  0.3850450000000  0.5289250000000 1.0
C      1  0.5978920000000  0.4396000000000  0.5317050000000 1.0
C      1  0.5824390000000  0.4515300000000  0.4451510000000 1.0
C      1  0.5886080000000  0.5267570000000  0.4339960000000 1.0
C      1  0.5828610000000  0.5685920000000  0.5193980000000 1.0
C      1  0.5931740000000  0.4986080000000  0.5693040000000 1.0
C      1  0.4644160000000  0.4934080000000  0.5500180000000 1.0
C      1  0.4758330000000  0.4368080000000  0.5258790000000 1.0
C      1  0.4695570000000  0.4653670000000  0.4491000000000 1.0
C      1  0.4705750000000  0.5302650000000  0.4533950000000 1.0
C      1  0.4668240000000  0.5517020000000  0.5156140000000 1.0
C      1  0.4865200000000  0.3921970000000  0.4058390000000 1.0
C      1  0.4740360000000  0.5518890000000  0.3796040000000 1.0
C      1  0.5063600000000  0.6342460000000  0.5202150000000 1.0
C      1  0.4696520000000  0.5065040000000  0.6315060000000 1.0
C      1  0.5161490000000  0.3765100000000  0.5557450000000 1.0
C      1  0.4937220000000  0.3991560000000  0.4588830000000 1.0
C      1  0.4796100000000  0.5025920000000  0.3910600000000 1.0
C      1  0.4884360000000  0.6036510000000  0.4676780000000 1.0
C      1  0.4738900000000  0.5569680000000  0.5967140000000 1.0
C      1  0.4906610000000  0.4294840000000  0.5861450000000 1.0
C      1  0.5227190000000  0.4041110000000  0.4361860000000 1.0
C      1  0.5030470000000  0.5169020000000  0.3869590000000 1.0
C      1  0.5121510000000  0.6061410000000  0.4817030000000 1.0
C      1  0.4962350000000  0.5416020000000  0.6026580000000 1.0
C      1  0.5158280000000  0.4244330000000  0.5761660000000 1.0
C      1  0.4938690000000  0.5276070000000  0.4993370000000 1.0
C      1  0.4879190000000  0.5104200000000  0.5229760000000 1.0
C      1  0.4882740000000  0.4808050000000  0.5149830000000 1.0
C      1  0.4921120000000  0.4759440000000  0.4851360000000 1.0
C      1  0.4856990000000  0.5071570000000  0.4732270000000 1.0
C      1  0.5985210000000  0.4761940000000  0.4326400000000 1.0
C      1  0.6112550000000  0.5337510000000  0.4487910000000 1.0
C      1  0.5971130000000  0.5501990000000  0.5388990000000 1.0
C      1  0.6152730000000  0.5052330000000  0.5489230000000 1.0
C      1  0.6224050000000  0.4553620000000  0.5264580000000 1.0
C      1  0.6051090000000  0.5200820000000  0.5043370000000 1.0
C      1  0.6096290000000  0.5268860000000  0.5313640000000 1.0
C      1  0.6306240000000  0.4837580000000  0.5395100000000 1.0
C      1  0.6318140000000  0.4796390000000  0.5075240000000 1.0
C      1  0.6232010000000  0.5018680000000  0.4926670000000 1.0
C      1  0.4868730000000  0.4416620000000  0.4319180000000 1.0
C      1  0.4898890000000  0.5395780000000  0.4267300000000 1.0
C      1  0.4893130000000  0.5772770000000  0.5151410000000 1.0
C      1  0.4866480000000  0.4952140000000  0.5757410000000 1.0
C      1  0.5071270000000  0.4324730000000  0.5290070000000 1.0
C      1  0.4495370000000  0.5765870000000  0.5183790000000 1.0
C      1  0.4451220000000  0.4945990000000  0.5730240000000 1.0
C      1  0.4642010000000  0.4122190000000  0.5231230000000 1.0
C      1  0.4504040000000  0.4564820000000  0.4262960000000 1.0
C      1  0.4571040000000  0.5484760000000  0.4281870000000 1.0
C      1  0.5880880000000  0.5560170000000  0.5946810000000 1.0
C      1  0.5645010000000  0.4295310000000  0.5822760000000 1.0
C      1  0.5532060000000  0.4079130000000  0.4412390000000 1.0
C      1  0.5717220000000  0.4966710000000  0.4013340000000 1.0
C      1  0.5775150000000  0.5789650000000  0.4707460000000 1.0
C      1  0.4323700000000  0.5529940000000  0.4064060000000 1.0
C      1  0.4431200000000  0.6076240000000  0.5255200000000 1.0
C      1  0.4352120000000  0.5085010000000  0.6017350000000 1.0
C      1  0.4408690000000  0.4065620000000  0.5399700000000 1.0
C      1  0.4367680000000  0.4281230000000  0.4249570000000 1.0
C      1  0.4270960000000  0.5374970000000  0.4881550000000 1.0
C      1  0.4202790000000  0.5311820000000  0.5183030000000 1.0
C      1  0.4124240000000  0.4987770000000  0.5184950000000 1.0
C      1  0.4237920000000  0.4889150000000  0.4909070000000 1.0
C      1  0.4247440000000  0.5125220000000  0.4721030000000 1.0
C      1  0.4277490000000  0.4162970000000  0.5872680000000 1.0
C      1  0.4375240000000  0.3901890000000  0.4563340000000 1.0
C      1  0.4256170000000  0.5091310000000  0.3845000000000 1.0
C      1  0.4331950000000  0.6211920000000  0.4763220000000 1.0
C      1  0.4235860000000  0.5570530000000  0.6074060000000 1.0
C      1  0.4612400000000  0.5243330000000  0.5352840000000 1.0
C      1  0.4609010000000  0.4673100000000  0.5284680000000 1.0
C      1  0.4500610000000  0.4699710000000  0.4961410000000 1.0
C      1  0.4581000000000  0.4878810000000  0.4683400000000 1.0
C      1  0.4670850000000  0.5410950000000  0.4833060000000 1.0
C      1  0.5388050000000  0.4392880000000  0.5825800000000 1.0
C      1  0.5249580000000  0.3979640000000  0.4674230000000 1.0
C      1  0.5258470000000  0.5027430000000  0.3847720000000 1.0
C      1  0.5348780000000  0.6021010000000  0.4671650000000 1.0
C      1  0.5200750000000  0.5522350000000  0.5959900000000 1.0
C      1  0.4036190000000  0.5126550000000  0.4494270000000 1.0
C      1  0.4072320000000  0.5623880000000  0.4943900000000 1.0
C      1  0.4004800000000  0.5182690000000  0.5416840000000 1.0
C      1  0.4056820000000  0.4682240000000  0.5199260000000 1.0
C      1  0.4114470000000  0.4661200000000  0.4757510000000 1.0
C      1  0.4499300000000  0.6093210000000  0.4957320000000 1.0
C      1  0.4402400000000  0.5357260000000  0.6003250000000 1.0
C      1  0.4459620000000  0.4157010000000  0.5660960000000 1.0
C      1  0.4501300000000  0.4111370000000  0.4428930000000 1.0
C      1  0.4436550000000  0.5268410000000  0.3973580000000 1.0
C      1  0.4198470000000  0.5608480000000  0.4343950000000 1.0
C      1  0.4205170000000  0.5894650000000  0.5423530000000 1.0
C      1  0.4115120000000  0.4887810000000  0.5874010000000 1.0
C      1  0.4260570000000  0.4238260000000  0.5206140000000 1.0
C      1  0.4118810000000  0.4504600000000  0.4272170000000 1.0
C      1  0.4338310000000  0.5392370000000  0.5488220000000 1.0
C      1  0.4407850000000  0.4575330000000  0.5541030000000 1.0
C      1  0.4489840000000  0.4409530000000  0.4782550000000 1.0
C      1  0.4411270000000  0.4978080000000  0.4410790000000 1.0
C      1  0.4430200000000  0.5641870000000  0.4766660000000 1.0
C      1  0.5005180000000  0.4137080000000  0.4180150000000 1.0
C      1  0.4976790000000  0.5457380000000  0.3939760000000 1.0
C      1  0.5064390000000  0.6065020000000  0.5120140000000 1.0
C      1  0.4901470000000  0.5126330000000  0.6047690000000 1.0
C      1  0.5150420000000  0.4101030000000  0.5505880000000 1.0
C      1  0.5417200000000  0.5551580000000  0.5305360000000 1.0
C      1  0.5318980000000  0.5051310000000  0.5700370000000 1.0
C      1  0.5409250000000  0.4395460000000  0.5131120000000 1.0
C      1  0.5361330000000  0.4691670000000  0.4383550000000 1.0
C      1  0.5388140000000  0.5408660000000  0.4483870000000 1.0
C      1  0.5301970000000  0.5638860000000  0.4863350000000 1.0
C      1  0.5493990000000  0.5264690000000  0.5682410000000 1.0
C      1  0.5423640000000  0.4544120000000  0.5436590000000 1.0
C      1  0.5301340000000  0.4472400000000  0.4636480000000 1.0
C      1  0.5301000000000  0.5130350000000  0.4305250000000 1.0
C      1  0.4119070000000  0.4387300000000  0.5897540000000 1.0
C      1  0.4241880000000  0.3966780000000  0.4794850000000 1.0
C      1  0.4099000000000  0.4928080000000  0.4002480000000 1.0
C      1  0.4189820000000  0.6042970000000  0.4596130000000 1.0
C      1  0.4102690000000  0.5689480000000  0.5863960000000 1.0
C      1  0.4257330000000  0.5775080000000  0.4549800000000 1.0
C      1  0.4198750000000  0.5681780000000  0.5600850000000 1.0
C      1  0.4199540000000  0.4618300000000  0.5776050000000 1.0
C      1  0.4312270000000  0.4198750000000  0.4934620000000 1.0
C      1  0.4183870000000  0.4799810000000  0.4239420000000 1.0
C      1  0.4786400000000  0.4763760000000  0.3816370000000 1.0
C      1  0.4892700000000  0.6019550000000  0.4398990000000 1.0
C      1  0.4779540000000  0.5847660000000  0.5928210000000 1.0
C      1  0.4898760000000  0.4387880000000  0.6125940000000 1.0
C      1  0.4857030000000  0.3814790000000  0.4821790000000 1.0
C      1  0.4746040000000  0.4272800000000  0.4601350000000 1.0
C      1  0.4639110000000  0.5101910000000  0.4190120000000 1.0
C      1  0.4672910000000  0.5852560000000  0.4830130000000 1.0
C      1  0.4572540000000  0.5422440000000  0.5732960000000 1.0
C      1  0.4676500000000  0.4396740000000  0.5648760000000 1.0
C      1  0.5359660000000  0.4768240000000  0.5070740000000 1.0
C      1  0.5281540000000  0.4903240000000  0.4790910000000 1.0
C      1  0.5379020000000  0.5202720000000  0.4825770000000 1.0
C      1  0.5410380000000  0.5199600000000  0.5161230000000 1.0
C      1  0.5247290000000  0.4975570000000  0.5315730000000 1.0
C      1  0.5726760000000  0.4721450000000  0.5752750000000 1.0
C      1  0.5651050000000  0.4237970000000  0.4938900000000 1.0
C      1  0.5514930000000  0.4566520000000  0.4019880000000 1.0
C      1  0.5606890000000  0.5712530000000  0.4270300000000 1.0
C      1  0.5596190000000  0.5705900000000  0.5518370000000 1.0
C      1  0.5186760000000  0.5433130000000  0.5085080000000 1.0
C      1  0.5031050000000  0.5121870000000  0.5533620000000 1.0
C      1  0.5132760000000  0.4655740000000  0.5300420000000 1.0
C      1  0.5090410000000  0.4798780000000  0.4558930000000 1.0
C      1  0.5121070000000  0.5262900000000  0.4635730000000 1.0
C      1  0.5480970000000  0.5719610000000  0.4586050000000 1.0
C      1  0.5372110000000  0.5548250000000  0.5684110000000 1.0
C      1  0.5386310000000  0.4718090000000  0.5726350000000 1.0
C      1  0.5322290000000  0.4219200000000  0.4853510000000 1.0
C      1  0.5412610000000  0.4879510000000  0.4104690000000 1.0
C      1  0.4941000000000  0.4591680000000  0.3968500000000 1.0
C      1  0.5006840000000  0.5786300000000  0.4300930000000 1.0
C      1  0.4911450000000  0.5892770000000  0.5702980000000 1.0
C      1  0.5000420000000  0.4647260000000  0.6130460000000 1.0
C      1  0.4943520000000  0.3927540000000  0.5055000000000 1.0
C      1  0.5739390000000  0.4824550000000  0.5182030000000 1.0
C      1  0.5645860000000  0.4779460000000  0.4886090000000 1.0
C      1  0.5650800000000  0.5049340000000  0.4743430000000 1.0
C      1  0.5751270000000  0.5259100000000  0.4960650000000 1.0
C      1  0.5706480000000  0.5121970000000  0.5260600000000 1.0
C      1  0.5727120000000  0.5947590000000  0.5374690000000 1.0
C      1  0.5867390000000  0.4873840000000  0.6005130000000 1.0
C      1  0.5885070000000  0.4184820000000  0.5102210000000 1.0
C      1  0.5694560000000  0.4457490000000  0.4157450000000 1.0
C      1  0.5752800000000  0.5520950000000  0.4196280000000 1.0
END
