TITL C-3289335-9438-636 -5.1647450595364e-05 125000 -548.589823021633 0 0 106 (C1) n - 1
REM
REM in /nfs/bkarasulu/CARBON/AIRSS/Generating-Clusters/AIREBO/with-SteepDescent/Higher-Symm/SD-CG/HFTN-CG
REM
REM
REM
REM
REM
REM ./C.cell (b20cbc046b6831c77cfcea5457e17084)
REM
REM compiler GCC version 9.2.1 20190827 (Red Hat 9.2.1-1)
REM options -cpp -mtune=generic -march=x86-64 -g -O0 -fpre-include=/usr/include/finclude/math-vector-fortran.h
REM seed -695750485 451128044 1256439527 1358156203 -1904101830 1462141494 184308934 -1658131434 -1786649018 -822208048 -35991146 -872931740 -1668437106 -1581906031 434994127 146457033 132450401 530192988 1057888516 1012142296 -356039934 422809027 -692620197 -514556060 -631777960 894947357 -1041339578 446206665 -68277497 -1312674525 1753710095 -1127975170 -1176044739
REM
CELL 1.54180   50.00000   50.00000   50.00000   90.00000   90.00000   90.00000
LATT -1
SFAC C  
C      1  0.4857730000000  0.5138320000000  0.5322660000000 1.0
C      1  0.4940860000000  0.5190240000000  0.5016020000000 1.0
C      1  0.4759750000000  0.5250130000000  0.4756160000000 1.0
C      1  0.4843030000000  0.4950630000000  0.4712920000000 1.0
C      1  0.4908490000000  0.4787880000000  0.4976360000000 1.0
C      1  0.4763760000000  0.4607780000000  0.5226240000000 1.0
C      1  0.4833300000000  0.4833590000000  0.5452300000000 1.0
C      1  0.5948440000000  0.5254200000000  0.4811350000000 1.0
C      1  0.5820320000000  0.5101640000000  0.4628010000000 1.0
C      1  0.5787640000000  0.4829400000000  0.4668340000000 1.0
C      1  0.5757440000000  0.4711380000000  0.4918840000000 1.0
C      1  0.5794770000000  0.4789600000000  0.5181150000000 1.0
C      1  0.5785510000000  0.5061170000000  0.5266590000000 1.0
C      1  0.5792240000000  0.5315070000000  0.5074220000000 1.0
C      1  0.4549850000000  0.5799330000000  0.5206340000000 1.0
C      1  0.4595740000000  0.5762900000000  0.4517440000000 1.0
C      1  0.4516160000000  0.5059780000000  0.4160140000000 1.0
C      1  0.4555350000000  0.4317040000000  0.4486700000000 1.0
C      1  0.4585760000000  0.4043880000000  0.5098100000000 1.0
C      1  0.4511490000000  0.4538210000000  0.5703120000000 1.0
C      1  0.4500640000000  0.5325000000000  0.5800600000000 1.0
C      1  0.4990700000000  0.4681980000000  0.5690050000000 1.0
C      1  0.4962850000000  0.5288200000000  0.5610410000000 1.0
C      1  0.5037360000000  0.5855140000000  0.5233990000000 1.0
C      1  0.4953210000000  0.5464500000000  0.4610750000000 1.0
C      1  0.4964590000000  0.4944280000000  0.4397180000000 1.0
C      1  0.5034890000000  0.4353940000000  0.4445870000000 1.0
C      1  0.4985680000000  0.4351130000000  0.5216520000000 1.0
C      1  0.5326060000000  0.4220020000000  0.4409590000000 1.0
C      1  0.5198730000000  0.4101640000000  0.5126870000000 1.0
C      1  0.5276300000000  0.4668070000000  0.5810090000000 1.0
C      1  0.5244530000000  0.5427090000000  0.5741080000000 1.0
C      1  0.5352350000000  0.5951960000000  0.5236850000000 1.0
C      1  0.5155460000000  0.5722670000000  0.4520450000000 1.0
C      1  0.5113260000000  0.5051480000000  0.4110580000000 1.0
C      1  0.5174680000000  0.5036840000000  0.5697740000000 1.0
C      1  0.5178980000000  0.5591750000000  0.5384600000000 1.0
C      1  0.5100060000000  0.5592230000000  0.4889680000000 1.0
C      1  0.5125860000000  0.5237490000000  0.4459270000000 1.0
C      1  0.5158530000000  0.4669210000000  0.4414430000000 1.0
C      1  0.5091730000000  0.4406980000000  0.4898290000000 1.0
C      1  0.5160800000000  0.4475410000000  0.5480140000000 1.0
C      1  0.5514360000000  0.4518580000000  0.4914920000000 1.0
C      1  0.5606250000000  0.4607370000000  0.5353010000000 1.0
C      1  0.5595430000000  0.5090070000000  0.5500670000000 1.0
C      1  0.5585020000000  0.5441970000000  0.5311260000000 1.0
C      1  0.5529490000000  0.5466510000000  0.4917480000000 1.0
C      1  0.5568820000000  0.5210070000000  0.4505190000000 1.0
C      1  0.5552400000000  0.4722340000000  0.4492720000000 1.0
C      1  0.5340680000000  0.4699860000000  0.4155360000000 1.0
C      1  0.5287790000000  0.4243030000000  0.4735100000000 1.0
C      1  0.5433030000000  0.4277830000000  0.5497550000000 1.0
C      1  0.5428750000000  0.4953670000000  0.5898210000000 1.0
C      1  0.5411500000000  0.5669360000000  0.5590840000000 1.0
C      1  0.5313450000000  0.5800100000000  0.4950180000000 1.0
C      1  0.5330600000000  0.5444790000000  0.4293710000000 1.0
C      1  0.5297830000000  0.5306340000000  0.5276090000000 1.0
C      1  0.5238560000000  0.5296510000000  0.4963270000000 1.0
C      1  0.5303400000000  0.5125650000000  0.4692600000000 1.0
C      1  0.5293890000000  0.4826530000000  0.4681980000000 1.0
C      1  0.5226490000000  0.4692190000000  0.4966420000000 1.0
C      1  0.5294670000000  0.4728430000000  0.5296310000000 1.0
C      1  0.5292030000000  0.5019070000000  0.5404310000000 1.0
C      1  0.4147350000000  0.5365700000000  0.5007300000000 1.0
C      1  0.3999910000000  0.5347180000000  0.4757860000000 1.0
C      1  0.4162500000000  0.5165820000000  0.4604510000000 1.0
C      1  0.4116470000000  0.4888220000000  0.4637970000000 1.0
C      1  0.4196380000000  0.4732400000000  0.4860170000000 1.0
C      1  0.4138160000000  0.4858220000000  0.5128850000000 1.0
C      1  0.4104800000000  0.5136080000000  0.5170160000000 1.0
C      1  0.4565750000000  0.5296640000000  0.4323720000000 1.0
C      1  0.4560900000000  0.4623410000000  0.4461270000000 1.0
C      1  0.4607000000000  0.4246660000000  0.4877040000000 1.0
C      1  0.4628530000000  0.4414540000000  0.5476480000000 1.0
C      1  0.4542850000000  0.5039750000000  0.5726990000000 1.0
C      1  0.4582060000000  0.5537580000000  0.5346740000000 1.0
C      1  0.4605720000000  0.5713010000000  0.4820360000000 1.0
C      1  0.4456140000000  0.5270550000000  0.4623240000000 1.0
C      1  0.4581910000000  0.4762410000000  0.4738380000000 1.0
C      1  0.4448170000000  0.4507430000000  0.4900960000000 1.0
C      1  0.4452580000000  0.4734250000000  0.5166040000000 1.0
C      1  0.4525770000000  0.4969180000000  0.5400800000000 1.0
C      1  0.4581840000000  0.5266350000000  0.5170420000000 1.0
C      1  0.4453740000000  0.5449370000000  0.4913030000000 1.0
C      1  0.5428650000000  0.5501640000000  0.4610660000000 1.0
C      1  0.5398130000000  0.4976690000000  0.4326300000000 1.0
C      1  0.5532690000000  0.4418920000000  0.4590930000000 1.0
C      1  0.5469330000000  0.4344690000000  0.5183960000000 1.0
C      1  0.5525410000000  0.4777310000000  0.5619040000000 1.0
C      1  0.5569670000000  0.5373080000000  0.5643880000000 1.0
C      1  0.5581490000000  0.5718980000000  0.5139490000000 1.0
C      1  0.4918710000000  0.5838170000000  0.4740450000000 1.0
C      1  0.4891240000000  0.5293210000000  0.4218730000000 1.0
C      1  0.4835010000000  0.4548560000000  0.4273950000000 1.0
C      1  0.4931220000000  0.4107400000000  0.4907270000000 1.0
C      1  0.4931570000000  0.4250790000000  0.5598880000000 1.0
C      1  0.4860760000000  0.5030520000000  0.5828220000000 1.0
C      1  0.4867170000000  0.5685410000000  0.5464830000000 1.0
C      1  0.4678200000000  0.4744260000000  0.5808870000000 1.0
C      1  0.4691150000000  0.5476300000000  0.5651800000000 1.0
C      1  0.4793920000000  0.5880840000000  0.5048470000000 1.0
C      1  0.4746490000000  0.5566220000000  0.4360680000000 1.0
C      1  0.4679940000000  0.4840520000000  0.4242750000000 1.0
C      1  0.4813240000000  0.4214030000000  0.4608670000000 1.0
C      1  0.4749420000000  0.4137300000000  0.5335160000000 1.0
C      1  0.4551300000000  0.4997180000000  0.4982420000000 1.0
END
