TITL C-3289323-3850-83 0.000217015988481913 125000 -605.104605607277 0 0 113 (C1) n - 1
REM
REM in /nfs/bkarasulu/CARBON/AIRSS/Generating-Clusters/AIREBO/with-SteepDescent/Higher-Symm/SD-CG/HFTN-CG
REM
REM
REM
REM
REM
REM ./C.cell (b20cbc046b6831c77cfcea5457e17084)
REM
REM compiler GCC version 9.2.1 20190827 (Red Hat 9.2.1-1)
REM options -cpp -mtune=generic -march=x86-64 -g -O0 -fpre-include=/usr/include/finclude/math-vector-fortran.h
REM seed 2104659903 -1971549866 1823365556 1416139249 1693568348 1522526227 1328215178 207676917 -1964017216 81886790 1054111152 1270589085 163437897 -1113118196 -1563262116 -685875326 -2098372773 1439400951 -1063590093 226615667 1733466196 -1366117530 686153179 -563806625 -1607761757 1521701965 1738061665 -1737876910 1326246453 1872412216 811228603 43313806 -1202298464
REM
CELL 1.54180   50.00000   50.00000   50.00000   90.00000   90.00000   90.00000
LATT -1
SFAC C  
C      1  0.4602810000000  0.5423590000000  0.4124950000000 1.0
C      1  0.5531540000000  0.4187330000000  0.4649120000000 1.0
C      1  0.4181620000000  0.4523350000000  0.5420780000000 1.0
C      1  0.5382840000000  0.5434450000000  0.5906930000000 1.0
C      1  0.5425800000000  0.4472570000000  0.4139330000000 1.0
C      1  0.4563080000000  0.4607040000000  0.5829850000000 1.0
C      1  0.4713950000000  0.4121090000000  0.5424090000000 1.0
C      1  0.4679770000000  0.5901310000000  0.4550010000000 1.0
C      1  0.5471880000000  0.5816690000000  0.5431910000000 1.0
C      1  0.5691670000000  0.4533540000000  0.4426290000000 1.0
C      1  0.5866260000000  0.5316600000000  0.5451740000000 1.0
C      1  0.4177560000000  0.5418550000000  0.4675650000000 1.0
C      1  0.4595370000000  0.5711760000000  0.5569820000000 1.0
C      1  0.5570080000000  0.5566940000000  0.4687690000000 1.0
C      1  0.5652740000000  0.4733280000000  0.5737430000000 1.0
C      1  0.5265630000000  0.5741490000000  0.4496530000000 1.0
C      1  0.5222640000000  0.4588990000000  0.5685510000000 1.0
C      1  0.4622750000000  0.4490890000000  0.4306040000000 1.0
C      1  0.4311410000000  0.5672880000000  0.5170040000000 1.0
C      1  0.4492030000000  0.4317700000000  0.4713400000000 1.0
C      1  0.5541070000000  0.4371660000000  0.5430350000000 1.0
C      1  0.4327520000000  0.4726000000000  0.4576940000000 1.0
C      1  0.4398490000000  0.5302980000000  0.5458100000000 1.0
C      1  0.5504980000000  0.5410160000000  0.4230850000000 1.0
C      1  0.4283660000000  0.4505350000000  0.4749850000000 1.0
C      1  0.4395500000000  0.4663560000000  0.4307390000000 1.0
C      1  0.4554760000000  0.4250500000000  0.4444610000000 1.0
C      1  0.5630850000000  0.4642130000000  0.5462120000000 1.0
C      1  0.5586800000000  0.5356820000000  0.4513030000000 1.0
C      1  0.4203000000000  0.5478020000000  0.5348130000000 1.0
C      1  0.5381810000000  0.4771310000000  0.5823040000000 1.0
C      1  0.5251880000000  0.5507170000000  0.4355470000000 1.0
C      1  0.4613100000000  0.5429330000000  0.5590660000000 1.0
C      1  0.5267970000000  0.4343940000000  0.5517420000000 1.0
C      1  0.5274800000000  0.5667910000000  0.4815810000000 1.0
C      1  0.4560960000000  0.5781950000000  0.5296850000000 1.0
C      1  0.5685610000000  0.4872450000000  0.4496960000000 1.0
C      1  0.4845770000000  0.4688690000000  0.5669180000000 1.0
C      1  0.4650740000000  0.5789590000000  0.4864710000000 1.0
C      1  0.4295980000000  0.4810530000000  0.5278630000000 1.0
C      1  0.4327590000000  0.5122800000000  0.4600460000000 1.0
C      1  0.5678600000000  0.5036580000000  0.5460990000000 1.0
C      1  0.5137480000000  0.4541230000000  0.4305200000000 1.0
C      1  0.5126840000000  0.5327860000000  0.5710130000000 1.0
C      1  0.4867240000000  0.5432660000000  0.4307350000000 1.0
C      1  0.5456100000000  0.5626910000000  0.5167330000000 1.0
C      1  0.5343800000000  0.4360940000000  0.4860160000000 1.0
C      1  0.4723010000000  0.4273290000000  0.5131050000000 1.0
C      1  0.5104700000000  0.3983850000000  0.4882430000000 1.0
C      1  0.3975420000000  0.4790310000000  0.5042790000000 1.0
C      1  0.4859420000000  0.4994170000000  0.4042950000000 1.0
C      1  0.5117900000000  0.4024500000000  0.5130250000000 1.0
C      1  0.4961930000000  0.6007790000000  0.4987630000000 1.0
C      1  0.4986910000000  0.5932340000000  0.5227650000000 1.0
C      1  0.6056510000000  0.4792640000000  0.4888970000000 1.0
C      1  0.6015830000000  0.4997420000000  0.5025490000000 1.0
C      1  0.4033180000000  0.5035230000000  0.5032380000000 1.0
C      1  0.5037490000000  0.5125320000000  0.6042770000000 1.0
C      1  0.5103320000000  0.4945750000000  0.4000250000000 1.0
C      1  0.4796470000000  0.5115580000000  0.5973780000000 1.0
C      1  0.4224450000000  0.4585900000000  0.5033230000000 1.0
C      1  0.4771240000000  0.5113230000000  0.4311260000000 1.0
C      1  0.5135710000000  0.4196660000000  0.4649080000000 1.0
C      1  0.5861560000000  0.4684630000000  0.4712060000000 1.0
C      1  0.5757670000000  0.5104600000000  0.5132710000000 1.0
C      1  0.4271100000000  0.5161200000000  0.4918470000000 1.0
C      1  0.5282220000000  0.5056960000000  0.5847520000000 1.0
C      1  0.5269260000000  0.4828060000000  0.4228840000000 1.0
C      1  0.4703230000000  0.4970280000000  0.5742700000000 1.0
C      1  0.5035480000000  0.4311550000000  0.5283970000000 1.0
C      1  0.4978930000000  0.5771400000000  0.4773270000000 1.0
C      1  0.5136880000000  0.5670850000000  0.5275940000000 1.0
C      1  0.4882800000000  0.5312670000000  0.5495170000000 1.0
C      1  0.5332590000000  0.5373830000000  0.4976440000000 1.0
C      1  0.5427360000000  0.4858960000000  0.5323760000000 1.0
C      1  0.5080490000000  0.5291760000000  0.4531640000000 1.0
C      1  0.5064010000000  0.4701510000000  0.5408040000000 1.0
C      1  0.4868050000000  0.4617940000000  0.4430220000000 1.0
C      1  0.4678690000000  0.5536680000000  0.5090360000000 1.0
C      1  0.4731510000000  0.4419160000000  0.4866660000000 1.0
C      1  0.5191770000000  0.4524950000000  0.5075460000000 1.0
C      1  0.4555750000000  0.4897400000000  0.4713540000000 1.0
C      1  0.4499890000000  0.5082580000000  0.5272400000000 1.0
C      1  0.5507890000000  0.5084950000000  0.4612010000000 1.0
C      1  0.4464600000000  0.4756260000000  0.5568870000000 1.0
C      1  0.4797330000000  0.5589030000000  0.4556580000000 1.0
C      1  0.5539150000000  0.4579080000000  0.4723900000000 1.0
C      1  0.5587100000000  0.4759510000000  0.4197730000000 1.0
C      1  0.5514350000000  0.5239530000000  0.5679000000000 1.0
C      1  0.4508130000000  0.5288560000000  0.4402540000000 1.0
C      1  0.5311990000000  0.5550750000000  0.5532200000000 1.0
C      1  0.5326430000000  0.4270930000000  0.4390170000000 1.0
C      1  0.4790850000000  0.4428610000000  0.5489170000000 1.0
C      1  0.4451200000000  0.4445810000000  0.5245730000000 1.0
C      1  0.4355980000000  0.5620180000000  0.4871110000000 1.0
C      1  0.5611570000000  0.5373350000000  0.5260710000000 1.0
C      1  0.5025380000000  0.5352520000000  0.4862020000000 1.0
C      1  0.5379350000000  0.4803550000000  0.5021690000000 1.0
C      1  0.4794990000000  0.4993790000000  0.5416060000000 1.0
C      1  0.4963530000000  0.5430640000000  0.5191030000000 1.0
C      1  0.4993400000000  0.4477460000000  0.4700430000000 1.0
C      1  0.4989210000000  0.4797980000000  0.5089700000000 1.0
C      1  0.4682850000000  0.4714990000000  0.4970130000000 1.0
C      1  0.4599490000000  0.5224870000000  0.4979960000000 1.0
C      1  0.5495120000000  0.5102210000000  0.4927210000000 1.0
C      1  0.5197640000000  0.4973320000000  0.4528240000000 1.0
C      1  0.5132880000000  0.5018720000000  0.5384810000000 1.0
C      1  0.4863010000000  0.4928690000000  0.4571080000000 1.0
C      1  0.5228120000000  0.4718020000000  0.4729270000000 1.0
C      1  0.4573730000000  0.5420350000000  0.4702810000000 1.0
C      1  0.4675360000000  0.4693480000000  0.5309490000000 1.0
C      1  0.5345720000000  0.5244020000000  0.5389320000000 1.0
C      1  0.4878970000000  0.5051600000000  0.4887920000000 1.0
END
