TITL C-3289320-4661-268 -0.000146333163277865 125000 -508.511827341484 0 0 96 (C1) n - 1
REM
REM in /nfs/bkarasulu/CARBON/AIRSS/Generating-Clusters/AIREBO/with-SteepDescent/Higher-Symm/SD-CG/HFTN-CG
REM
REM
REM
REM
REM
REM ./C.cell (b20cbc046b6831c77cfcea5457e17084)
REM
REM compiler GCC version 9.2.1 20190827 (Red Hat 9.2.1-1)
REM options -cpp -mtune=generic -march=x86-64 -g -O0 -fpre-include=/usr/include/finclude/math-vector-fortran.h
REM seed -571042386 1931447299 -721070519 1218515413 -1803370372 -155192361 -712321568 -1309053937 18901697 297555691 2001150985 -398032713 2032510234 -1236449420 -759803217 1881709463 155611085 253811355 -1198977295 -1620404002 1503929335 -714231687 2025935775 1659828628 -251667630 -108154994 -2133660611 -1326083227 554921497 1497642578 -194714856 -1786894741 -1269786769
REM
CELL 1.54180   50.00000   50.00000   50.00000   90.00000   90.00000   90.00000
LATT -1
SFAC C  
C      1  0.5105220000000  0.5108030000000  0.6286320000000 1.0
C      1  0.3690120000000  0.4902000000000  0.5332930000000 1.0
C      1  0.4021070000000  0.5078310000000  0.4385870000000 1.0
C      1  0.5263640000000  0.5300010000000  0.3577210000000 1.0
C      1  0.5867100000000  0.5000930000000  0.4306750000000 1.0
C      1  0.6064900000000  0.5443560000000  0.5040150000000 1.0
C      1  0.5775190000000  0.4812960000000  0.5676650000000 1.0
C      1  0.5211590000000  0.4384210000000  0.5689850000000 1.0
C      1  0.4541530000000  0.4412260000000  0.5814150000000 1.0
C      1  0.4292250000000  0.4360020000000  0.5280710000000 1.0
C      1  0.4561450000000  0.4230040000000  0.4602690000000 1.0
C      1  0.5110530000000  0.4363780000000  0.4325340000000 1.0
C      1  0.5521900000000  0.4558780000000  0.4428070000000 1.0
C      1  0.5589670000000  0.4278430000000  0.5092990000000 1.0
C      1  0.4385950000000  0.5324770000000  0.5559860000000 1.0
C      1  0.4280540000000  0.5190750000000  0.4888100000000 1.0
C      1  0.4527130000000  0.5286150000000  0.4413820000000 1.0
C      1  0.5320620000000  0.5185780000000  0.4397210000000 1.0
C      1  0.5629320000000  0.5172340000000  0.4805480000000 1.0
C      1  0.5645930000000  0.5231220000000  0.5338720000000 1.0
C      1  0.4958840000000  0.5264380000000  0.5762030000000 1.0
C      1  0.5377160000000  0.5687650000000  0.5597520000000 1.0
C      1  0.4560040000000  0.5576010000000  0.5521210000000 1.0
C      1  0.4240200000000  0.5669600000000  0.5146760000000 1.0
C      1  0.4402470000000  0.5718710000000  0.4663890000000 1.0
C      1  0.4912770000000  0.5726950000000  0.4338230000000 1.0
C      1  0.5505100000000  0.5690620000000  0.4604660000000 1.0
C      1  0.5655950000000  0.5718640000000  0.5045780000000 1.0
C      1  0.4184960000000  0.5108720000000  0.5204710000000 1.0
C      1  0.4241830000000  0.5221740000000  0.4587220000000 1.0
C      1  0.5303560000000  0.5241480000000  0.4097770000000 1.0
C      1  0.5602890000000  0.5103250000000  0.4495090000000 1.0
C      1  0.5800990000000  0.5229110000000  0.5069830000000 1.0
C      1  0.5651160000000  0.4949240000000  0.5496760000000 1.0
C      1  0.5010460000000  0.5265040000000  0.6016590000000 1.0
C      1  0.4376430000000  0.4274360000000  0.4797430000000 1.0
C      1  0.4851300000000  0.4443900000000  0.4218350000000 1.0
C      1  0.5366420000000  0.4430250000000  0.4231090000000 1.0
C      1  0.5624660000000  0.4292620000000  0.4844300000000 1.0
C      1  0.5284730000000  0.4260220000000  0.5484240000000 1.0
C      1  0.4785170000000  0.4564570000000  0.5908430000000 1.0
C      1  0.4418730000000  0.4390070000000  0.5522100000000 1.0
C      1  0.4953630000000  0.5257810000000  0.4610100000000 1.0
C      1  0.5226470000000  0.5215630000000  0.4784340000000 1.0
C      1  0.5343550000000  0.5202200000000  0.5082930000000 1.0
C      1  0.5144400000000  0.5286900000000  0.5302760000000 1.0
C      1  0.4741500000000  0.5193620000000  0.5436150000000 1.0
C      1  0.4653690000000  0.5222430000000  0.5108850000000 1.0
C      1  0.4687840000000  0.5218970000000  0.4770570000000 1.0
C      1  0.5506290000000  0.5458460000000  0.4929400000000 1.0
C      1  0.5421510000000  0.5439680000000  0.5393450000000 1.0
C      1  0.4863200000000  0.5493920000000  0.5541780000000 1.0
C      1  0.4376150000000  0.5381050000000  0.5224690000000 1.0
C      1  0.4472700000000  0.5462320000000  0.4845430000000 1.0
C      1  0.4761680000000  0.5468650000000  0.4467370000000 1.0
C      1  0.5297070000000  0.5455740000000  0.4571830000000 1.0
C      1  0.5000920000000  0.4775860000000  0.5423780000000 1.0
C      1  0.4678180000000  0.4787200000000  0.5316590000000 1.0
C      1  0.4608240000000  0.4661020000000  0.5008710000000 1.0
C      1  0.4684510000000  0.4720770000000  0.4679160000000 1.0
C      1  0.5016450000000  0.4777610000000  0.4724080000000 1.0
C      1  0.5285580000000  0.4671330000000  0.4878090000000 1.0
C      1  0.5258590000000  0.4698100000000  0.5215960000000 1.0
C      1  0.5368520000000  0.5715480000000  0.5200290000000 1.0
C      1  0.5100180000000  0.5677120000000  0.5400620000000 1.0
C      1  0.4483580000000  0.5754170000000  0.5318510000000 1.0
C      1  0.4609500000000  0.5723480000000  0.5004260000000 1.0
C      1  0.4730340000000  0.5725400000000  0.4690210000000 1.0
C      1  0.5061220000000  0.5680040000000  0.4626050000000 1.0
C      1  0.5299820000000  0.5722380000000  0.4867330000000 1.0
C      1  0.5315220000000  0.4371860000000  0.5199230000000 1.0
C      1  0.5006050000000  0.4588820000000  0.5692800000000 1.0
C      1  0.4677060000000  0.4566110000000  0.5525770000000 1.0
C      1  0.4399270000000  0.4425730000000  0.5029940000000 1.0
C      1  0.4787450000000  0.4439220000000  0.4547080000000 1.0
C      1  0.5095950000000  0.4344300000000  0.4658020000000 1.0
C      1  0.5416870000000  0.4453560000000  0.4692860000000 1.0
C      1  0.5090780000000  0.4975350000000  0.4500060000000 1.0
C      1  0.5394600000000  0.4938510000000  0.4791180000000 1.0
C      1  0.5460670000000  0.4940780000000  0.5228450000000 1.0
C      1  0.5037030000000  0.5073730000000  0.5505630000000 1.0
C      1  0.4454310000000  0.5030190000000  0.5396840000000 1.0
C      1  0.4480470000000  0.4955730000000  0.4988390000000 1.0
C      1  0.4561140000000  0.4982100000000  0.4589260000000 1.0
C      1  0.5294550000000  0.5264470000000  0.3835030000000 1.0
C      1  0.5666760000000  0.4781750000000  0.4407780000000 1.0
C      1  0.6131710000000  0.5150170000000  0.5070990000000 1.0
C      1  0.5882010000000  0.4680190000000  0.5875750000000 1.0
C      1  0.4977700000000  0.5400840000000  0.6311290000000 1.0
C      1  0.3915080000000  0.5009600000000  0.5278670000000 1.0
C      1  0.4337120000000  0.5013890000000  0.4335440000000 1.0
C      1  0.4923070000000  0.5410990000000  0.5155280000000 1.0
C      1  0.4962940000000  0.4025500000000  0.5058570000000 1.0
C      1  0.4915350000000  0.4543790000000  0.4949310000000 1.0
C      1  0.4853250000000  0.5683550000000  0.5189960000000 1.0
C      1  0.5094540000000  0.4292870000000  0.4994220000000 1.0
END
