TITL C-3289335-9438-38 0.0016316874886616 125000 -227.739463038034 0 0 43 (C1) n - 1
REM
REM in /nfs/bkarasulu/CARBON/AIRSS/Generating-Clusters/AIREBO/with-SteepDescent/Higher-Symm/SD-CG/HFTN-CG
REM
REM
REM
REM
REM
REM ./C.cell (b20cbc046b6831c77cfcea5457e17084)
REM
REM compiler GCC version 9.2.1 20190827 (Red Hat 9.2.1-1)
REM options -cpp -mtune=generic -march=x86-64 -g -O0 -fpre-include=/usr/include/finclude/math-vector-fortran.h
REM seed 599199285 838919404 -1585019693 1791934665 672267293 -357365585 -1749748776 -1595476157 1079144464 -167669459 177568810 -730306170 -1156840466 -1902783125 -1569457587 -60099464 -1851142616 -1154000202 128245764 -1274463900 -1529075936 560664307 -629395940 -1288553155 751359429 -1050047109 -843620680 -1447426204 -1282769715 -464502176 -1859036147 -803902478 627775242
REM
CELL 1.54180   50.00000   50.00000   50.00000   90.00000   90.00000   90.00000
LATT -1
SFAC C  
C      1  0.4595950000000  0.4546430000000  0.4910010000000 1.0
C      1  0.5010320000000  0.4626470000000  0.4545230000000 1.0
C      1  0.5509380000000  0.4644030000000  0.4833680000000 1.0
C      1  0.5172700000000  0.4546050000000  0.5368110000000 1.0
C      1  0.4796350000000  0.4683460000000  0.5358150000000 1.0
C      1  0.5033840000000  0.5586930000000  0.5319410000000 1.0
C      1  0.4747990000000  0.5559640000000  0.5128000000000 1.0
C      1  0.4862590000000  0.5494000000000  0.4807070000000 1.0
C      1  0.5195340000000  0.5574400000000  0.4750840000000 1.0
C      1  0.5264050000000  0.5490430000000  0.5079700000000 1.0
C      1  0.4678160000000  0.4918850000000  0.5487890000000 1.0
C      1  0.4460130000000  0.4793860000000  0.4855130000000 1.0
C      1  0.5011680000000  0.4874250000000  0.4418430000000 1.0
C      1  0.5608550000000  0.4906820000000  0.4807600000000 1.0
C      1  0.5299000000000  0.4822290000000  0.5459170000000 1.0
C      1  0.5204640000000  0.5245720000000  0.4736090000000 1.0
C      1  0.5335950000000  0.5195970000000  0.5108040000000 1.0
C      1  0.5019570000000  0.5260360000000  0.5339720000000 1.0
C      1  0.4692810000000  0.5246610000000  0.5111820000000 1.0
C      1  0.4808930000000  0.5200260000000  0.4734910000000 1.0
C      1  0.4885480000000  0.4358880000000  0.5392210000000 1.0
C      1  0.4631390000000  0.4452980000000  0.5182750000000 1.0
C      1  0.4821050000000  0.4489510000000  0.4749950000000 1.0
C      1  0.5216650000000  0.4532960000000  0.4769770000000 1.0
C      1  0.5379590000000  0.4521030000000  0.5099300000000 1.0
C      1  0.5459280000000  0.4926030000000  0.5271030000000 1.0
C      1  0.4861330000000  0.5095310000000  0.5591410000000 1.0
C      1  0.4449490000000  0.5019250000000  0.5035150000000 1.0
C      1  0.4779410000000  0.5023790000000  0.4446220000000 1.0
C      1  0.5478180000000  0.5073850000000  0.4629480000000 1.0
C      1  0.4566820000000  0.4973400000000  0.4656370000000 1.0
C      1  0.5226830000000  0.5038370000000  0.4464230000000 1.0
C      1  0.5633950000000  0.5041180000000  0.5052950000000 1.0
C      1  0.5151500000000  0.5027810000000  0.5559310000000 1.0
C      1  0.4507550000000  0.5061050000000  0.5328280000000 1.0
C      1  0.4993090000000  0.4593590000000  0.5095580000000 1.0
C      1  0.5022810000000  0.5718590000000  0.5006010000000 1.0
C      1  0.5006280000000  0.6279650000000  0.4978550000000 1.0
C      1  0.5031000000000  0.4304150000000  0.4921130000000 1.0
C      1  0.5002110000000  0.4878750000000  0.5048270000000 1.0
C      1  0.5010700000000  0.5182230000000  0.5008500000000 1.0
C      1  0.5013810000000  0.6024880000000  0.4991030000000 1.0
C      1  0.5055990000000  0.4035450000000  0.4936290000000 1.0
END
