TITL C-3289327-5623-687 0.000464563551653645 125000 -419.477530656969 0 0 75 (C1) n - 1
REM
REM in /nfs/bkarasulu/CARBON/AIRSS/Generating-Clusters/AIREBO/with-SteepDescent/Higher-Symm/SD-CG/HFTN-CG
REM
REM
REM
REM
REM
REM ./C.cell (b20cbc046b6831c77cfcea5457e17084)
REM
REM compiler GCC version 9.2.1 20190827 (Red Hat 9.2.1-1)
REM options -cpp -mtune=generic -march=x86-64 -g -O0 -fpre-include=/usr/include/finclude/math-vector-fortran.h
REM seed -1967108857 -2101340780 -1117995580 -1878312568 -480491857 1862602498 489898778 379886585 -495600999 -335544812 -1435493499 1809694997 785266001 231274535 2002321147 389568385 -644076067 -620032215 -2068023195 -1316689315 -2032567743 1778717374 1934686922 1698924890 943246652 -986558316 -332756359 565430681 -853042591 -883034789 1409284589 -716955625 -95867925
REM
CELL 1.54180   50.00000   50.00000   50.00000   90.00000   90.00000   90.00000
LATT -1
SFAC C  
C      1  0.5212170000000  0.4783700000000  0.5230100000000 1.0
C      1  0.4741000000000  0.4770080000000  0.5076960000000 1.0
C      1  0.5083560000000  0.4793050000000  0.4736880000000 1.0
C      1  0.5227840000000  0.5236140000000  0.5178660000000 1.0
C      1  0.4813750000000  0.5181500000000  0.5105850000000 1.0
C      1  0.4974380000000  0.5254140000000  0.4652950000000 1.0
C      1  0.5325240000000  0.4711700000000  0.4929020000000 1.0
C      1  0.4782240000000  0.4751430000000  0.4810940000000 1.0
C      1  0.4937510000000  0.4741580000000  0.5340870000000 1.0
C      1  0.5164940000000  0.5361270000000  0.4898870000000 1.0
C      1  0.4667290000000  0.5213490000000  0.4800500000000 1.0
C      1  0.4968770000000  0.5228800000000  0.5398760000000 1.0
C      1  0.4317250000000  0.4459180000000  0.4826670000000 1.0
C      1  0.5407630000000  0.4428000000000  0.4660150000000 1.0
C      1  0.5142890000000  0.4383810000000  0.5569830000000 1.0
C      1  0.4464810000000  0.5591640000000  0.4870030000000 1.0
C      1  0.5375050000000  0.5560210000000  0.4603260000000 1.0
C      1  0.5214420000000  0.5543240000000  0.5615200000000 1.0
C      1  0.4450670000000  0.4496440000000  0.5066110000000 1.0
C      1  0.5367380000000  0.4468730000000  0.5417220000000 1.0
C      1  0.5249490000000  0.4494660000000  0.4441260000000 1.0
C      1  0.4557860000000  0.5486970000000  0.5118360000000 1.0
C      1  0.5448880000000  0.5449730000000  0.5424470000000 1.0
C      1  0.5210680000000  0.5474670000000  0.4389910000000 1.0
C      1  0.5084670000000  0.4567440000000  0.5779510000000 1.0
C      1  0.4320160000000  0.4703640000000  0.4677470000000 1.0
C      1  0.5660390000000  0.4558070000000  0.4776710000000 1.0
C      1  0.5182900000000  0.5356510000000  0.5819700000000 1.0
C      1  0.4237750000000  0.5435800000000  0.4781840000000 1.0
C      1  0.5564850000000  0.5363460000000  0.4687460000000 1.0
C      1  0.4944930000000  0.4682090000000  0.4228320000000 1.0
C      1  0.4353650000000  0.4685980000000  0.5456780000000 1.0
C      1  0.5740210000000  0.4713790000000  0.5273830000000 1.0
C      1  0.4880050000000  0.5170320000000  0.4270980000000 1.0
C      1  0.4415590000000  0.5329400000000  0.5456520000000 1.0
C      1  0.5721550000000  0.5367850000000  0.5238350000000 1.0
C      1  0.5095380000000  0.5083160000000  0.5679000000000 1.0
C      1  0.4346010000000  0.5170810000000  0.4789690000000 1.0
C      1  0.5479810000000  0.5103410000000  0.4586670000000 1.0
C      1  0.5001070000000  0.4801910000000  0.5669430000000 1.0
C      1  0.4271830000000  0.4913250000000  0.4863890000000 1.0
C      1  0.5524220000000  0.4841140000000  0.4685240000000 1.0
C      1  0.5182610000000  0.5137380000000  0.4422630000000 1.0
C      1  0.4486260000000  0.5158910000000  0.5174270000000 1.0
C      1  0.5344670000000  0.5116650000000  0.5474840000000 1.0
C      1  0.5165390000000  0.4808530000000  0.4426530000000 1.0
C      1  0.4424630000000  0.4824010000000  0.5154220000000 1.0
C      1  0.5456620000000  0.4796020000000  0.5447850000000 1.0
C      1  0.4740590000000  0.4339660000000  0.5149980000000 1.0
C      1  0.5021830000000  0.4334010000000  0.4405850000000 1.0
C      1  0.5443620000000  0.4369610000000  0.5165890000000 1.0
C      1  0.4716210000000  0.5600120000000  0.5309310000000 1.0
C      1  0.4959440000000  0.5601750000000  0.4418160000000 1.0
C      1  0.5426020000000  0.5595910000000  0.5114670000000 1.0
C      1  0.4833280000000  0.4285370000000  0.4652420000000 1.0
C      1  0.4907900000000  0.4296190000000  0.5440960000000 1.0
C      1  0.5233290000000  0.4384280000000  0.4933440000000 1.0
C      1  0.4654510000000  0.5641890000000  0.4667440000000 1.0
C      1  0.4969610000000  0.5622970000000  0.5512440000000 1.0
C      1  0.5198270000000  0.5669110000000  0.4872690000000 1.0
C      1  0.4652640000000  0.4835520000000  0.5482470000000 1.0
C      1  0.4673920000000  0.5120400000000  0.5524690000000 1.0
C      1  0.4650840000000  0.5075340000000  0.4500290000000 1.0
C      1  0.4592720000000  0.4762630000000  0.4552880000000 1.0
C      1  0.5579440000000  0.4881830000000  0.5077670000000 1.0
C      1  0.5539470000000  0.5142840000000  0.5131200000000 1.0
C      1  0.5684320000000  0.4496400000000  0.5065270000000 1.0
C      1  0.5663610000000  0.5468100000000  0.4938220000000 1.0
C      1  0.4687790000000  0.5406830000000  0.4421690000000 1.0
C      1  0.4733500000000  0.4513860000000  0.4418150000000 1.0
C      1  0.4697650000000  0.5449370000000  0.5607280000000 1.0
C      1  0.4636180000000  0.4498120000000  0.5434410000000 1.0
C      1  0.4941740000000  0.4277220000000  0.4913630000000 1.0
C      1  0.4947240000000  0.5764660000000  0.4683900000000 1.0
C      1  0.5022340000000  0.5057350000000  0.4891200000000 1.0
END
