TITL C-3289320-4661-155 -0.000244471695478913 125000 -837.811288306604 0 0 155 (C1) n - 1
REM
REM in /nfs/bkarasulu/CARBON/AIRSS/Generating-Clusters/AIREBO/with-SteepDescent/Higher-Symm/SD-CG/HFTN-CG
REM
REM
REM
REM
REM
REM ./C.cell (b20cbc046b6831c77cfcea5457e17084)
REM
REM compiler GCC version 9.2.1 20190827 (Red Hat 9.2.1-1)
REM options -cpp -mtune=generic -march=x86-64 -g -O0 -fpre-include=/usr/include/finclude/math-vector-fortran.h
REM seed -1070077846 -1179867543 519972671 467547952 -379999787 -77569384 742412633 -363538011 198337142 2064497487 83940152 -957775679 1425595396 -824265223 2285834 1140987697 -1399634468 988503717 -1178796337 1465503899 -63677409 -385222653 1494990025 -1645506220 -90648204 -530227978 -1012421395 -651930896 896142663 -1444294823 615488588 -1354738171 1784659732
REM
CELL 1.54180   50.00000   50.00000   50.00000   90.00000   90.00000   90.00000
LATT -1
SFAC C  
C      1  0.4761180000000  0.4731150000000  0.5229850000000 1.0
C      1  0.5249860000000  0.5377030000000  0.5038450000000 1.0
C      1  0.5508780000000  0.4787310000000  0.4223540000000 1.0
C      1  0.4634800000000  0.5183720000000  0.4294490000000 1.0
C      1  0.4925060000000  0.5212900000000  0.5934650000000 1.0
C      1  0.5094450000000  0.4700090000000  0.5918500000000 1.0
C      1  0.5420070000000  0.5806860000000  0.4897420000000 1.0
C      1  0.4620720000000  0.4265610000000  0.4923860000000 1.0
C      1  0.4554380000000  0.6029890000000  0.4803780000000 1.0
C      1  0.5441300000000  0.4014150000000  0.4782530000000 1.0
C      1  0.4819300000000  0.3991490000000  0.4956900000000 1.0
C      1  0.5182320000000  0.6029630000000  0.4822740000000 1.0
C      1  0.4980310000000  0.5183250000000  0.4964680000000 1.0
C      1  0.5184200000000  0.4569190000000  0.4871070000000 1.0
C      1  0.4722660000000  0.4101360000000  0.4644110000000 1.0
C      1  0.5148740000000  0.6086220000000  0.4516540000000 1.0
C      1  0.4262400000000  0.5589790000000  0.5594670000000 1.0
C      1  0.5811130000000  0.4413870000000  0.5516780000000 1.0
C      1  0.5856120000000  0.5651790000000  0.4712590000000 1.0
C      1  0.4144990000000  0.4436640000000  0.4633090000000 1.0
C      1  0.4133350000000  0.4756770000000  0.5166120000000 1.0
C      1  0.5681370000000  0.5315600000000  0.5272620000000 1.0
C      1  0.5159770000000  0.5304530000000  0.4212660000000 1.0
C      1  0.5057940000000  0.4723250000000  0.4292580000000 1.0
C      1  0.5220080000000  0.5387920000000  0.5535150000000 1.0
C      1  0.4850400000000  0.4445530000000  0.5584810000000 1.0
C      1  0.5681460000000  0.4947460000000  0.3978160000000 1.0
C      1  0.4442140000000  0.4767690000000  0.4063070000000 1.0
C      1  0.4557260000000  0.4820870000000  0.5820950000000 1.0
C      1  0.5395390000000  0.5100270000000  0.5787180000000 1.0
C      1  0.4410730000000  0.4940980000000  0.4899440000000 1.0
C      1  0.5462720000000  0.5320010000000  0.4800680000000 1.0
C      1  0.5872460000000  0.5023950000000  0.4833490000000 1.0
C      1  0.4147190000000  0.5030570000000  0.4754240000000 1.0
C      1  0.5727100000000  0.4462740000000  0.4698920000000 1.0
C      1  0.4264820000000  0.5560940000000  0.4705670000000 1.0
C      1  0.5537900000000  0.4652380000000  0.5292670000000 1.0
C      1  0.4469230000000  0.5433280000000  0.5293350000000 1.0
C      1  0.6039150000000  0.4817820000000  0.5745330000000 1.0
C      1  0.3994160000000  0.5192280000000  0.5745300000000 1.0
C      1  0.5428540000000  0.4749550000000  0.4717870000000 1.0
C      1  0.4720120000000  0.5305750000000  0.4783070000000 1.0
C      1  0.4733330000000  0.5895550000000  0.5329830000000 1.0
C      1  0.5540640000000  0.3879980000000  0.5257040000000 1.0
C      1  0.4929380000000  0.4259960000000  0.4491970000000 1.0
C      1  0.4986020000000  0.5906430000000  0.4389270000000 1.0
C      1  0.4901670000000  0.4855360000000  0.4059440000000 1.0
C      1  0.5200720000000  0.5141700000000  0.3961440000000 1.0
C      1  0.5157210000000  0.5064710000000  0.5546980000000 1.0
C      1  0.4793650000000  0.4762080000000  0.5622990000000 1.0
C      1  0.5410150000000  0.4811650000000  0.5858590000000 1.0
C      1  0.4611680000000  0.5133270000000  0.5883010000000 1.0
C      1  0.5136600000000  0.5976460000000  0.5146130000000 1.0
C      1  0.4753010000000  0.4077300000000  0.5250800000000 1.0
C      1  0.4539570000000  0.5116510000000  0.5234220000000 1.0
C      1  0.5374630000000  0.4938990000000  0.5209630000000 1.0
C      1  0.5262980000000  0.4279730000000  0.5003890000000 1.0
C      1  0.4659450000000  0.5701330000000  0.4992630000000 1.0
C      1  0.4378130000000  0.5402460000000  0.4250020000000 1.0
C      1  0.5794640000000  0.4829130000000  0.4398560000000 1.0
C      1  0.4862260000000  0.5428790000000  0.4220440000000 1.0
C      1  0.5176750000000  0.4427920000000  0.4226590000000 1.0
C      1  0.4574160000000  0.5297970000000  0.5587130000000 1.0
C      1  0.5525400000000  0.4663940000000  0.5632670000000 1.0
C      1  0.4871740000000  0.4580830000000  0.4489580000000 1.0
C      1  0.5108340000000  0.5373130000000  0.4541760000000 1.0
C      1  0.5883720000000  0.4852850000000  0.5302310000000 1.0
C      1  0.4151490000000  0.5190660000000  0.5294700000000 1.0
C      1  0.5702770000000  0.5508710000000  0.5618750000000 1.0
C      1  0.4200280000000  0.4482810000000  0.5555870000000 1.0
C      1  0.4835880000000  0.5280970000000  0.5261810000000 1.0
C      1  0.5237140000000  0.4577270000000  0.5370910000000 1.0
C      1  0.5648740000000  0.4990720000000  0.4621910000000 1.0
C      1  0.4349850000000  0.4936430000000  0.4508150000000 1.0
C      1  0.5668250000000  0.5638130000000  0.4159540000000 1.0
C      1  0.4317630000000  0.4310660000000  0.4194000000000 1.0
C      1  0.5650600000000  0.5026510000000  0.5377840000000 1.0
C      1  0.4323150000000  0.4924170000000  0.5375190000000 1.0
C      1  0.4737820000000  0.3846370000000  0.5502440000000 1.0
C      1  0.4951950000000  0.6062520000000  0.5326190000000 1.0
C      1  0.5406460000000  0.5446820000000  0.5293330000000 1.0
C      1  0.4454590000000  0.4679230000000  0.5085460000000 1.0
C      1  0.4812880000000  0.4395660000000  0.5250550000000 1.0
C      1  0.5098190000000  0.5667750000000  0.5084930000000 1.0
C      1  0.4157770000000  0.4494450000000  0.4355290000000 1.0
C      1  0.5737920000000  0.5359600000000  0.4239370000000 1.0
C      1  0.5380050000000  0.5018310000000  0.4920500000000 1.0
C      1  0.4727430000000  0.4958530000000  0.4998900000000 1.0
C      1  0.4382490000000  0.4295720000000  0.5169990000000 1.0
C      1  0.5499900000000  0.5823380000000  0.5201830000000 1.0
C      1  0.5510090000000  0.4447260000000  0.4222580000000 1.0
C      1  0.4586370000000  0.5512480000000  0.4075880000000 1.0
C      1  0.4219060000000  0.4765270000000  0.4268580000000 1.0
C      1  0.5831870000000  0.5164960000000  0.4063060000000 1.0
C      1  0.5609290000000  0.5596360000000  0.4773700000000 1.0
C      1  0.4337480000000  0.4445390000000  0.4868020000000 1.0
C      1  0.5114160000000  0.4018040000000  0.4875400000000 1.0
C      1  0.4874030000000  0.5923910000000  0.4851000000000 1.0
C      1  0.5532690000000  0.4115650000000  0.5097220000000 1.0
C      1  0.4471680000000  0.5950870000000  0.5124920000000 1.0
C      1  0.4590780000000  0.4479620000000  0.4164290000000 1.0
C      1  0.5384540000000  0.5528970000000  0.4301950000000 1.0
C      1  0.5217100000000  0.4208810000000  0.4613440000000 1.0
C      1  0.4718030000000  0.5853530000000  0.4559420000000 1.0
C      1  0.4505850000000  0.5561160000000  0.5787420000000 1.0
C      1  0.5582640000000  0.4379520000000  0.5746360000000 1.0
C      1  0.6082380000000  0.5194770000000  0.4790120000000 1.0
C      1  0.3960470000000  0.4873270000000  0.4952600000000 1.0
C      1  0.4834650000000  0.5583570000000  0.5239870000000 1.0
C      1  0.5123610000000  0.4404480000000  0.5230060000000 1.0
C      1  0.5130560000000  0.4728190000000  0.5592280000000 1.0
C      1  0.4818860000000  0.5091890000000  0.5544280000000 1.0
C      1  0.4794520000000  0.5511400000000  0.5842550000000 1.0
C      1  0.5291890000000  0.4429810000000  0.5857580000000 1.0
C      1  0.3700870000000  0.4868040000000  0.4939320000000 1.0
C      1  0.6294000000000  0.5339170000000  0.4735030000000 1.0
C      1  0.4847290000000  0.4890460000000  0.5995840000000 1.0
C      1  0.5231410000000  0.5289820000000  0.5965930000000 1.0
C      1  0.4861650000000  0.4494300000000  0.4928490000000 1.0
C      1  0.5161930000000  0.5637410000000  0.4752310000000 1.0
C      1  0.5662570000000  0.5195050000000  0.5670920000000 1.0
C      1  0.4302350000000  0.4770180000000  0.5667140000000 1.0
C      1  0.5368780000000  0.4937700000000  0.3933900000000 1.0
C      1  0.4649640000000  0.4959220000000  0.4088890000000 1.0
C      1  0.4803460000000  0.4771040000000  0.4739700000000 1.0
C      1  0.5150900000000  0.5099080000000  0.4682650000000 1.0
C      1  0.5860500000000  0.4828790000000  0.5027350000000 1.0
C      1  0.4183930000000  0.5244180000000  0.5016260000000 1.0
C      1  0.5356470000000  0.4479230000000  0.4524230000000 1.0
C      1  0.4852660000000  0.5565740000000  0.4648260000000 1.0
C      1  0.4454400000000  0.5432960000000  0.4953480000000 1.0
C      1  0.5631840000000  0.4636210000000  0.4965960000000 1.0
C      1  0.4214160000000  0.5496150000000  0.4448310000000 1.0
C      1  0.5740750000000  0.4540330000000  0.4438590000000 1.0
C      1  0.4656760000000  0.5048000000000  0.4602970000000 1.0
C      1  0.5269380000000  0.4888410000000  0.4443490000000 1.0
C      1  0.5330300000000  0.5847640000000  0.5695320000000 1.0
C      1  0.4545390000000  0.4091240000000  0.5517360000000 1.0
C      1  0.4103380000000  0.5349160000000  0.5534110000000 1.0
C      1  0.5954130000000  0.4671890000000  0.5513450000000 1.0
C      1  0.4856820000000  0.4335640000000  0.4175500000000 1.0
C      1  0.5083690000000  0.5684970000000  0.4251460000000 1.0
C      1  0.4573400000000  0.4692090000000  0.4429290000000 1.0
C      1  0.5528620000000  0.5279970000000  0.4486800000000 1.0
C      1  0.4062910000000  0.4932040000000  0.5800920000000 1.0
C      1  0.5914600000000  0.5056260000000  0.5812990000000 1.0
C      1  0.4352200000000  0.4274160000000  0.5442130000000 1.0
C      1  0.5471030000000  0.5701600000000  0.5509100000000 1.0
C      1  0.5900160000000  0.5478080000000  0.5387930000000 1.0
C      1  0.4001730000000  0.4562250000000  0.5372230000000 1.0
C      1  0.5677530000000  0.4344320000000  0.5256470000000 1.0
C      1  0.4355370000000  0.5735480000000  0.5336560000000 1.0
C      1  0.5106660000000  0.5528150000000  0.5776770000000 1.0
C      1  0.5013550000000  0.4336010000000  0.5774180000000 1.0
C      1  0.5041020000000  0.4922370000000  0.5260620000000 1.0
END
