TITL C-3289330-4660-171 -0.00348033311049519 125000 -905.980503430083 0 0 165 (C1) n - 1
REM
REM in /nfs/bkarasulu/CARBON/AIRSS/Generating-Clusters/AIREBO/with-SteepDescent/Higher-Symm/SD-CG/HFTN-CG
REM
REM
REM
REM
REM
REM ./C.cell (b20cbc046b6831c77cfcea5457e17084)
REM
REM compiler GCC version 9.2.1 20190827 (Red Hat 9.2.1-1)
REM options -cpp -mtune=generic -march=x86-64 -g -O0 -fpre-include=/usr/include/finclude/math-vector-fortran.h
REM seed -241757047 1164266131 1210011513 572573458 1078484773 707412074 95223585 -680313680 -1188235581 910107592 -779522236 -2011781026 -804322558 1647814706 -925057981 -419923203 -532661557 360269952 -988961050 1342255776 1357057500 -1880596411 -1726558515 -1304700470 -748284462 543066692 1937258352 -1700097156 1096350803 1794030493 1227506755 -1377450784 -766289583
REM
CELL 1.54180   50.00000   50.00000   50.00000   90.00000   90.00000   90.00000
LATT -1
SFAC C  
C      1  0.5007690000000  0.4688770000000  0.4925850000000 1.0
C      1  0.5294940000000  0.5174530000000  0.4810990000000 1.0
C      1  0.4810900000000  0.5156860000000  0.4976280000000 1.0
C      1  0.5050370000000  0.5335540000000  0.4921280000000 1.0
C      1  0.5282450000000  0.4841680000000  0.4879770000000 1.0
C      1  0.4807700000000  0.4890490000000  0.4812870000000 1.0
C      1  0.4468040000000  0.4414870000000  0.5529140000000 1.0
C      1  0.5769460000000  0.4898080000000  0.5481430000000 1.0
C      1  0.4715320000000  0.5759760000000  0.5457000000000 1.0
C      1  0.4539900000000  0.5484400000000  0.5458170000000 1.0
C      1  0.5548170000000  0.5153980000000  0.5439530000000 1.0
C      1  0.4779840000000  0.4363610000000  0.5452800000000 1.0
C      1  0.5012650000000  0.4705000000000  0.3792600000000 1.0
C      1  0.5267840000000  0.5091750000000  0.3727820000000 1.0
C      1  0.4777590000000  0.5113760000000  0.3862470000000 1.0
C      1  0.5034550000000  0.5249590000000  0.3763900000000 1.0
C      1  0.5260030000000  0.4839920000000  0.3862140000000 1.0
C      1  0.4784100000000  0.4838900000000  0.3901400000000 1.0
C      1  0.5055440000000  0.4671940000000  0.4589630000000 1.0
C      1  0.5262030000000  0.5189850000000  0.4475720000000 1.0
C      1  0.4744920000000  0.5193330000000  0.4462710000000 1.0
C      1  0.5002700000000  0.5347620000000  0.4595210000000 1.0
C      1  0.5285550000000  0.4882690000000  0.4540130000000 1.0
C      1  0.4813270000000  0.4886310000000  0.4484680000000 1.0
C      1  0.5091850000000  0.4033740000000  0.4885620000000 1.0
C      1  0.5999600000000  0.5631810000000  0.4868620000000 1.0
C      1  0.4085200000000  0.5413080000000  0.4970830000000 1.0
C      1  0.5208040000000  0.6015080000000  0.4754270000000 1.0
C      1  0.5801670000000  0.4434890000000  0.5008290000000 1.0
C      1  0.4091730000000  0.4556400000000  0.4932320000000 1.0
C      1  0.4545070000000  0.3949400000000  0.5023750000000 1.0
C      1  0.6030440000000  0.5209450000000  0.5155560000000 1.0
C      1  0.4350260000000  0.5878950000000  0.5072540000000 1.0
C      1  0.4482760000000  0.6081570000000  0.4942360000000 1.0
C      1  0.5989920000000  0.4924510000000  0.5152870000000 1.0
C      1  0.4372210000000  0.4156530000000  0.5082380000000 1.0
C      1  0.5794670000000  0.4435500000000  0.4667460000000 1.0
C      1  0.5210560000000  0.5977920000000  0.4446640000000 1.0
C      1  0.4077230000000  0.4795450000000  0.4684060000000 1.0
C      1  0.5916040000000  0.5576580000000  0.4591690000000 1.0
C      1  0.5162320000000  0.4040420000000  0.4569180000000 1.0
C      1  0.4137730000000  0.5376880000000  0.4634230000000 1.0
C      1  0.4773810000000  0.4009590000000  0.4824730000000 1.0
C      1  0.5943250000000  0.5296540000000  0.4874390000000 1.0
C      1  0.4234450000000  0.5674520000000  0.4877270000000 1.0
C      1  0.4653870000000  0.5986150000000  0.4732890000000 1.0
C      1  0.5916180000000  0.4726920000000  0.4911010000000 1.0
C      1  0.4308750000000  0.4365310000000  0.4860400000000 1.0
C      1  0.4423600000000  0.4725630000000  0.4333260000000 1.0
C      1  0.5551490000000  0.4660650000000  0.4271830000000 1.0
C      1  0.4924930000000  0.5630300000000  0.4228570000000 1.0
C      1  0.4341900000000  0.5253800000000  0.4159420000000 1.0
C      1  0.5546340000000  0.5323850000000  0.4232250000000 1.0
C      1  0.5008980000000  0.4410230000000  0.4113550000000 1.0
C      1  0.4851040000000  0.4340550000000  0.4813280000000 1.0
C      1  0.5634690000000  0.5176680000000  0.4795760000000 1.0
C      1  0.4496680000000  0.5487610000000  0.4769810000000 1.0
C      1  0.4740450000000  0.5699020000000  0.4847590000000 1.0
C      1  0.5658480000000  0.4838510000000  0.4747260000000 1.0
C      1  0.4577520000000  0.4540520000000  0.4782780000000 1.0
C      1  0.4859990000000  0.5508780000000  0.5911500000000 1.0
C      1  0.4617710000000  0.4608030000000  0.5973330000000 1.0
C      1  0.5502850000000  0.4807800000000  0.5901390000000 1.0
C      1  0.4898860000000  0.4416730000000  0.5972730000000 1.0
C      1  0.4554850000000  0.5357280000000  0.5950450000000 1.0
C      1  0.5539590000000  0.5123680000000  0.5980720000000 1.0
C      1  0.4223510000000  0.5159640000000  0.5242720000000 1.0
C      1  0.5254650000000  0.4241590000000  0.5200700000000 1.0
C      1  0.5609950000000  0.5673820000000  0.5197740000000 1.0
C      1  0.4174130000000  0.4837290000000  0.5311670000000 1.0
C      1  0.5309040000000  0.5798340000000  0.5229820000000 1.0
C      1  0.5454550000000  0.4449340000000  0.5322000000000 1.0
C      1  0.5284650000000  0.5930110000000  0.5494600000000 1.0
C      1  0.3896610000000  0.4656400000000  0.5535210000000 1.0
C      1  0.5806610000000  0.4158780000000  0.5535160000000 1.0
C      1  0.5341220000000  0.3895230000000  0.5592830000000 1.0
C      1  0.3911240000000  0.5261110000000  0.5573100000000 1.0
C      1  0.5763230000000  0.5627240000000  0.5450620000000 1.0
C      1  0.5002850000000  0.5792390000000  0.4727870000000 1.0
C      1  0.4523980000000  0.4841880000000  0.4931340000000 1.0
C      1  0.5434060000000  0.4582750000000  0.4757060000000 1.0
C      1  0.5191340000000  0.4352110000000  0.4817290000000 1.0
C      1  0.4442380000000  0.5155500000000  0.4823740000000 1.0
C      1  0.5684900000000  0.5434450000000  0.4587970000000 1.0
C      1  0.4696260000000  0.4863000000000  0.5761900000000 1.0
C      1  0.5208340000000  0.4798340000000  0.5768720000000 1.0
C      1  0.5001430000000  0.5265500000000  0.5764070000000 1.0
C      1  0.4736080000000  0.5136400000000  0.5869290000000 1.0
C      1  0.5251430000000  0.5111510000000  0.5855090000000 1.0
C      1  0.4957480000000  0.4700710000000  0.5864710000000 1.0
C      1  0.4275080000000  0.4900690000000  0.4496370000000 1.0
C      1  0.5508180000000  0.4400910000000  0.4487270000000 1.0
C      1  0.5130120000000  0.5634410000000  0.4464310000000 1.0
C      1  0.4403990000000  0.5215610000000  0.4491600000000 1.0
C      1  0.5437540000000  0.5554680000000  0.4446330000000 1.0
C      1  0.5161210000000  0.4368250000000  0.4479010000000 1.0
C      1  0.4066600000000  0.4516950000000  0.5272560000000 1.0
C      1  0.5794410000000  0.4429030000000  0.5336740000000 1.0
C      1  0.5052390000000  0.6090930000000  0.5537470000000 1.0
C      1  0.4039400000000  0.5437040000000  0.5311810000000 1.0
C      1  0.5974010000000  0.5382540000000  0.5385640000000 1.0
C      1  0.5150540000000  0.4054440000000  0.5420810000000 1.0
C      1  0.5009650000000  0.4682020000000  0.4191280000000 1.0
C      1  0.5245330000000  0.5198960000000  0.4161850000000 1.0
C      1  0.4679620000000  0.5267430000000  0.4137370000000 1.0
C      1  0.4991970000000  0.5381220000000  0.4060650000000 1.0
C      1  0.5282750000000  0.4856900000000  0.4201020000000 1.0
C      1  0.4706290000000  0.4777240000000  0.4198720000000 1.0
C      1  0.4156670000000  0.4842260000000  0.5651190000000 1.0
C      1  0.5541750000000  0.4347440000000  0.5634530000000 1.0
C      1  0.5335320000000  0.5740120000000  0.5723980000000 1.0
C      1  0.4089130000000  0.5128170000000  0.5741540000000 1.0
C      1  0.5592680000000  0.5592710000000  0.5698960000000 1.0
C      1  0.5332060000000  0.4156140000000  0.5762370000000 1.0
C      1  0.5394940000000  0.4736900000000  0.5184070000000 1.0
C      1  0.5105570000000  0.5517950000000  0.5188540000000 1.0
C      1  0.4473990000000  0.4760710000000  0.5224280000000 1.0
C      1  0.5429030000000  0.5423210000000  0.5169340000000 1.0
C      1  0.5013810000000  0.4477390000000  0.5150460000000 1.0
C      1  0.4525160000000  0.5258970000000  0.5129870000000 1.0
C      1  0.5266350000000  0.5101240000000  0.5517180000000 1.0
C      1  0.4721630000000  0.5202520000000  0.5401600000000 1.0
C      1  0.4923710000000  0.4667420000000  0.5401760000000 1.0
C      1  0.5205930000000  0.4801180000000  0.5433270000000 1.0
C      1  0.4687500000000  0.4878650000000  0.5442200000000 1.0
C      1  0.5024490000000  0.5306070000000  0.5433170000000 1.0
C      1  0.5406510000000  0.4052480000000  0.4963770000000 1.0
C      1  0.5723720000000  0.5762510000000  0.4917050000000 1.0
C      1  0.3939400000000  0.5151320000000  0.5055080000000 1.0
C      1  0.5431910000000  0.5933190000000  0.4953810000000 1.0
C      1  0.5721280000000  0.4143330000000  0.4927780000000 1.0
C      1  0.3946170000000  0.4829060000000  0.5059480000000 1.0
C      1  0.4741440000000  0.4304060000000  0.5119630000000 1.0
C      1  0.5588700000000  0.5171660000000  0.5112800000000 1.0
C      1  0.4509680000000  0.5601510000000  0.5156040000000 1.0
C      1  0.4832890000000  0.5682130000000  0.5159710000000 1.0
C      1  0.5662020000000  0.4873690000000  0.5182140000000 1.0
C      1  0.4469660000000  0.4445570000000  0.5217620000000 1.0
C      1  0.4270610000000  0.5435530000000  0.5561580000000 1.0
C      1  0.4951780000000  0.4165570000000  0.5577260000000 1.0
C      1  0.5795000000000  0.5261910000000  0.5602200000000 1.0
C      1  0.4147540000000  0.4437950000000  0.5593250000000 1.0
C      1  0.4861590000000  0.5903520000000  0.5642490000000 1.0
C      1  0.5814600000000  0.4642370000000  0.5575770000000 1.0
C      1  0.5755700000000  0.5149530000000  0.4318210000000 1.0
C      1  0.4478230000000  0.5542950000000  0.4436660000000 1.0
C      1  0.4853420000000  0.4281400000000  0.4363220000000 1.0
C      1  0.5745320000000  0.4841330000000  0.4427520000000 1.0
C      1  0.4595540000000  0.4486690000000  0.4449710000000 1.0
C      1  0.4673780000000  0.5731240000000  0.4313440000000 1.0
C      1  0.4668740000000  0.5984560000000  0.4449120000000 1.0
C      1  0.4392360000000  0.4253790000000  0.4577400000000 1.0
C      1  0.6032410000000  0.4838060000000  0.4619600000000 1.0
C      1  0.4665130000000  0.4107410000000  0.4547860000000 1.0
C      1  0.4193810000000  0.5684060000000  0.4544490000000 1.0
C      1  0.5963510000000  0.5140540000000  0.4572840000000 1.0
C      1  0.5686080000000  0.5339410000000  0.5869280000000 1.0
C      1  0.4296610000000  0.5323470000000  0.5832140000000 1.0
C      1  0.5048590000000  0.4226330000000  0.5840820000000 1.0
C      1  0.5653850000000  0.4591320000000  0.5814450000000 1.0
C      1  0.4380040000000  0.4618620000000  0.5768870000000 1.0
C      1  0.5012510000000  0.5736020000000  0.5832360000000 1.0
C      1  0.3849580000000  0.4982480000000  0.4775800000000 1.0
C      1  0.5523400000000  0.5792220000000  0.4656850000000 1.0
C      1  0.5545050000000  0.4109380000000  0.4658350000000 1.0
END
