TITL C-3289326-3776-29 0.00326521656065349 125000 -625.194157819379 0 0 117 (C1) n - 1
REM
REM in /nfs/bkarasulu/CARBON/AIRSS/Generating-Clusters/AIREBO/with-SteepDescent/Higher-Symm/SD-CG/HFTN-CG
REM
REM
REM
REM
REM
REM ./C.cell (b20cbc046b6831c77cfcea5457e17084)
REM
REM compiler GCC version 9.2.1 20190827 (Red Hat 9.2.1-1)
REM options -cpp -mtune=generic -march=x86-64 -g -O0 -fpre-include=/usr/include/finclude/math-vector-fortran.h
REM seed -2143952507 -644816674 -1149912685 -784446309 -455628081 148283164 717196023 1924099688 599441707 1684794380 521922499 1195327262 -1239314243 -828420849 150183762 -1956526639 1028874672 1665173996 -1116684675 20941246 1318115558 1102664986 2017935310 770405795 -2051328195 -1976298998 1995000384 -1892888486 530153279 1661840440 -551220324 799492762 -1893935126
REM
CELL 1.54180   50.00000   50.00000   50.00000   90.00000   90.00000   90.00000
LATT -1
SFAC C  
C      1  0.4508670000000  0.5152970000000  0.5413920000000 1.0
C      1  0.5407780000000  0.4641360000000  0.5154520000000 1.0
C      1  0.4609450000000  0.4833420000000  0.4504310000000 1.0
C      1  0.5373610000000  0.5430520000000  0.4841590000000 1.0
C      1  0.4709800000000  0.4815060000000  0.5831000000000 1.0
C      1  0.5377850000000  0.4231310000000  0.4390000000000 1.0
C      1  0.4727060000000  0.5335880000000  0.4296250000000 1.0
C      1  0.5556490000000  0.5880620000000  0.5427430000000 1.0
C      1  0.5170930000000  0.5056620000000  0.5365400000000 1.0
C      1  0.4726070000000  0.4646690000000  0.5001690000000 1.0
C      1  0.5251150000000  0.4996930000000  0.4621970000000 1.0
C      1  0.4670420000000  0.5306450000000  0.4946930000000 1.0
C      1  0.4823600000000  0.4871300000000  0.4765730000000 1.0
C      1  0.5116620000000  0.5214600000000  0.4806590000000 1.0
C      1  0.4784860000000  0.5196290000000  0.5237310000000 1.0
C      1  0.5127500000000  0.4804380000000  0.5184330000000 1.0
C      1  0.5621380000000  0.4961500000000  0.4905950000000 1.0
C      1  0.4395350000000  0.5198470000000  0.5035040000000 1.0
C      1  0.5581240000000  0.5073080000000  0.5186420000000 1.0
C      1  0.4410270000000  0.4891670000000  0.5007850000000 1.0
C      1  0.4384190000000  0.4440280000000  0.4990540000000 1.0
C      1  0.5669640000000  0.4965860000000  0.4466360000000 1.0
C      1  0.4276000000000  0.5578230000000  0.5034490000000 1.0
C      1  0.5569990000000  0.5065670000000  0.5584910000000 1.0
C      1  0.5906300000000  0.5143110000000  0.5114770000000 1.0
C      1  0.4128260000000  0.4897680000000  0.5168190000000 1.0
C      1  0.5924340000000  0.4846230000000  0.4926660000000 1.0
C      1  0.4098660000000  0.5110670000000  0.4893860000000 1.0
C      1  0.5500550000000  0.4952290000000  0.4247590000000 1.0
C      1  0.4501380000000  0.5727130000000  0.5000240000000 1.0
C      1  0.5344440000000  0.5083360000000  0.5728500000000 1.0
C      1  0.4595910000000  0.4268750000000  0.5026160000000 1.0
C      1  0.4617740000000  0.4665150000000  0.5323870000000 1.0
C      1  0.5268180000000  0.4678870000000  0.4660190000000 1.0
C      1  0.4744190000000  0.5185990000000  0.4664280000000 1.0
C      1  0.5292860000000  0.5327080000000  0.5315420000000 1.0
C      1  0.4149500000000  0.4670490000000  0.4695010000000 1.0
C      1  0.5852350000000  0.5279570000000  0.4668320000000 1.0
C      1  0.4035810000000  0.5344740000000  0.5484110000000 1.0
C      1  0.5885840000000  0.4712420000000  0.5379050000000 1.0
C      1  0.4907800000000  0.4370560000000  0.4936330000000 1.0
C      1  0.5171880000000  0.5011320000000  0.4312760000000 1.0
C      1  0.4815890000000  0.5601610000000  0.5032670000000 1.0
C      1  0.5028150000000  0.4981780000000  0.5655430000000 1.0
C      1  0.5208840000000  0.4529470000000  0.4910260000000 1.0
C      1  0.4836150000000  0.5043000000000  0.4359600000000 1.0
C      1  0.5139870000000  0.5505720000000  0.5076790000000 1.0
C      1  0.4721260000000  0.4922140000000  0.5520950000000 1.0
C      1  0.4235290000000  0.4582890000000  0.5189070000000 1.0
C      1  0.5830330000000  0.4777010000000  0.4606950000000 1.0
C      1  0.4158690000000  0.5435530000000  0.4820600000000 1.0
C      1  0.5851540000000  0.5182310000000  0.5451060000000 1.0
C      1  0.4770350000000  0.4206250000000  0.4672130000000 1.0
C      1  0.5306910000000  0.5293520000000  0.4179260000000 1.0
C      1  0.4762790000000  0.5819470000000  0.5288310000000 1.0
C      1  0.5168500000000  0.4704180000000  0.5793260000000 1.0
C      1  0.5076910000000  0.5584870000000  0.5560910000000 1.0
C      1  0.4943730000000  0.4459250000000  0.5572680000000 1.0
C      1  0.4921520000000  0.4426700000000  0.4376210000000 1.0
C      1  0.5115880000000  0.5563530000000  0.4402540000000 1.0
C      1  0.4623640000000  0.4404570000000  0.5549270000000 1.0
C      1  0.5449780000000  0.4540760000000  0.4448070000000 1.0
C      1  0.4563110000000  0.5449520000000  0.4548620000000 1.0
C      1  0.5377750000000  0.5462300000000  0.5610900000000 1.0
C      1  0.5211860000000  0.4677240000000  0.4263450000000 1.0
C      1  0.4756490000000  0.5653910000000  0.4701950000000 1.0
C      1  0.4887660000000  0.5220430000000  0.5844790000000 1.0
C      1  0.5052350000000  0.4184580000000  0.5165620000000 1.0
C      1  0.5025160000000  0.5506630000000  0.4663680000000 1.0
C      1  0.4865350000000  0.5320990000000  0.5520760000000 1.0
C      1  0.5067500000000  0.4484860000000  0.5284570000000 1.0
C      1  0.4989210000000  0.4709370000000  0.4516730000000 1.0
C      1  0.4745840000000  0.5944710000000  0.4618940000000 1.0
C      1  0.4816720000000  0.5279800000000  0.6081820000000 1.0
C      1  0.5150230000000  0.3949480000000  0.5188590000000 1.0
C      1  0.5164680000000  0.4578300000000  0.3984190000000 1.0
C      1  0.4746920000000  0.4537730000000  0.5822840000000 1.0
C      1  0.5110590000000  0.4227810000000  0.4308230000000 1.0
C      1  0.4918030000000  0.5511480000000  0.4208100000000 1.0
C      1  0.5354530000000  0.5776830000000  0.5586870000000 1.0
C      1  0.4640000000000  0.4362540000000  0.4439690000000 1.0
C      1  0.5402120000000  0.5515650000000  0.4369100000000 1.0
C      1  0.4794960000000  0.5711170000000  0.5541540000000 1.0
C      1  0.5266730000000  0.4482400000000  0.5591870000000 1.0
C      1  0.4044760000000  0.4867090000000  0.4363930000000 1.0
C      1  0.5937490000000  0.5646400000000  0.4902220000000 1.0
C      1  0.4218170000000  0.5212840000000  0.5719470000000 1.0
C      1  0.5886760000000  0.4345420000000  0.5115750000000 1.0
C      1  0.4342050000000  0.4530290000000  0.5470420000000 1.0
C      1  0.5759700000000  0.4520470000000  0.4534010000000 1.0
C      1  0.4269900000000  0.5483410000000  0.4568440000000 1.0
C      1  0.5623410000000  0.5388550000000  0.5306060000000 1.0
C      1  0.5531470000000  0.5171900000000  0.4686000000000 1.0
C      1  0.4298030000000  0.5400740000000  0.5290730000000 1.0
C      1  0.5593400000000  0.4816930000000  0.5379010000000 1.0
C      1  0.4472510000000  0.4681220000000  0.4775840000000 1.0
C      1  0.5478520000000  0.4430050000000  0.5374440000000 1.0
C      1  0.4465400000000  0.4581710000000  0.4388820000000 1.0
C      1  0.5536140000000  0.5575060000000  0.4613890000000 1.0
C      1  0.4634320000000  0.5500750000000  0.5693780000000 1.0
C      1  0.5957210000000  0.5363910000000  0.4910050000000 1.0
C      1  0.4185920000000  0.5045740000000  0.5423440000000 1.0
C      1  0.5961880000000  0.4618300000000  0.5129640000000 1.0
C      1  0.4030490000000  0.4933540000000  0.4656450000000 1.0
C      1  0.4788690000000  0.3932070000000  0.4665500000000 1.0
C      1  0.5297580000000  0.5328940000000  0.3907160000000 1.0
C      1  0.4742720000000  0.6085950000000  0.5228090000000 1.0
C      1  0.5243670000000  0.4704970000000  0.6045570000000 1.0
C      1  0.4127860000000  0.5583590000000  0.4356780000000 1.0
C      1  0.5691680000000  0.5690230000000  0.5281280000000 1.0
C      1  0.4130520000000  0.4491810000000  0.5679140000000 1.0
C      1  0.5685850000000  0.4223330000000  0.4454670000000 1.0
C      1  0.5747010000000  0.5735270000000  0.4715780000000 1.0
C      1  0.4426390000000  0.5369520000000  0.5818350000000 1.0
C      1  0.5682070000000  0.4268400000000  0.5292590000000 1.0
C      1  0.4213280000000  0.4656350000000  0.4286960000000 1.0
C      1  0.4969900000000  0.5038480000000  0.5023110000000 1.0
END
