TITL C-3289334-2237-430 0.00309730269285336 125000 -640.533733735579 0 0 125 (C1) n - 1
REM
REM in /nfs/bkarasulu/CARBON/AIRSS/Generating-Clusters/AIREBO/with-SteepDescent/Higher-Symm/SD-CG/HFTN-CG
REM
REM
REM
REM
REM
REM ./C.cell (b20cbc046b6831c77cfcea5457e17084)
REM
REM compiler GCC version 9.2.1 20190827 (Red Hat 9.2.1-1)
REM options -cpp -mtune=generic -march=x86-64 -g -O0 -fpre-include=/usr/include/finclude/math-vector-fortran.h
REM seed -836317139 -1406674250 -1824709790 -1764260746 610303293 1517965247 -610806109 213871334 435369749 1365978991 -238271478 -1171771760 -856599813 73329939 -1391315356 -641693020 1949030726 612080060 -387550290 336680993 -83030093 729986451 -233331108 -770155398 -1400811790 -753369085 34453844 262763529 -256472835 -1483357537 -371287779 -1481317446 2044011923
REM
CELL 1.54180   50.00000   50.00000   50.00000   90.00000   90.00000   90.00000
LATT -1
SFAC C  
C      1  0.5188460000000  0.4602650000000  0.5797170000000 1.0
C      1  0.4854160000000  0.4596090000000  0.5784530000000 1.0
C      1  0.4673230000000  0.4869630000000  0.5803780000000 1.0
C      1  0.4703070000000  0.5200290000000  0.5730230000000 1.0
C      1  0.5000010000000  0.5309020000000  0.5855340000000 1.0
C      1  0.5339990000000  0.5325470000000  0.5823410000000 1.0
C      1  0.5336850000000  0.4895380000000  0.5737520000000 1.0
C      1  0.5569660000000  0.4986220000000  0.4782980000000 1.0
C      1  0.5302060000000  0.4522340000000  0.4791420000000 1.0
C      1  0.4809860000000  0.4345680000000  0.4762080000000 1.0
C      1  0.4471430000000  0.4744500000000  0.4717360000000 1.0
C      1  0.4429360000000  0.5239960000000  0.4781970000000 1.0
C      1  0.4861050000000  0.5639210000000  0.4801580000000 1.0
C      1  0.5362420000000  0.5389770000000  0.4764370000000 1.0
C      1  0.4141470000000  0.5140040000000  0.4849820000000 1.0
C      1  0.4566100000000  0.5733910000000  0.4846940000000 1.0
C      1  0.5351390000000  0.5717860000000  0.4864660000000 1.0
C      1  0.5678460000000  0.5288650000000  0.4836490000000 1.0
C      1  0.5618090000000  0.4591110000000  0.4813650000000 1.0
C      1  0.5109400000000  0.4250190000000  0.4859260000000 1.0
C      1  0.4482480000000  0.4422610000000  0.4812150000000 1.0
C      1  0.5647910000000  0.4802170000000  0.4063830000000 1.0
C      1  0.5310760000000  0.4445940000000  0.4286210000000 1.0
C      1  0.4558490000000  0.4396470000000  0.4287320000000 1.0
C      1  0.4363560000000  0.4879580000000  0.4235990000000 1.0
C      1  0.4498200000000  0.5399820000000  0.4250950000000 1.0
C      1  0.5016460000000  0.5710500000000  0.4274660000000 1.0
C      1  0.5415480000000  0.5315550000000  0.4171220000000 1.0
C      1  0.5215150000000  0.5343850000000  0.5341690000000 1.0
C      1  0.5385120000000  0.5061110000000  0.5444280000000 1.0
C      1  0.5266610000000  0.4748290000000  0.5373230000000 1.0
C      1  0.4969020000000  0.4605400000000  0.5464530000000 1.0
C      1  0.4679770000000  0.4784520000000  0.5463260000000 1.0
C      1  0.4685330000000  0.5118900000000  0.5400240000000 1.0
C      1  0.4876610000000  0.5389700000000  0.5324400000000 1.0
C      1  0.4762690000000  0.5950290000000  0.5119170000000 1.0
C      1  0.5663390000000  0.5748580000000  0.5282590000000 1.0
C      1  0.5925020000000  0.4963380000000  0.5165370000000 1.0
C      1  0.5573360000000  0.4218220000000  0.5128760000000 1.0
C      1  0.4747180000000  0.4070350000000  0.5181650000000 1.0
C      1  0.4161260000000  0.4616170000000  0.5166980000000 1.0
C      1  0.4120200000000  0.5482310000000  0.5078250000000 1.0
C      1  0.4506470000000  0.5726620000000  0.5151560000000 1.0
C      1  0.5339050000000  0.5788910000000  0.5197140000000 1.0
C      1  0.5739890000000  0.5233600000000  0.5141960000000 1.0
C      1  0.5665660000000  0.4529250000000  0.5141440000000 1.0
C      1  0.5042510000000  0.4167910000000  0.5189120000000 1.0
C      1  0.4461240000000  0.4485950000000  0.5108280000000 1.0
C      1  0.4097270000000  0.5174580000000  0.5162800000000 1.0
C      1  0.4670220000000  0.5145290000000  0.4581480000000 1.0
C      1  0.4873820000000  0.5365330000000  0.4605350000000 1.0
C      1  0.5116850000000  0.5356980000000  0.4430870000000 1.0
C      1  0.5218190000000  0.5107440000000  0.4636080000000 1.0
C      1  0.5443900000000  0.4882740000000  0.4517060000000 1.0
C      1  0.5184180000000  0.4692990000000  0.4572310000000 1.0
C      1  0.4776390000000  0.4821010000000  0.4587580000000 1.0
C      1  0.5432920000000  0.5470970000000  0.4441800000000 1.0
C      1  0.5800480000000  0.4898260000000  0.4340690000000 1.0
C      1  0.5367600000000  0.4211130000000  0.4431490000000 1.0
C      1  0.4807440000000  0.4352900000000  0.4451870000000 1.0
C      1  0.4301620000000  0.4723900000000  0.4423970000000 1.0
C      1  0.4412120000000  0.5438380000000  0.4505560000000 1.0
C      1  0.4995140000000  0.5789310000000  0.4527410000000 1.0
C      1  0.5656750000000  0.5758670000000  0.4957590000000 1.0
C      1  0.5859600000000  0.4864170000000  0.4871240000000 1.0
C      1  0.5561750000000  0.4068670000000  0.4875590000000 1.0
C      1  0.4659140000000  0.4080340000000  0.4916230000000 1.0
C      1  0.4162620000000  0.4683600000000  0.4846010000000 1.0
C      1  0.4113080000000  0.5626710000000  0.4853220000000 1.0
C      1  0.4980740000000  0.6087180000000  0.4897060000000 1.0
C      1  0.5022110000000  0.5738900000000  0.5084120000000 1.0
C      1  0.5523610000000  0.5443020000000  0.5259530000000 1.0
C      1  0.5600610000000  0.4861500000000  0.5172890000000 1.0
C      1  0.5294810000000  0.4388210000000  0.5179920000000 1.0
C      1  0.4777150000000  0.4461130000000  0.5245890000000 1.0
C      1  0.4316480000000  0.4916460000000  0.5130400000000 1.0
C      1  0.4398170000000  0.5416650000000  0.5262820000000 1.0
C      1  0.4509470000000  0.5463310000000  0.5783830000000 1.0
C      1  0.5166870000000  0.5581620000000  0.5754780000000 1.0
C      1  0.5586520000000  0.5233090000000  0.5782210000000 1.0
C      1  0.5522450000000  0.4617650000000  0.5794610000000 1.0
C      1  0.5092400000000  0.4277550000000  0.5815330000000 1.0
C      1  0.4563390000000  0.4488330000000  0.5754890000000 1.0
C      1  0.4396980000000  0.5052980000000  0.5713880000000 1.0
C      1  0.5553510000000  0.4586130000000  0.5457430000000 1.0
C      1  0.5091100000000  0.4290270000000  0.5503120000000 1.0
C      1  0.4441710000000  0.4545680000000  0.5442550000000 1.0
C      1  0.4265430000000  0.5151050000000  0.5445510000000 1.0
C      1  0.4735110000000  0.5650080000000  0.5381470000000 1.0
C      1  0.5178250000000  0.5659150000000  0.5463740000000 1.0
C      1  0.5705380000000  0.5159670000000  0.5472100000000 1.0
C      1  0.4589930000000  0.5203120000000  0.5080020000000 1.0
C      1  0.4871790000000  0.5377470000000  0.5003680000000 1.0
C      1  0.5185460000000  0.5246850000000  0.5017150000000 1.0
C      1  0.5343400000000  0.4945650000000  0.5008470000000 1.0
C      1  0.5155650000000  0.4667090000000  0.5062050000000 1.0
C      1  0.4831830000000  0.4610980000000  0.4973750000000 1.0
C      1  0.4616620000000  0.4874500000000  0.4996080000000 1.0
C      1  0.5092960000000  0.5422710000000  0.4113440000000 1.0
C      1  0.5605710000000  0.5113030000000  0.4148730000000 1.0
C      1  0.5480090000000  0.4668850000000  0.4274660000000 1.0
C      1  0.5018310000000  0.4550330000000  0.4331880000000 1.0
C      1  0.4717140000000  0.4698160000000  0.4276070000000 1.0
C      1  0.4638350000000  0.5028950000000  0.4276110000000 1.0
C      1  0.4782340000000  0.5284170000000  0.4103650000000 1.0
C      1  0.4398220000000  0.4096790000000  0.4763630000000 1.0
C      1  0.4026390000000  0.4909850000000  0.4762290000000 1.0
C      1  0.4349380000000  0.5651550000000  0.4697120000000 1.0
C      1  0.5142080000000  0.5917510000000  0.4747010000000 1.0
C      1  0.5819260000000  0.5573580000000  0.4822460000000 1.0
C      1  0.5811090000000  0.4738430000000  0.4575300000000 1.0
C      1  0.5359950000000  0.4136790000000  0.4702340000000 1.0
C      1  0.4951670000000  0.5888570000000  0.5394730000000 1.0
C      1  0.5770630000000  0.5496560000000  0.5486970000000 1.0
C      1  0.5792410000000  0.4831580000000  0.5452120000000 1.0
C      1  0.5429030000000  0.4269720000000  0.5461630000000 1.0
C      1  0.4571760000000  0.4234940000000  0.5395130000000 1.0
C      1  0.4230230000000  0.4812030000000  0.5442280000000 1.0
C      1  0.4464540000000  0.5592480000000  0.5546230000000 1.0
C      1  0.4976590000000  0.4928040000000  0.5164640000000 1.0
C      1  0.4989880000000  0.5027590000000  0.5436810000000 1.0
C      1  0.4990420000000  0.4940030000000  0.4825070000000 1.0
C      1  0.5010090000000  0.5033850000000  0.4136380000000 1.0
C      1  0.5033520000000  0.4943830000000  0.4401990000000 1.0
C      1  0.5077140000000  0.5053810000000  0.5694540000000 1.0
END
