TITL C-3289326-3776-262 -0.000385309535621769 125000 -955.154724731274 0 0 174 (C1) n - 1
REM
REM in /nfs/bkarasulu/CARBON/AIRSS/Generating-Clusters/AIREBO/with-SteepDescent/Higher-Symm/SD-CG/HFTN-CG
REM
REM
REM
REM
REM
REM ./C.cell (b20cbc046b6831c77cfcea5457e17084)
REM
REM compiler GCC version 9.2.1 20190827 (Red Hat 9.2.1-1)
REM options -cpp -mtune=generic -march=x86-64 -g -O0 -fpre-include=/usr/include/finclude/math-vector-fortran.h
REM seed -89048457 -1629650939 1183135259 1431201907 66909132 675887355 -51850751 1891993198 -1482558288 -1978731263 -2046182400 -1778003883 2042053968 -68876834 -1095812014 -899790021 20916472 1739113762 -710061405 1526267889 1074028875 -1185329514 -1869994024 -809049800 -2138125213 -281224129 1964331437 -91227922 1141180241 -1964550882 2124522634 -1548272921 -1906421816
REM
CELL 1.54180   50.00000   50.00000   50.00000   90.00000   90.00000   90.00000
LATT -1
SFAC C  
C      1  0.4013770000000  0.4600270000000  0.4765390000000 1.0
C      1  0.5849920000000  0.4409670000000  0.4823830000000 1.0
C      1  0.5146200000000  0.5998250000000  0.4736710000000 1.0
C      1  0.5959660000000  0.4775960000000  0.5387750000000 1.0
C      1  0.4264030000000  0.4286690000000  0.5246930000000 1.0
C      1  0.4801020000000  0.6023810000000  0.5264170000000 1.0
C      1  0.5957960000000  0.5479340000000  0.5247270000000 1.0
C      1  0.4235210000000  0.5726390000000  0.5250210000000 1.0
C      1  0.4785790000000  0.3974830000000  0.5217860000000 1.0
C      1  0.3999570000000  0.5384610000000  0.4800160000000 1.0
C      1  0.5848730000000  0.5629440000000  0.4716490000000 1.0
C      1  0.5140920000000  0.3980070000000  0.4728450000000 1.0
C      1  0.5016490000000  0.5647170000000  0.4029500000000 1.0
C      1  0.4482200000000  0.4715440000000  0.4116200000000 1.0
C      1  0.5489460000000  0.4668080000000  0.4058040000000 1.0
C      1  0.4987370000000  0.5539170000000  0.5870030000000 1.0
C      1  0.5512290000000  0.4680910000000  0.5919230000000 1.0
C      1  0.4535150000000  0.4692060000000  0.5895560000000 1.0
C      1  0.5065430000000  0.4392860000000  0.6120260000000 1.0
C      1  0.5545450000000  0.5273300000000  0.5962430000000 1.0
C      1  0.4504770000000  0.5269280000000  0.5876400000000 1.0
C      1  0.4991060000000  0.4421120000000  0.4084170000000 1.0
C      1  0.4408280000000  0.5256340000000  0.4083550000000 1.0
C      1  0.5478300000000  0.5256810000000  0.4071380000000 1.0
C      1  0.5027480000000  0.4615500000000  0.4430830000000 1.0
C      1  0.5385730000000  0.5138320000000  0.4450950000000 1.0
C      1  0.4580460000000  0.5207810000000  0.4439710000000 1.0
C      1  0.5059590000000  0.4588030000000  0.5712090000000 1.0
C      1  0.4788940000000  0.5088100000000  0.5587100000000 1.0
C      1  0.5229350000000  0.5087160000000  0.5633330000000 1.0
C      1  0.5038100000000  0.5304950000000  0.5513760000000 1.0
C      1  0.4650180000000  0.4867750000000  0.5439540000000 1.0
C      1  0.5228930000000  0.4798920000000  0.5501670000000 1.0
C      1  0.5030040000000  0.5491870000000  0.4389240000000 1.0
C      1  0.5192490000000  0.4907250000000  0.4373820000000 1.0
C      1  0.4576150000000  0.4870060000000  0.4481220000000 1.0
C      1  0.4750320000000  0.5149290000000  0.5080130000000 1.0
C      1  0.4997410000000  0.4707890000000  0.5040440000000 1.0
C      1  0.5241030000000  0.5221120000000  0.5051040000000 1.0
C      1  0.5204990000000  0.5166330000000  0.4717320000000 1.0
C      1  0.5027490000000  0.4757160000000  0.4705370000000 1.0
C      1  0.4718240000000  0.5225250000000  0.4750200000000 1.0
C      1  0.5289060000000  0.4889770000000  0.4844540000000 1.0
C      1  0.4978020000000  0.5395260000000  0.4704570000000 1.0
C      1  0.4747110000000  0.4887190000000  0.4772760000000 1.0
C      1  0.4691660000000  0.4826390000000  0.5104550000000 1.0
C      1  0.4993960000000  0.5233390000000  0.5214730000000 1.0
C      1  0.5218160000000  0.4905400000000  0.5178300000000 1.0
C      1  0.4192580000000  0.5216450000000  0.4344620000000 1.0
C      1  0.5182110000000  0.4332870000000  0.4326530000000 1.0
C      1  0.5508090000000  0.5431440000000  0.4328850000000 1.0
C      1  0.5741460000000  0.5315350000000  0.5688450000000 1.0
C      1  0.4829240000000  0.4418580000000  0.5588030000000 1.0
C      1  0.4504000000000  0.5445300000000  0.5595520000000 1.0
C      1  0.5535020000000  0.4707030000000  0.5618020000000 1.0
C      1  0.4822840000000  0.5561540000000  0.5573240000000 1.0
C      1  0.4583760000000  0.4590600000000  0.5602590000000 1.0
C      1  0.4271900000000  0.4824640000000  0.4336090000000 1.0
C      1  0.5232010000000  0.5740760000000  0.4275660000000 1.0
C      1  0.5635150000000  0.4540960000000  0.4339290000000 1.0
C      1  0.5815740000000  0.4356570000000  0.4552640000000 1.0
C      1  0.5260230000000  0.5995560000000  0.4486480000000 1.0
C      1  0.4000920000000  0.4714120000000  0.4509540000000 1.0
C      1  0.4333480000000  0.4471720000000  0.5500240000000 1.0
C      1  0.4946840000000  0.5875330000000  0.5530580000000 1.0
C      1  0.5773080000000  0.4553010000000  0.5448270000000 1.0
C      1  0.4198230000000  0.5584140000000  0.5541900000000 1.0
C      1  0.4897050000000  0.4092860000000  0.5516700000000 1.0
C      1  0.5999500000000  0.5434610000000  0.5514790000000 1.0
C      1  0.5753070000000  0.5617690000000  0.4457410000000 1.0
C      1  0.5250050000000  0.4058490000000  0.4485390000000 1.0
C      1  0.3941150000000  0.5284420000000  0.4549570000000 1.0
C      1  0.4685360000000  0.5897450000000  0.4983350000000 1.0
C      1  0.4356180000000  0.4216690000000  0.4963640000000 1.0
C      1  0.5899210000000  0.4895670000000  0.5096660000000 1.0
C      1  0.5336520000000  0.5933760000000  0.5011110000000 1.0
C      1  0.5621880000000  0.4244770000000  0.5015430000000 1.0
C      1  0.4029350000000  0.4811600000000  0.5032620000000 1.0
C      1  0.5290230000000  0.4127310000000  0.4996660000000 1.0
C      1  0.5616010000000  0.5731940000000  0.4942820000000 1.0
C      1  0.4005010000000  0.5162740000000  0.5057880000000 1.0
C      1  0.4668550000000  0.4109360000000  0.4936740000000 1.0
C      1  0.4416960000000  0.5735380000000  0.4979770000000 1.0
C      1  0.6004940000000  0.5217030000000  0.5054900000000 1.0
C      1  0.5574460000000  0.5588550000000  0.5572530000000 1.0
C      1  0.4307000000000  0.5206970000000  0.5470220000000 1.0
C      1  0.5209240000000  0.4285130000000  0.5673830000000 1.0
C      1  0.4390220000000  0.5478070000000  0.4407180000000 1.0
C      1  0.5693640000000  0.5076990000000  0.4539560000000 1.0
C      1  0.4797080000000  0.4365160000000  0.4429210000000 1.0
C      1  0.4523090000000  0.4548650000000  0.4475780000000 1.0
C      1  0.5835290000000  0.4799480000000  0.4410240000000 1.0
C      1  0.4795750000000  0.5701010000000  0.4488370000000 1.0
C      1  0.5286960000000  0.4477880000000  0.5405910000000 1.0
C      1  0.4308100000000  0.4867940000000  0.5467810000000 1.0
C      1  0.5267460000000  0.5547330000000  0.5448120000000 1.0
C      1  0.6027560000000  0.5416780000000  0.4780630000000 1.0
C      1  0.4154930000000  0.5620450000000  0.4804080000000 1.0
C      1  0.4854730000000  0.3951320000000  0.4713510000000 1.0
C      1  0.4057470000000  0.5436390000000  0.5260760000000 1.0
C      1  0.5805660000000  0.5711270000000  0.5191170000000 1.0
C      1  0.5122610000000  0.3994620000000  0.5261160000000 1.0
C      1  0.4095060000000  0.4583700000000  0.5285020000000 1.0
C      1  0.5717940000000  0.4292680000000  0.5338070000000 1.0
C      1  0.5145520000000  0.6003080000000  0.5284630000000 1.0
C      1  0.5955110000000  0.4679630000000  0.4869030000000 1.0
C      1  0.4142730000000  0.4344900000000  0.4749980000000 1.0
C      1  0.4868160000000  0.6001210000000  0.4738860000000 1.0
C      1  0.5472680000000  0.6015670000000  0.5376630000000 1.0
C      1  0.3970600000000  0.4861870000000  0.5424890000000 1.0
C      1  0.5592340000000  0.4074400000000  0.5477700000000 1.0
C      1  0.4582750000000  0.5883040000000  0.4596650000000 1.0
C      1  0.6018790000000  0.4849840000000  0.4646580000000 1.0
C      1  0.4339520000000  0.4148330000000  0.4573350000000 1.0
C      1  0.4624790000000  0.4094040000000  0.4540800000000 1.0
C      1  0.6101600000000  0.5124050000000  0.4679950000000 1.0
C      1  0.4347210000000  0.5704350000000  0.4588880000000 1.0
C      1  0.5320380000000  0.4060960000000  0.5501060000000 1.0
C      1  0.3969220000000  0.5171310000000  0.5454770000000 1.0
C      1  0.5662750000000  0.5817650000000  0.5407630000000 1.0
C      1  0.5726920000000  0.5170460000000  0.4864800000000 1.0
C      1  0.4507450000000  0.5426540000000  0.4925490000000 1.0
C      1  0.4836530000000  0.4346870000000  0.4766520000000 1.0
C      1  0.4327820000000  0.5161450000000  0.5162220000000 1.0
C      1  0.5491740000000  0.5434450000000  0.5051140000000 1.0
C      1  0.5104060000000  0.4405380000000  0.5058070000000 1.0
C      1  0.4353120000000  0.4843970000000  0.5131410000000 1.0
C      1  0.5425210000000  0.4475470000000  0.5138940000000 1.0
C      1  0.5250890000000  0.5640790000000  0.5161010000000 1.0
C      1  0.5575160000000  0.4825390000000  0.5016820000000 1.0
C      1  0.4517790000000  0.4470630000000  0.4805420000000 1.0
C      1  0.4900670000000  0.5650680000000  0.4926830000000 1.0
C      1  0.5745530000000  0.4828390000000  0.4088030000000 1.0
C      1  0.4755130000000  0.5681470000000  0.4171990000000 1.0
C      1  0.4506730000000  0.4424080000000  0.4161560000000 1.0
C      1  0.4306540000000  0.4847300000000  0.5801520000000 1.0
C      1  0.5236870000000  0.5628450000000  0.5774470000000 1.0
C      1  0.5522380000000  0.4414460000000  0.6018200000000 1.0
C      1  0.4288980000000  0.5105140000000  0.5923260000000 1.0
C      1  0.5274840000000  0.4281250000000  0.5975830000000 1.0
C      1  0.5507630000000  0.5564090000000  0.5895940000000 1.0
C      1  0.5693070000000  0.5102280000000  0.4197880000000 1.0
C      1  0.4744050000000  0.4274090000000  0.4089540000000 1.0
C      1  0.4507480000000  0.5562250000000  0.4116100000000 1.0
C      1  0.5213610000000  0.5609080000000  0.4824490000000 1.0
C      1  0.4367870000000  0.4775830000000  0.4807910000000 1.0
C      1  0.5483670000000  0.4560030000000  0.4824640000000 1.0
C      1  0.4832510000000  0.5628720000000  0.5239940000000 1.0
C      1  0.5581970000000  0.4887010000000  0.5340080000000 1.0
C      1  0.4601190000000  0.4510500000000  0.5127820000000 1.0
C      1  0.4923890000000  0.4339400000000  0.5284090000000 1.0
C      1  0.5636240000000  0.5179280000000  0.5192650000000 1.0
C      1  0.4546270000000  0.5479040000000  0.5256940000000 1.0
C      1  0.5149590000000  0.4376780000000  0.4722330000000 1.0
C      1  0.4334750000000  0.5171880000000  0.4840440000000 1.0
C      1  0.5530780000000  0.5390510000000  0.4721410000000 1.0
C      1  0.4719800000000  0.5140800000000  0.4136340000000 1.0
C      1  0.4965490000000  0.4692990000000  0.4015580000000 1.0
C      1  0.5227210000000  0.5143270000000  0.4021060000000 1.0
C      1  0.5285940000000  0.5120860000000  0.5932290000000 1.0
C      1  0.5018030000000  0.4688150000000  0.6007960000000 1.0
C      1  0.4770680000000  0.5112260000000  0.5901090000000 1.0
C      1  0.5295280000000  0.4838200000000  0.6031920000000 1.0
C      1  0.5006310000000  0.5277160000000  0.5984880000000 1.0
C      1  0.4754230000000  0.4832700000000  0.6013670000000 1.0
C      1  0.4724240000000  0.4845960000000  0.4053370000000 1.0
C      1  0.4983030000000  0.5310440000000  0.4105980000000 1.0
C      1  0.5224890000000  0.4833380000000  0.4068030000000 1.0
C      1  0.5825680000000  0.5080880000000  0.5457380000000 1.0
C      1  0.5400360000000  0.4475930000000  0.4536870000000 1.0
C      1  0.4232750000000  0.5018710000000  0.4611210000000 1.0
C      1  0.4552040000000  0.5806870000000  0.5347080000000 1.0
C      1  0.4596940000000  0.4244380000000  0.5303480000000 1.0
C      1  0.5368150000000  0.5619180000000  0.4560440000000 1.0
END
