TITL C-3289332-8317-7 0.965200870972009 125000 -105.263124937062 0 0 19 (C1) n - 1
REM
REM in /nfs/bkarasulu/CARBON/AIRSS/Generating-Clusters/AIREBO/with-SteepDescent/Higher-Symm/SD-CG/HFTN-CG
REM
REM
REM
REM
REM
REM ./C.cell (b20cbc046b6831c77cfcea5457e17084)
REM
REM compiler GCC version 9.2.1 20190827 (Red Hat 9.2.1-1)
REM options -cpp -mtune=generic -march=x86-64 -g -O0 -fpre-include=/usr/include/finclude/math-vector-fortran.h
REM seed 60478676 1697509944 -1624912621 -6379723 -1333162768 1550007681 781599127 -1772765443 1209204179 -2069820265 991444693 -2098495163 -130404288 368637922 1018224430 -47124894 826529780 1015058962 292717000 263643152 171423615 1942100925 1603674092 1983120792 -449426341 -1006675934 -478983206 -314464988 -179872870 1780167934 -668415646 -1312534215 -2137696811
REM
CELL 1.54180   50.00000   50.00000   50.00000   90.00000   90.00000   90.00000
LATT -1
SFAC C  
C      1  0.5731360000000  0.5155350000000  0.4791800000000 1.0
C      1  0.6031170000000  0.4758810000000  0.4844950000000 1.0
C      1  0.5891470000000  0.4831540000000  0.5309550000000 1.0
C      1  0.5706890000000  0.5380900000000  0.5314080000000 1.0
C      1  0.4332750000000  0.5025970000000  0.5249440000000 1.0
C      1  0.3884980000000  0.4793520000000  0.5223710000000 1.0
C      1  0.3875960000000  0.4887740000000  0.4737750000000 1.0
C      1  0.4324130000000  0.5116070000000  0.4784730000000 1.0
C      1  0.5866500000000  0.4933040000000  0.4712040000000 1.0
C      1  0.6025620000000  0.4695240000000  0.5112490000000 1.0
C      1  0.5768540000000  0.5074760000000  0.5306210000000 1.0
C      1  0.5578650000000  0.5196940000000  0.5056830000000 1.0
C      1  0.4131350000000  0.4857960000000  0.5322760000000 1.0
C      1  0.3799170000000  0.4756910000000  0.4966010000000 1.0
C      1  0.4119070000000  0.4986220000000  0.4661210000000 1.0
C      1  0.4478640000000  0.5092940000000  0.5018550000000 1.0
C      1  0.4751110000000  0.5137800000000  0.5022210000000 1.0
C      1  0.5278080000000  0.5188490000000  0.5039780000000 1.0
C      1  0.5016900000000  0.5155300000000  0.5020690000000 1.0
END
