TITL C-3289334-2237-136 -0.000406984267289562 125000 -913.161435129722 0 0 170 (C1) n - 1
REM
REM in /nfs/bkarasulu/CARBON/AIRSS/Generating-Clusters/AIREBO/with-SteepDescent/Higher-Symm/SD-CG/HFTN-CG
REM
REM
REM
REM
REM
REM ./C.cell (b20cbc046b6831c77cfcea5457e17084)
REM
REM compiler GCC version 9.2.1 20190827 (Red Hat 9.2.1-1)
REM options -cpp -mtune=generic -march=x86-64 -g -O0 -fpre-include=/usr/include/finclude/math-vector-fortran.h
REM seed -1092436171 1094671280 1584129710 370198784 -122994036 -1726116353 -1107432250 -1176196697 54068352 1469529640 -476605931 -389310889 -1455653041 -1475179292 685678878 984800369 2102504308 899334201 246034786 -218893177 -1801373514 -484019379 1590180368 -1243365166 319178960 -2122729070 1398294223 1237981240 344513643 -198015027 1765761186 -881201083 -180426931
REM
CELL 1.54180   50.00000   50.00000   50.00000   90.00000   90.00000   90.00000
LATT -1
SFAC C  
C      1  0.5080460000000  0.5361750000000  0.4441360000000 1.0
C      1  0.4964810000000  0.4678570000000  0.5516830000000 1.0
C      1  0.5394560000000  0.5205800000000  0.5215660000000 1.0
C      1  0.4638270000000  0.4755820000000  0.4773280000000 1.0
C      1  0.4791650000000  0.4528630000000  0.5745250000000 1.0
C      1  0.5301230000000  0.5474550000000  0.4240740000000 1.0
C      1  0.5410510000000  0.5715430000000  0.4397230000000 1.0
C      1  0.4711020000000  0.4280560000000  0.5635240000000 1.0
C      1  0.5615100000000  0.4167420000000  0.4973810000000 1.0
C      1  0.4443990000000  0.5931640000000  0.5045340000000 1.0
C      1  0.4233930000000  0.4494970000000  0.4925880000000 1.0
C      1  0.5814790000000  0.5450120000000  0.5091330000000 1.0
C      1  0.5651590000000  0.5356240000000  0.5705510000000 1.0
C      1  0.4371140000000  0.4705160000000  0.4313420000000 1.0
C      1  0.5067720000000  0.4197120000000  0.4926990000000 1.0
C      1  0.4804650000000  0.5697510000000  0.4960320000000 1.0
C      1  0.5509130000000  0.4601740000000  0.5161260000000 1.0
C      1  0.4569010000000  0.5258620000000  0.4827440000000 1.0
C      1  0.5283770000000  0.5233010000000  0.4001610000000 1.0
C      1  0.4690830000000  0.4768330000000  0.5956570000000 1.0
C      1  0.5326850000000  0.4113450000000  0.5583130000000 1.0
C      1  0.4757210000000  0.5891220000000  0.4480050000000 1.0
C      1  0.4676840000000  0.5550400000000  0.4690130000000 1.0
C      1  0.5336660000000  0.4413630000000  0.5322250000000 1.0
C      1  0.5063930000000  0.4814230000000  0.4233140000000 1.0
C      1  0.4858630000000  0.5204130000000  0.5879430000000 1.0
C      1  0.4887620000000  0.4433080000000  0.4089950000000 1.0
C      1  0.4918630000000  0.5758530000000  0.5899490000000 1.0
C      1  0.4917240000000  0.4555710000000  0.3813150000000 1.0
C      1  0.4826980000000  0.5620340000000  0.6150520000000 1.0
C      1  0.6305940000000  0.5237140000000  0.4978920000000 1.0
C      1  0.3967080000000  0.4950720000000  0.4784240000000 1.0
C      1  0.5276110000000  0.3911820000000  0.4388300000000 1.0
C      1  0.4604000000000  0.5969430000000  0.5343090000000 1.0
C      1  0.5756860000000  0.4436130000000  0.5098640000000 1.0
C      1  0.4310650000000  0.5425050000000  0.4963810000000 1.0
C      1  0.4402790000000  0.5506110000000  0.4373160000000 1.0
C      1  0.5542650000000  0.4728610000000  0.5538140000000 1.0
C      1  0.4681860000000  0.5661290000000  0.5222140000000 1.0
C      1  0.5465640000000  0.4284250000000  0.4689960000000 1.0
C      1  0.4425950000000  0.5460090000000  0.5928200000000 1.0
C      1  0.5381140000000  0.4531480000000  0.4071980000000 1.0
C      1  0.5480630000000  0.5035670000000  0.4196850000000 1.0
C      1  0.4489810000000  0.4938870000000  0.5770080000000 1.0
C      1  0.4286260000000  0.5621900000000  0.4731990000000 1.0
C      1  0.5921010000000  0.4369450000000  0.5379730000000 1.0
C      1  0.5051580000000  0.5678090000000  0.4739290000000 1.0
C      1  0.5108060000000  0.4211900000000  0.5248260000000 1.0
C      1  0.5299450000000  0.4840020000000  0.5055770000000 1.0
C      1  0.4817330000000  0.5212350000000  0.5033820000000 1.0
C      1  0.4948700000000  0.4768730000000  0.4878190000000 1.0
C      1  0.5084780000000  0.5288110000000  0.5229760000000 1.0
C      1  0.4153280000000  0.5834700000000  0.5112300000000 1.0
C      1  0.5882370000000  0.4123300000000  0.4768270000000 1.0
C      1  0.5042830000000  0.4064650000000  0.4440010000000 1.0
C      1  0.4875980000000  0.5959790000000  0.5546890000000 1.0
C      1  0.4056980000000  0.5599730000000  0.5218170000000 1.0
C      1  0.5843330000000  0.4414420000000  0.4709880000000 1.0
C      1  0.5546830000000  0.5309070000000  0.4989170000000 1.0
C      1  0.4497310000000  0.4650070000000  0.5027260000000 1.0
C      1  0.4521050000000  0.4893150000000  0.4071570000000 1.0
C      1  0.5446680000000  0.5215610000000  0.5848630000000 1.0
C      1  0.4740840000000  0.4212410000000  0.4758800000000 1.0
C      1  0.5222520000000  0.5761990000000  0.5321940000000 1.0
C      1  0.5593820000000  0.4589490000000  0.4612380000000 1.0
C      1  0.4262710000000  0.5400850000000  0.5402060000000 1.0
C      1  0.4308370000000  0.4539930000000  0.5490420000000 1.0
C      1  0.5749150000000  0.5398980000000  0.4556550000000 1.0
C      1  0.4662690000000  0.4431310000000  0.5189300000000 1.0
C      1  0.5418340000000  0.5574850000000  0.4863650000000 1.0
C      1  0.5828510000000  0.4911920000000  0.5744750000000 1.0
C      1  0.4188280000000  0.5179100000000  0.4289340000000 1.0
C      1  0.5558450000000  0.4558410000000  0.5822710000000 1.0
C      1  0.4425190000000  0.5528870000000  0.4034660000000 1.0
C      1  0.4511010000000  0.4346610000000  0.5442520000000 1.0
C      1  0.5581400000000  0.5627250000000  0.4609750000000 1.0
C      1  0.5175730000000  0.5361710000000  0.4751230000000 1.0
C      1  0.4848740000000  0.4724980000000  0.5200570000000 1.0
C      1  0.4871090000000  0.3974480000000  0.5189970000000 1.0
C      1  0.5293390000000  0.6030720000000  0.5037550000000 1.0
C      1  0.4091690000000  0.4762760000000  0.5351930000000 1.0
C      1  0.5844550000000  0.5095630000000  0.4680240000000 1.0
C      1  0.4369830000000  0.4182820000000  0.4903610000000 1.0
C      1  0.5684180000000  0.5646420000000  0.5293100000000 1.0
C      1  0.4959300000000  0.5004380000000  0.6135510000000 1.0
C      1  0.4756800000000  0.5069460000000  0.3894950000000 1.0
C      1  0.5175450000000  0.4364590000000  0.4529940000000 1.0
C      1  0.4776250000000  0.5634460000000  0.5547740000000 1.0
C      1  0.5492000000000  0.4113280000000  0.5286340000000 1.0
C      1  0.4523280000000  0.5851860000000  0.4724290000000 1.0
C      1  0.4008060000000  0.5082080000000  0.5270240000000 1.0
C      1  0.5950350000000  0.4800320000000  0.4632200000000 1.0
C      1  0.5167760000000  0.4500820000000  0.5877960000000 1.0
C      1  0.4815950000000  0.5542220000000  0.4094730000000 1.0
C      1  0.4606670000000  0.4469890000000  0.4256290000000 1.0
C      1  0.5131650000000  0.5622750000000  0.5729770000000 1.0
C      1  0.4693750000000  0.5333990000000  0.5297990000000 1.0
C      1  0.5262240000000  0.4768070000000  0.4746330000000 1.0
C      1  0.4678630000000  0.5388680000000  0.6076140000000 1.0
C      1  0.5150680000000  0.4698710000000  0.3949880000000 1.0
C      1  0.5091790000000  0.5115970000000  0.4238370000000 1.0
C      1  0.4885080000000  0.4912620000000  0.5717710000000 1.0
C      1  0.4537490000000  0.4225900000000  0.4415110000000 1.0
C      1  0.5405540000000  0.5779060000000  0.5675380000000 1.0
C      1  0.4761690000000  0.4771740000000  0.4278860000000 1.0
C      1  0.5150640000000  0.5313240000000  0.5783050000000 1.0
C      1  0.5063640000000  0.5511040000000  0.5415890000000 1.0
C      1  0.4960590000000  0.4451170000000  0.4764280000000 1.0
C      1  0.5496640000000  0.5005380000000  0.5451800000000 1.0
C      1  0.4518020000000  0.5235730000000  0.4502680000000 1.0
C      1  0.4655800000000  0.4149450000000  0.5052240000000 1.0
C      1  0.5454850000000  0.5760720000000  0.5116730000000 1.0
C      1  0.4450740000000  0.5215140000000  0.4106690000000 1.0
C      1  0.5528780000000  0.4888530000000  0.5903810000000 1.0
C      1  0.4677810000000  0.5308600000000  0.5611040000000 1.0
C      1  0.5239370000000  0.4689240000000  0.4451580000000 1.0
C      1  0.4818600000000  0.5503170000000  0.4430100000000 1.0
C      1  0.5253880000000  0.4576490000000  0.5566080000000 1.0
C      1  0.4965170000000  0.5095320000000  0.4784710000000 1.0
C      1  0.5093270000000  0.4950590000000  0.5253550000000 1.0
C      1  0.5415920000000  0.4289230000000  0.5791950000000 1.0
C      1  0.4588290000000  0.5753970000000  0.4232560000000 1.0
C      1  0.5830120000000  0.5163400000000  0.5601880000000 1.0
C      1  0.4114190000000  0.4909640000000  0.4296630000000 1.0
C      1  0.4125430000000  0.5396300000000  0.4534670000000 1.0
C      1  0.5874020000000  0.4660930000000  0.5539450000000 1.0
C      1  0.4357390000000  0.5003080000000  0.4902110000000 1.0
C      1  0.5626110000000  0.4905070000000  0.5090230000000 1.0
C      1  0.5141910000000  0.4386640000000  0.4198250000000 1.0
C      1  0.4597840000000  0.5693290000000  0.5831150000000 1.0
C      1  0.5203980000000  0.5080960000000  0.5547820000000 1.0
C      1  0.4772290000000  0.5010530000000  0.4522720000000 1.0
C      1  0.4394640000000  0.5699380000000  0.5400130000000 1.0
C      1  0.5507230000000  0.4033670000000  0.4480660000000 1.0
C      1  0.4985740000000  0.4103050000000  0.5545130000000 1.0
C      1  0.5085420000000  0.5797950000000  0.4453700000000 1.0
C      1  0.4124030000000  0.4787470000000  0.5023560000000 1.0
C      1  0.6003740000000  0.5298720000000  0.4850930000000 1.0
C      1  0.4730050000000  0.6090280000000  0.4966910000000 1.0
C      1  0.5416680000000  0.3887720000000  0.5051150000000 1.0
C      1  0.5443510000000  0.5181750000000  0.4693280000000 1.0
C      1  0.4556220000000  0.4886890000000  0.5262760000000 1.0
C      1  0.4341470000000  0.4262330000000  0.4613820000000 1.0
C      1  0.5612990000000  0.5611580000000  0.5569620000000 1.0
C      1  0.4967250000000  0.5333290000000  0.3921300000000 1.0
C      1  0.5017220000000  0.4714070000000  0.6035120000000 1.0
C      1  0.5778600000000  0.5106800000000  0.5291020000000 1.0
C      1  0.4340850000000  0.4782640000000  0.4643300000000 1.0
C      1  0.4114840000000  0.5030340000000  0.5564820000000 1.0
C      1  0.5877240000000  0.4719290000000  0.4364990000000 1.0
C      1  0.4027790000000  0.5307980000000  0.5084470000000 1.0
C      1  0.5983540000000  0.4621840000000  0.4919920000000 1.0
C      1  0.6043960000000  0.5215760000000  0.5169360000000 1.0
C      1  0.4170340000000  0.4506140000000  0.4595300000000 1.0
C      1  0.5543120000000  0.4717190000000  0.4301180000000 1.0
C      1  0.4353700000000  0.5239250000000  0.5687100000000 1.0
C      1  0.5162310000000  0.5968520000000  0.5531430000000 1.0
C      1  0.4769540000000  0.4067740000000  0.4494900000000 1.0
C      1  0.5032210000000  0.4203590000000  0.5860320000000 1.0
C      1  0.4971470000000  0.5826870000000  0.4151340000000 1.0
C      1  0.4767480000000  0.5166600000000  0.4220640000000 1.0
C      1  0.5210940000000  0.4894390000000  0.5821580000000 1.0
C      1  0.3992370000000  0.5231320000000  0.4779530000000 1.0
C      1  0.6061370000000  0.4637640000000  0.5251040000000 1.0
C      1  0.5143390000000  0.3897050000000  0.5006430000000 1.0
C      1  0.5018130000000  0.5950810000000  0.4933970000000 1.0
C      1  0.5578110000000  0.5196640000000  0.4402350000000 1.0
C      1  0.4447290000000  0.4797920000000  0.5526460000000 1.0
C      1  0.4410160000000  0.5184070000000  0.5185270000000 1.0
C      1  0.5585240000000  0.4892890000000  0.4766010000000 1.0
END
