TITL C-3289325-7307-273 -0.000427598919820973 125000 -691.218517043817 0 0 131 (C1) n - 1
REM
REM in /nfs/bkarasulu/CARBON/AIRSS/Generating-Clusters/AIREBO/with-SteepDescent/Higher-Symm/SD-CG/HFTN-CG
REM
REM
REM
REM
REM
REM ./C.cell (b20cbc046b6831c77cfcea5457e17084)
REM
REM compiler GCC version 9.2.1 20190827 (Red Hat 9.2.1-1)
REM options -cpp -mtune=generic -march=x86-64 -g -O0 -fpre-include=/usr/include/finclude/math-vector-fortran.h
REM seed 1444609501 -156756329 -1298371305 2100579781 1749765928 1274859302 -1959060526 -29771229 -125516560 -1134875198 -2074035628 1413900502 715142586 -1819451830 1533099828 -78839086 252464611 -2121149091 862309795 -1025976271 1076768342 -997967690 -2126980134 1583132899 -837149264 104292438 1854421518 432119310 -1115215628 1487312143 1490389082 783526779 -1961186522
REM
CELL 1.54180   50.00000   50.00000   50.00000   90.00000   90.00000   90.00000
LATT -1
SFAC C  
C      1  0.4992230000000  0.5547700000000  0.4917730000000 1.0
C      1  0.4993140000000  0.5139010000000  0.4471850000000 1.0
C      1  0.5032510000000  0.4490400000000  0.4761410000000 1.0
C      1  0.4978520000000  0.4536600000000  0.5358950000000 1.0
C      1  0.5019120000000  0.5212280000000  0.5471520000000 1.0
C      1  0.5305210000000  0.4465930000000  0.4963120000000 1.0
C      1  0.5235990000000  0.4727960000000  0.5471860000000 1.0
C      1  0.5273760000000  0.5377190000000  0.5317850000000 1.0
C      1  0.5284770000000  0.5487700000000  0.4755120000000 1.0
C      1  0.5235620000000  0.4900970000000  0.4485050000000 1.0
C      1  0.4993900000000  0.5223170000000  0.5899830000000 1.0
C      1  0.4996010000000  0.5970660000000  0.5089600000000 1.0
C      1  0.4985020000000  0.5363750000000  0.4129270000000 1.0
C      1  0.5008230000000  0.4254280000000  0.4397990000000 1.0
C      1  0.4982200000000  0.4166100000000  0.5509410000000 1.0
C      1  0.5774790000000  0.5084540000000  0.4753290000000 1.0
C      1  0.5743610000000  0.4781670000000  0.4835930000000 1.0
C      1  0.5799640000000  0.4746720000000  0.5154140000000 1.0
C      1  0.5790060000000  0.5056070000000  0.5271640000000 1.0
C      1  0.5778940000000  0.5289520000000  0.5024630000000 1.0
C      1  0.5523290000000  0.5373230000000  0.4427430000000 1.0
C      1  0.5563470000000  0.4510730000000  0.4416340000000 1.0
C      1  0.5532910000000  0.4325340000000  0.5291090000000 1.0
C      1  0.5535000000000  0.5029660000000  0.5689760000000 1.0
C      1  0.5543370000000  0.5776190000000  0.5194190000000 1.0
C      1  0.4425450000000  0.5228030000000  0.5285870000000 1.0
C      1  0.4363230000000  0.5361430000000  0.4914120000000 1.0
C      1  0.4326510000000  0.5041980000000  0.4676960000000 1.0
C      1  0.4409050000000  0.4554270000000  0.4878540000000 1.0
C      1  0.4430850000000  0.4807490000000  0.5256830000000 1.0
C      1  0.4694290000000  0.5230490000000  0.4368230000000 1.0
C      1  0.4740410000000  0.4323940000000  0.4697670000000 1.0
C      1  0.4671290000000  0.4394520000000  0.5413560000000 1.0
C      1  0.4710320000000  0.5314750000000  0.5570600000000 1.0
C      1  0.4682630000000  0.5684720000000  0.4885690000000 1.0
C      1  0.4096900000000  0.5253250000000  0.4541850000000 1.0
C      1  0.4200930000000  0.4722120000000  0.4673940000000 1.0
C      1  0.4188860000000  0.4588220000000  0.5162030000000 1.0
C      1  0.4178760000000  0.5100240000000  0.5471690000000 1.0
C      1  0.4146040000000  0.5508420000000  0.5113700000000 1.0
C      1  0.5051070000000  0.5577530000000  0.5218250000000 1.0
C      1  0.5068370000000  0.5441950000000  0.4540120000000 1.0
C      1  0.5061220000000  0.4640350000000  0.4488130000000 1.0
C      1  0.5083280000000  0.4341650000000  0.5129030000000 1.0
C      1  0.5045520000000  0.4938270000000  0.5614810000000 1.0
C      1  0.4566540000000  0.5138890000000  0.5804710000000 1.0
C      1  0.4571130000000  0.5827380000000  0.5156760000000 1.0
C      1  0.4504810000000  0.5482050000000  0.4291110000000 1.0
C      1  0.4596660000000  0.4365180000000  0.4406300000000 1.0
C      1  0.4508830000000  0.4173980000000  0.5276040000000 1.0
C      1  0.3963100000000  0.5157460000000  0.4797700000000 1.0
C      1  0.3979090000000  0.4873880000000  0.4836290000000 1.0
C      1  0.3984850000000  0.4810570000000  0.5112260000000 1.0
C      1  0.3975670000000  0.5057730000000  0.5268650000000 1.0
C      1  0.3956150000000  0.5284210000000  0.5068970000000 1.0
C      1  0.5100210000000  0.5729500000000  0.5514110000000 1.0
C      1  0.5051110000000  0.5768870000000  0.4448240000000 1.0
C      1  0.5087680000000  0.4708800000000  0.4156130000000 1.0
C      1  0.5071650000000  0.4019240000000  0.5021620000000 1.0
C      1  0.5065920000000  0.4724560000000  0.5878490000000 1.0
C      1  0.5393480000000  0.4094940000000  0.5082890000000 1.0
C      1  0.5395600000000  0.4804130000000  0.5902830000000 1.0
C      1  0.5417760000000  0.5817820000000  0.5490470000000 1.0
C      1  0.5369820000000  0.5676430000000  0.4413600000000 1.0
C      1  0.5416310000000  0.4622330000000  0.4130650000000 1.0
C      1  0.5671760000000  0.4491460000000  0.5547270000000 1.0
C      1  0.5642190000000  0.5344750000000  0.5620130000000 1.0
C      1  0.5669310000000  0.5765260000000  0.4884540000000 1.0
C      1  0.5645780000000  0.5083970000000  0.4297350000000 1.0
C      1  0.5693560000000  0.4326600000000  0.4666600000000 1.0
C      1  0.4671790000000  0.4643620000000  0.4682040000000 1.0
C      1  0.4640860000000  0.4573790000000  0.5126800000000 1.0
C      1  0.4638700000000  0.5013560000000  0.5430020000000 1.0
C      1  0.4630920000000  0.5434710000000  0.5110570000000 1.0
C      1  0.4545480000000  0.5300030000000  0.4643290000000 1.0
C      1  0.5506680000000  0.4781740000000  0.4613690000000 1.0
C      1  0.5478560000000  0.4635070000000  0.5161590000000 1.0
C      1  0.5507650000000  0.4895650000000  0.5378220000000 1.0
C      1  0.5443690000000  0.5314120000000  0.5076150000000 1.0
C      1  0.5496060000000  0.5255030000000  0.4745270000000 1.0
C      1  0.5833080000000  0.5333920000000  0.5417070000000 1.0
C      1  0.5837840000000  0.5546420000000  0.4809830000000 1.0
C      1  0.5834880000000  0.4954670000000  0.4464660000000 1.0
C      1  0.5834760000000  0.4473730000000  0.4865200000000 1.0
C      1  0.5852830000000  0.4695400000000  0.5469720000000 1.0
C      1  0.4238420000000  0.5592190000000  0.4697770000000 1.0
C      1  0.4469570000000  0.4869630000000  0.4421130000000 1.0
C      1  0.4305370000000  0.4232690000000  0.4840040000000 1.0
C      1  0.4420050000000  0.4719900000000  0.5588170000000 1.0
C      1  0.4343240000000  0.5508710000000  0.5459290000000 1.0
C      1  0.4250740000000  0.5492380000000  0.4412790000000 1.0
C      1  0.4373990000000  0.4560230000000  0.4429950000000 1.0
C      1  0.4291690000000  0.4273190000000  0.5136460000000 1.0
C      1  0.4334550000000  0.4991340000000  0.5700270000000 1.0
C      1  0.4319660000000  0.5731970000000  0.5255120000000 1.0
C      1  0.4762170000000  0.5560150000000  0.5384290000000 1.0
C      1  0.4751860000000  0.5552020000000  0.4597790000000 1.0
C      1  0.4755340000000  0.4727770000000  0.4377260000000 1.0
C      1  0.4778350000000  0.4288320000000  0.5003490000000 1.0
C      1  0.4737850000000  0.4807910000000  0.5669770000000 1.0
C      1  0.5451180000000  0.4606220000000  0.5673900000000 1.0
C      1  0.5434660000000  0.5511420000000  0.5538040000000 1.0
C      1  0.5464600000000  0.5744020000000  0.4698810000000 1.0
C      1  0.5434650000000  0.4910160000000  0.4242510000000 1.0
C      1  0.5486920000000  0.4230460000000  0.4826200000000 1.0
C      1  0.4888530000000  0.4796230000000  0.5163350000000 1.0
C      1  0.4954380000000  0.5079500000000  0.5196880000000 1.0
C      1  0.4860150000000  0.5248940000000  0.4969050000000 1.0
C      1  0.4915930000000  0.5046300000000  0.4761670000000 1.0
C      1  0.4884340000000  0.4770800000000  0.4862950000000 1.0
C      1  0.4843110000000  0.5888770000000  0.5351400000000 1.0
C      1  0.4825160000000  0.5593130000000  0.4264560000000 1.0
C      1  0.4854290000000  0.4457260000000  0.4203200000000 1.0
C      1  0.4830070000000  0.4063590000000  0.5256910000000 1.0
C      1  0.4825810000000  0.4965090000000  0.5946170000000 1.0
C      1  0.5063530000000  0.5475510000000  0.5682330000000 1.0
C      1  0.5065690000000  0.5849320000000  0.4778860000000 1.0
C      1  0.5048020000000  0.5026910000000  0.4155490000000 1.0
C      1  0.5105200000000  0.4161580000000  0.4714000000000 1.0
C      1  0.5033210000000  0.4457430000000  0.5685180000000 1.0
C      1  0.5855870000000  0.4683710000000  0.4400310000000 1.0
C      1  0.5822370000000  0.4349690000000  0.5114210000000 1.0
C      1  0.5849150000000  0.4905520000000  0.5650730000000 1.0
C      1  0.5808520000000  0.5570580000000  0.5223590000000 1.0
C      1  0.5824560000000  0.5484830000000  0.4538840000000 1.0
C      1  0.5300210000000  0.5920050000000  0.5014800000000 1.0
C      1  0.5272120000000  0.5274240000000  0.4220650000000 1.0
C      1  0.5307730000000  0.4294330000000  0.4475240000000 1.0
C      1  0.5267710000000  0.4297760000000  0.5497710000000 1.0
C      1  0.5278430000000  0.5228840000000  0.5775000000000 1.0
C      1  0.4345730000000  0.5035580000000  0.5017080000000 1.0
END
