TITL C-3289321-8710-109 -0.00123144968112267 125000 -737.937406395628 0 0 132 (C1) n - 1
REM
REM in /nfs/bkarasulu/CARBON/AIRSS/Generating-Clusters/AIREBO/with-SteepDescent/Higher-Symm/SD-CG/HFTN-CG
REM
REM
REM
REM
REM
REM ./C.cell (b20cbc046b6831c77cfcea5457e17084)
REM
REM compiler GCC version 9.2.1 20190827 (Red Hat 9.2.1-1)
REM options -cpp -mtune=generic -march=x86-64 -g -O0 -fpre-include=/usr/include/finclude/math-vector-fortran.h
REM seed -1244748900 522105780 -584409139 -133966657 803817132 1367702641 -1151715319 -1148703853 -1524752952 1374860956 -720833724 398551311 -2134452475 -191313408 -215764184 1003071837 1231827373 2058025465 -440472310 653326308 1838400652 1933684988 -1143872355 -1449164587 1627371859 -602467786 824705938 -562598426 -845158720 -1379622817 993268927 -1607942074 -993858213
REM
CELL 1.54180   50.00000   50.00000   50.00000   90.00000   90.00000   90.00000
LATT -1
SFAC C  
C      1  0.4880270000000  0.4751950000000  0.5734380000000 1.0
C      1  0.4727560000000  0.5031020000000  0.5826920000000 1.0
C      1  0.4914080000000  0.5273100000000  0.5792100000000 1.0
C      1  0.5208080000000  0.5156940000000  0.5730130000000 1.0
C      1  0.5177810000000  0.4836230000000  0.5779960000000 1.0
C      1  0.5270540000000  0.3719580000000  0.5458820000000 1.0
C      1  0.3606420000000  0.4417130000000  0.5397970000000 1.0
C      1  0.4136930000000  0.6064960000000  0.5237790000000 1.0
C      1  0.5855780000000  0.6089430000000  0.5424610000000 1.0
C      1  0.6243200000000  0.4719420000000  0.5225130000000 1.0
C      1  0.4391610000000  0.5285170000000  0.4319200000000 1.0
C      1  0.5132000000000  0.5615780000000  0.4276130000000 1.0
C      1  0.5660330000000  0.5141380000000  0.4366170000000 1.0
C      1  0.5250950000000  0.4436710000000  0.4280610000000 1.0
C      1  0.4508490000000  0.4519840000000  0.4383420000000 1.0
C      1  0.4787060000000  0.5066650000000  0.4031310000000 1.0
C      1  0.4979630000000  0.5277020000000  0.4132330000000 1.0
C      1  0.5186140000000  0.5070870000000  0.4035590000000 1.0
C      1  0.5167990000000  0.4807900000000  0.4180070000000 1.0
C      1  0.4864920000000  0.4821450000000  0.4144050000000 1.0
C      1  0.4943140000000  0.5932700000000  0.4819470000000 1.0
C      1  0.5909080000000  0.5320780000000  0.4849690000000 1.0
C      1  0.5560190000000  0.4262300000000  0.4843020000000 1.0
C      1  0.4530060000000  0.4174910000000  0.4927520000000 1.0
C      1  0.4027410000000  0.5176240000000  0.4928100000000 1.0
C      1  0.4500380000000  0.5564610000000  0.4301180000000 1.0
C      1  0.5405440000000  0.5607940000000  0.4330620000000 1.0
C      1  0.5725440000000  0.4853300000000  0.4336600000000 1.0
C      1  0.5009880000000  0.4275300000000  0.4323310000000 1.0
C      1  0.4317680000000  0.4760380000000  0.4342650000000 1.0
C      1  0.4830220000000  0.5853360000000  0.5483030000000 1.0
C      1  0.5801270000000  0.5338840000000  0.5490490000000 1.0
C      1  0.5618210000000  0.4334850000000  0.5512240000000 1.0
C      1  0.4699220000000  0.4212980000000  0.5515390000000 1.0
C      1  0.4123900000000  0.5024840000000  0.5505230000000 1.0
C      1  0.4762960000000  0.4509400000000  0.5889630000000 1.0
C      1  0.4418850000000  0.5086120000000  0.5907290000000 1.0
C      1  0.4911440000000  0.5588020000000  0.5896910000000 1.0
C      1  0.5486030000000  0.5246120000000  0.5855550000000 1.0
C      1  0.5372740000000  0.4587890000000  0.5867180000000 1.0
C      1  0.5016390000000  0.5522710000000  0.5305820000000 1.0
C      1  0.5415860000000  0.5056150000000  0.5228390000000 1.0
C      1  0.5244300000000  0.4763050000000  0.5211310000000 1.0
C      1  0.4691530000000  0.4759100000000  0.5231770000000 1.0
C      1  0.4651720000000  0.5093440000000  0.5293020000000 1.0
C      1  0.4991100000000  0.4154250000000  0.4584000000000 1.0
C      1  0.4142640000000  0.4787800000000  0.4583050000000 1.0
C      1  0.4440710000000  0.5725420000000  0.4552250000000 1.0
C      1  0.5477760000000  0.5684350000000  0.4596830000000 1.0
C      1  0.5872200000000  0.4750950000000  0.4571200000000 1.0
C      1  0.4371900000000  0.4756220000000  0.5344400000000 1.0
C      1  0.4537910000000  0.5417210000000  0.5308160000000 1.0
C      1  0.5355290000000  0.5546420000000  0.5329180000000 1.0
C      1  0.5628950000000  0.4808470000000  0.5322550000000 1.0
C      1  0.5104250000000  0.4465980000000  0.5299450000000 1.0
C      1  0.5495590000000  0.4380830000000  0.5741120000000 1.0
C      1  0.4651040000000  0.4297220000000  0.5758380000000 1.0
C      1  0.4211400000000  0.5109770000000  0.5734150000000 1.0
C      1  0.4877150000000  0.5809610000000  0.5738600000000 1.0
C      1  0.5730270000000  0.5257150000000  0.5731250000000 1.0
C      1  0.4422320000000  0.5035580000000  0.5048810000000 1.0
C      1  0.4921420000000  0.5569640000000  0.4984140000000 1.0
C      1  0.5538510000000  0.5237760000000  0.5006760000000 1.0
C      1  0.5457100000000  0.4596760000000  0.5032630000000 1.0
C      1  0.4736030000000  0.4508110000000  0.5006720000000 1.0
C      1  0.4690810000000  0.4235560000000  0.5184230000000 1.0
C      1  0.4138280000000  0.5029750000000  0.5170820000000 1.0
C      1  0.4888080000000  0.5865590000000  0.5148210000000 1.0
C      1  0.5814360000000  0.5340680000000  0.5150330000000 1.0
C      1  0.5583260000000  0.4336640000000  0.5174050000000 1.0
C      1  0.5210500000000  0.5431880000000  0.4976540000000 1.0
C      1  0.5581860000000  0.4904450000000  0.4797140000000 1.0
C      1  0.5139210000000  0.4514520000000  0.4807310000000 1.0
C      1  0.4523070000000  0.4790360000000  0.4833040000000 1.0
C      1  0.4554770000000  0.5321860000000  0.4798570000000 1.0
C      1  0.4344510000000  0.5231340000000  0.4595980000000 1.0
C      1  0.4912810000000  0.5699460000000  0.4498170000000 1.0
C      1  0.5582900000000  0.5189400000000  0.4672900000000 1.0
C      1  0.5512640000000  0.4449080000000  0.4491810000000 1.0
C      1  0.4590650000000  0.4496960000000  0.4699280000000 1.0
C      1  0.4801700000000  0.5072240000000  0.4590530000000 1.0
C      1  0.4971280000000  0.5297980000000  0.4453810000000 1.0
C      1  0.5197470000000  0.5118690000000  0.4585510000000 1.0
C      1  0.5227380000000  0.4831660000000  0.4490340000000 1.0
C      1  0.4902700000000  0.4812170000000  0.4479010000000 1.0
C      1  0.4911800000000  0.4708130000000  0.4795210000000 1.0
C      1  0.4730080000000  0.5050410000000  0.4904650000000 1.0
C      1  0.4818560000000  0.5459950000000  0.4710970000000 1.0
C      1  0.5241730000000  0.5139090000000  0.4873150000000 1.0
C      1  0.5401790000000  0.4658140000000  0.4702820000000 1.0
C      1  0.5656600000000  0.5578910000000  0.5334790000000 1.0
C      1  0.5798210000000  0.4542390000000  0.5342110000000 1.0
C      1  0.4975400000000  0.4174400000000  0.5346400000000 1.0
C      1  0.4037680000000  0.4748590000000  0.5333570000000 1.0
C      1  0.4594130000000  0.5749000000000  0.5279450000000 1.0
C      1  0.5769030000000  0.5855570000000  0.5370630000000 1.0
C      1  0.6098180000000  0.4558550000000  0.5392690000000 1.0
C      1  0.5132010000000  0.3923340000000  0.5392190000000 1.0
C      1  0.3804640000000  0.4576890000000  0.5380090000000 1.0
C      1  0.4347320000000  0.5924000000000  0.5269990000000 1.0
C      1  0.4342710000000  0.5018950000000  0.4196290000000 1.0
C      1  0.4787010000000  0.5614320000000  0.4214270000000 1.0
C      1  0.5576920000000  0.5387800000000  0.4229620000000 1.0
C      1  0.5526990000000  0.4640320000000  0.4233460000000 1.0
C      1  0.4720460000000  0.4347750000000  0.4244230000000 1.0
C      1  0.4905470000000  0.4673050000000  0.5433180000000 1.0
C      1  0.4556390000000  0.4921840000000  0.5570650000000 1.0
C      1  0.4779870000000  0.5461700000000  0.5542870000000 1.0
C      1  0.5269250000000  0.5236860000000  0.5418190000000 1.0
C      1  0.5368360000000  0.4799560000000  0.5529200000000 1.0
C      1  0.4418960000000  0.5493530000000  0.5027020000000 1.0
C      1  0.5269130000000  0.5738850000000  0.5084560000000 1.0
C      1  0.5776620000000  0.4885010000000  0.5043210000000 1.0
C      1  0.5181000000000  0.4307600000000  0.5031220000000 1.0
C      1  0.4333650000000  0.4626940000000  0.5055670000000 1.0
C      1  0.5389260000000  0.4038830000000  0.5034060000000 1.0
C      1  0.4285040000000  0.4320480000000  0.4929370000000 1.0
C      1  0.4091180000000  0.5450780000000  0.4947410000000 1.0
C      1  0.5190680000000  0.6056830000000  0.5014130000000 1.0
C      1  0.6109110000000  0.4845010000000  0.5037330000000 1.0
C      1  0.5270450000000  0.5839970000000  0.4759940000000 1.0
C      1  0.5967830000000  0.4997750000000  0.4784640000000 1.0
C      1  0.5253820000000  0.4140290000000  0.4740460000000 1.0
C      1  0.4202430000000  0.4571320000000  0.4746780000000 1.0
C      1  0.4274750000000  0.5600730000000  0.4738000000000 1.0
C      1  0.4739630000000  0.4191400000000  0.4705630000000 1.0
C      1  0.4123490000000  0.5066060000000  0.4681640000000 1.0
C      1  0.4678340000000  0.5831060000000  0.4674520000000 1.0
C      1  0.5672250000000  0.5512170000000  0.4709880000000 1.0
C      1  0.5780450000000  0.4453810000000  0.4668460000000 1.0
C      1  0.5035740000000  0.4928710000000  0.4997540000000 1.0
C      1  0.4944310000000  0.5207950000000  0.5399190000000 1.0
END
