TITL C-3289330-4660-633 0.00172987829448764 125000 -385.897179155092 0 0 69 (C1) n - 1
REM
REM in /nfs/bkarasulu/CARBON/AIRSS/Generating-Clusters/AIREBO/with-SteepDescent/Higher-Symm/SD-CG/HFTN-CG
REM
REM
REM
REM
REM
REM ./C.cell (b20cbc046b6831c77cfcea5457e17084)
REM
REM compiler GCC version 9.2.1 20190827 (Red Hat 9.2.1-1)
REM options -cpp -mtune=generic -march=x86-64 -g -O0 -fpre-include=/usr/include/finclude/math-vector-fortran.h
REM seed -720316092 -303042365 -1522207799 848743896 -767623414 1744938650 -1575938297 -1408024792 386704150 -165494251 477565105 1262730476 -2138113655 204281454 1759226390 -1072857292 -1369266274 -893422831 170842919 -738736815 617256553 -1436587189 395430618 1118185725 1030798136 -1813737114 1225005507 -1395321480 378197827 -251370923 -1770443008 -1329419344 -1919246218
REM
CELL 1.54180   50.00000   50.00000   50.00000   90.00000   90.00000   90.00000
LATT -1
SFAC C  
C      1  0.5162500000000  0.5460670000000  0.5125940000000 1.0
C      1  0.5013800000000  0.5412500000000  0.4823980000000 1.0
C      1  0.4827160000000  0.5447230000000  0.5137390000000 1.0
C      1  0.4891470000000  0.4819300000000  0.5722060000000 1.0
C      1  0.5667680000000  0.4837480000000  0.4658540000000 1.0
C      1  0.4446840000000  0.4786840000000  0.4561750000000 1.0
C      1  0.4822220000000  0.4616500000000  0.5548870000000 1.0
C      1  0.5443780000000  0.4738670000000  0.4865710000000 1.0
C      1  0.4645620000000  0.4595560000000  0.4586540000000 1.0
C      1  0.5226620000000  0.4979030000000  0.5201030000000 1.0
C      1  0.5041890000000  0.4938660000000  0.4651390000000 1.0
C      1  0.4730960000000  0.4961470000000  0.5142090000000 1.0
C      1  0.4644950000000  0.4698870000000  0.5300290000000 1.0
C      1  0.5376260000000  0.4700460000000  0.5177660000000 1.0
C      1  0.4927190000000  0.4689220000000  0.4482290000000 1.0
C      1  0.4693880000000  0.4335720000000  0.4700920000000 1.0
C      1  0.4886190000000  0.4342180000000  0.5479320000000 1.0
C      1  0.5385060000000  0.4431580000000  0.4839820000000 1.0
C      1  0.4202890000000  0.5405670000000  0.4652190000000 1.0
C      1  0.5274030000000  0.5408600000000  0.5843260000000 1.0
C      1  0.5670760000000  0.5404320000000  0.4500150000000 1.0
C      1  0.5314280000000  0.5213930000000  0.5647550000000 1.0
C      1  0.5461900000000  0.5223020000000  0.4484940000000 1.0
C      1  0.4334330000000  0.5240900000000  0.4865350000000 1.0
C      1  0.5083450000000  0.5107530000000  0.5432250000000 1.0
C      1  0.5324580000000  0.5027570000000  0.4727090000000 1.0
C      1  0.4627530000000  0.5067820000000  0.4886160000000 1.0
C      1  0.5484450000000  0.4850650000000  0.5638720000000 1.0
C      1  0.5255930000000  0.4978580000000  0.4250190000000 1.0
C      1  0.4243830000000  0.4972020000000  0.5142740000000 1.0
C      1  0.5224680000000  0.5641630000000  0.4775520000000 1.0
C      1  0.4706170000000  0.5645770000000  0.4925960000000 1.0
C      1  0.5067900000000  0.5680240000000  0.5353800000000 1.0
C      1  0.4823040000000  0.4177250000000  0.4460810000000 1.0
C      1  0.4618080000000  0.4203480000000  0.5394440000000 1.0
C      1  0.5512310000000  0.4256220000000  0.5053960000000 1.0
C      1  0.5653580000000  0.5477090000000  0.5346950000000 1.0
C      1  0.4975070000000  0.5367420000000  0.4232860000000 1.0
C      1  0.4331960000000  0.5377790000000  0.5390850000000 1.0
C      1  0.5240390000000  0.5281520000000  0.4248460000000 1.0
C      1  0.4213300000000  0.5274170000000  0.5165210000000 1.0
C      1  0.5576170000000  0.5233910000000  0.5498750000000 1.0
C      1  0.5035650000000  0.4399610000000  0.4506630000000 1.0
C      1  0.4639040000000  0.4413830000000  0.5174760000000 1.0
C      1  0.5322960000000  0.4411380000000  0.5233600000000 1.0
C      1  0.4781230000000  0.5386610000000  0.4500540000000 1.0
C      1  0.4616940000000  0.5497520000000  0.5529040000000 1.0
C      1  0.5560700000000  0.5404120000000  0.5049480000000 1.0
C      1  0.4551060000000  0.5159380000000  0.5532170000000 1.0
C      1  0.5657630000000  0.5110520000000  0.5191200000000 1.0
C      1  0.4748850000000  0.5119970000000  0.4289470000000 1.0
C      1  0.5315430000000  0.5184910000000  0.4998760000000 1.0
C      1  0.4850550000000  0.5157590000000  0.4715490000000 1.0
C      1  0.4816370000000  0.5192510000000  0.5322090000000 1.0
C      1  0.5763890000000  0.4974980000000  0.4904140000000 1.0
C      1  0.4481500000000  0.4960380000000  0.4348900000000 1.0
C      1  0.4692300000000  0.5006760000000  0.5780290000000 1.0
C      1  0.4351940000000  0.4903650000000  0.4825980000000 1.0
C      1  0.5178540000000  0.4913340000000  0.5722450000000 1.0
C      1  0.5533330000000  0.4903350000000  0.4409930000000 1.0
C      1  0.4985080000000  0.4891030000000  0.4259440000000 1.0
C      1  0.4408660000000  0.4896950000000  0.5366900000000 1.0
C      1  0.5564160000000  0.4855820000000  0.5374070000000 1.0
C      1  0.4886780000000  0.4344600000000  0.4978230000000 1.0
C      1  0.5060430000000  0.4324240000000  0.5252530000000 1.0
C      1  0.5129860000000  0.4361720000000  0.4765880000000 1.0
C      1  0.4841530000000  0.5652340000000  0.5507850000000 1.0
C      1  0.5462280000000  0.5632030000000  0.4863620000000 1.0
C      1  0.4708640000000  0.5631800000000  0.4672790000000 1.0
END
