TITL C-3289329-2751-125 -0.00570988664933092 125000 -493.109856424093 0 0 90 (C1) n - 1
REM
REM in /nfs/bkarasulu/CARBON/AIRSS/Generating-Clusters/AIREBO/with-SteepDescent/Higher-Symm/SD-CG/HFTN-CG
REM
REM
REM
REM
REM
REM ./C.cell (b20cbc046b6831c77cfcea5457e17084)
REM
REM compiler GCC version 9.2.1 20190827 (Red Hat 9.2.1-1)
REM options -cpp -mtune=generic -march=x86-64 -g -O0 -fpre-include=/usr/include/finclude/math-vector-fortran.h
REM seed 1440580393 1778668774 -1943488803 -1411733777 298380797 523886506 -1971035737 1067221797 415211017 1294783010 771556954 2140792310 -820428584 597105210 -1946839792 -1072655648 322550451 -1595165094 2043687760 -1669186768 1058580638 -1301638367 -2113782844 663345490 837928583 784447672 -814324598 -985881021 -1489605318 2117930661 -1589946098 -1541323178 -1983131170
REM
CELL 1.54180   50.00000   50.00000   50.00000   90.00000   90.00000   90.00000
LATT -1
SFAC C  
C      1  0.5465820000000  0.5389200000000  0.5608150000000 1.0
C      1  0.5386330000000  0.5361920000000  0.4182910000000 1.0
C      1  0.4110980000000  0.5450480000000  0.5103450000000 1.0
C      1  0.5720550000000  0.4796350000000  0.4462090000000 1.0
C      1  0.4182060000000  0.4762250000000  0.4649770000000 1.0
C      1  0.5074400000000  0.4789140000000  0.5905960000000 1.0
C      1  0.5303530000000  0.4778960000000  0.5461200000000 1.0
C      1  0.5197130000000  0.4689070000000  0.4508750000000 1.0
C      1  0.4518050000000  0.4803080000000  0.4893540000000 1.0
C      1  0.5189460000000  0.4222470000000  0.4946520000000 1.0
C      1  0.4875170000000  0.4257760000000  0.4897510000000 1.0
C      1  0.4996360000000  0.4282010000000  0.5187530000000 1.0
C      1  0.6053130000000  0.4490010000000  0.4960390000000 1.0
C      1  0.4488300000000  0.4516850000000  0.4084860000000 1.0
C      1  0.4504020000000  0.4529740000000  0.5882440000000 1.0
C      1  0.5035350000000  0.5229200000000  0.4883860000000 1.0
C      1  0.4832770000000  0.5024690000000  0.5033860000000 1.0
C      1  0.5208910000000  0.5122390000000  0.5126810000000 1.0
C      1  0.5367950000000  0.5556440000000  0.4912740000000 1.0
C      1  0.4770640000000  0.5583520000000  0.4738640000000 1.0
C      1  0.4867260000000  0.5593230000000  0.5287360000000 1.0
C      1  0.4062900000000  0.5211790000000  0.4985600000000 1.0
C      1  0.5380740000000  0.5183450000000  0.5758720000000 1.0
C      1  0.5390130000000  0.5100880000000  0.4264910000000 1.0
C      1  0.5352230000000  0.5382220000000  0.5297180000000 1.0
C      1  0.5122220000000  0.5432390000000  0.4623780000000 1.0
C      1  0.4403200000000  0.5509620000000  0.5115910000000 1.0
C      1  0.5518070000000  0.4520810000000  0.4082730000000 1.0
C      1  0.4001240000000  0.4324950000000  0.4790480000000 1.0
C      1  0.5234450000000  0.4349020000000  0.6061760000000 1.0
C      1  0.4737920000000  0.5093370000000  0.5299530000000 1.0
C      1  0.5517360000000  0.5103180000000  0.5063450000000 1.0
C      1  0.4836030000000  0.5155680000000  0.4656950000000 1.0
C      1  0.5195450000000  0.4539740000000  0.5870160000000 1.0
C      1  0.5485500000000  0.4599330000000  0.4346950000000 1.0
C      1  0.4181920000000  0.4529440000000  0.4799860000000 1.0
C      1  0.5916200000000  0.4989830000000  0.4549510000000 1.0
C      1  0.4187210000000  0.5011110000000  0.4467430000000 1.0
C      1  0.4926560000000  0.5055570000000  0.5956020000000 1.0
C      1  0.4722020000000  0.4486010000000  0.4764100000000 1.0
C      1  0.5008280000000  0.4535840000000  0.5356330000000 1.0
C      1  0.5381050000000  0.4456000000000  0.4879640000000 1.0
C      1  0.4552370000000  0.4964560000000  0.5673280000000 1.0
C      1  0.5875650000000  0.4934040000000  0.5022000000000 1.0
C      1  0.4632140000000  0.4929310000000  0.4291220000000 1.0
C      1  0.4556860000000  0.5096760000000  0.4755500000000 1.0
C      1  0.4972300000000  0.5100370000000  0.5491340000000 1.0
C      1  0.5381410000000  0.4980910000000  0.4789740000000 1.0
C      1  0.4855290000000  0.4762280000000  0.4871310000000 1.0
C      1  0.5159490000000  0.4789140000000  0.5179880000000 1.0
C      1  0.5192980000000  0.4731370000000  0.4846440000000 1.0
C      1  0.4450740000000  0.4496930000000  0.4955380000000 1.0
C      1  0.5262470000000  0.4485080000000  0.5576690000000 1.0
C      1  0.5327840000000  0.4381410000000  0.4552210000000 1.0
C      1  0.5864230000000  0.5118190000000  0.4798630000000 1.0
C      1  0.4432390000000  0.5125540000000  0.4377390000000 1.0
C      1  0.4720180000000  0.5164930000000  0.5792640000000 1.0
C      1  0.4767930000000  0.5430160000000  0.5585240000000 1.0
C      1  0.5678730000000  0.5399960000000  0.4851300000000 1.0
C      1  0.4566530000000  0.5409730000000  0.4508030000000 1.0
C      1  0.4529040000000  0.4449980000000  0.5252590000000 1.0
C      1  0.5506010000000  0.4453770000000  0.5347640000000 1.0
C      1  0.5017100000000  0.4343920000000  0.4424870000000 1.0
C      1  0.4541240000000  0.5368920000000  0.5345270000000 1.0
C      1  0.5664140000000  0.5385110000000  0.5179430000000 1.0
C      1  0.4876700000000  0.5374980000000  0.4405010000000 1.0
C      1  0.5194200000000  0.5661850000000  0.5185380000000 1.0
C      1  0.5082200000000  0.5710470000000  0.4791520000000 1.0
C      1  0.4678560000000  0.5697200000000  0.5049380000000 1.0
C      1  0.4778620000000  0.4473890000000  0.4467020000000 1.0
C      1  0.4701480000000  0.4547820000000  0.5441110000000 1.0
C      1  0.5591790000000  0.4505640000000  0.5094190000000 1.0
C      1  0.5789860000000  0.5082150000000  0.5266420000000 1.0
C      1  0.4883390000000  0.5046750000000  0.4348460000000 1.0
C      1  0.4429990000000  0.5070740000000  0.5432230000000 1.0
C      1  0.4588220000000  0.4677600000000  0.5672050000000 1.0
C      1  0.5839100000000  0.4643550000000  0.5027440000000 1.0
C      1  0.4631380000000  0.4638630000000  0.4280310000000 1.0
C      1  0.5060390000000  0.5387420000000  0.5440520000000 1.0
C      1  0.5408110000000  0.5286080000000  0.4725110000000 1.0
C      1  0.4504780000000  0.5411160000000  0.4835050000000 1.0
C      1  0.4252950000000  0.5015870000000  0.4859670000000 1.0
C      1  0.5181980000000  0.4970040000000  0.5661690000000 1.0
C      1  0.5479810000000  0.4970680000000  0.4491130000000 1.0
C      1  0.4805780000000  0.5983660000000  0.5070240000000 1.0
C      1  0.5114010000000  0.5957630000000  0.5160580000000 1.0
C      1  0.5045360000000  0.6019730000000  0.4853170000000 1.0
C      1  0.5307420000000  0.5550650000000  0.4365250000000 1.0
C      1  0.3928970000000  0.5618120000000  0.5218850000000 1.0
C      1  0.5629070000000  0.5596350000000  0.5680830000000 1.0
END
