TITL C-3289332-8317-555 -0.0080106766101661 125000 -288.562336723233 0 0 57 (C1) n - 1
REM
REM in /nfs/bkarasulu/CARBON/AIRSS/Generating-Clusters/AIREBO/with-SteepDescent/Higher-Symm/SD-CG/HFTN-CG
REM
REM
REM
REM
REM
REM ./C.cell (b20cbc046b6831c77cfcea5457e17084)
REM
REM compiler GCC version 9.2.1 20190827 (Red Hat 9.2.1-1)
REM options -cpp -mtune=generic -march=x86-64 -g -O0 -fpre-include=/usr/include/finclude/math-vector-fortran.h
REM seed -1273332581 1655195911 2072985777 -847313318 1192840135 794518261 752323240 1270648443 1339569701 -102299019 1076499160 483366367 1174817363 423628271 -1123024754 811348493 188723449 2027825531 784549371 -1196989043 1288992837 -474652206 -525957576 -449306982 82492080 -2099615439 -2018738210 -374991538 -723713044 -1057983383 -1842648947 -2023486877 2047744060
REM
CELL 1.54180   50.00000   50.00000   50.00000   90.00000   90.00000   90.00000
LATT -1
SFAC C  
C      1  0.4864860000000  0.4794180000000  0.4162320000000 1.0
C      1  0.5166760000000  0.5212830000000  0.4178010000000 1.0
C      1  0.4866270000000  0.5132420000000  0.4148200000000 1.0
C      1  0.5166920000000  0.4874240000000  0.4163570000000 1.0
C      1  0.4663810000000  0.5289980000000  0.5431060000000 1.0
C      1  0.5187210000000  0.4652140000000  0.5374480000000 1.0
C      1  0.4628230000000  0.4697620000000  0.5449470000000 1.0
C      1  0.5216020000000  0.5340400000000  0.5332540000000 1.0
C      1  0.5358590000000  0.5407460000000  0.4966290000000 1.0
C      1  0.4602690000000  0.4627190000000  0.4942560000000 1.0
C      1  0.5329550000000  0.4593980000000  0.4994680000000 1.0
C      1  0.4639780000000  0.5414790000000  0.4972580000000 1.0
C      1  0.4874620000000  0.4713900000000  0.5672670000000 1.0
C      1  0.5252130000000  0.5264150000000  0.5650660000000 1.0
C      1  0.4802340000000  0.5252320000000  0.5738990000000 1.0
C      1  0.5275740000000  0.4767510000000  0.5681820000000 1.0
C      1  0.5213010000000  0.4761390000000  0.4715860000000 1.0
C      1  0.4761440000000  0.5253650000000  0.4691380000000 1.0
C      1  0.5227580000000  0.5235140000000  0.4698650000000 1.0
C      1  0.4750000000000  0.4779660000000  0.4672550000000 1.0
C      1  0.5354230000000  0.5139510000000  0.4442570000000 1.0
C      1  0.4651100000000  0.4869510000000  0.4405320000000 1.0
C      1  0.5360000000000  0.4830810000000  0.4464160000000 1.0
C      1  0.4641350000000  0.5178080000000  0.4425440000000 1.0
C      1  0.5338910000000  0.4442690000000  0.5595210000000 1.0
C      1  0.4836240000000  0.5548200000000  0.5569590000000 1.0
C      1  0.5234520000000  0.5592860000000  0.5550070000000 1.0
C      1  0.4823230000000  0.4421240000000  0.5484160000000 1.0
C      1  0.5240790000000  0.5567650000000  0.4707540000000 1.0
C      1  0.4735730000000  0.4450170000000  0.4701480000000 1.0
C      1  0.5186250000000  0.4432960000000  0.4746890000000 1.0
C      1  0.4740950000000  0.5583540000000  0.4719340000000 1.0
C      1  0.4610630000000  0.5324720000000  0.4142590000000 1.0
C      1  0.5422020000000  0.4682460000000  0.4187530000000 1.0
C      1  0.4558130000000  0.4700340000000  0.4133110000000 1.0
C      1  0.5474890000000  0.5306720000000  0.4180320000000 1.0
C      1  0.5507940000000  0.5120370000000  0.4983240000000 1.0
C      1  0.4430730000000  0.4905880000000  0.4930510000000 1.0
C      1  0.5493960000000  0.4874720000000  0.4976670000000 1.0
C      1  0.4441320000000  0.5153030000000  0.4945310000000 1.0
C      1  0.4690220000000  0.5576660000000  0.5250160000000 1.0
C      1  0.5338310000000  0.4389340000000  0.5246110000000 1.0
C      1  0.4627250000000  0.4476480000000  0.5205310000000 1.0
C      1  0.5334870000000  0.5622410000000  0.5214470000000 1.0
C      1  0.5028670000000  0.5710890000000  0.4634410000000 1.0
C      1  0.4963200000000  0.4306360000000  0.4654550000000 1.0
C      1  0.4775300000000  0.5874900000000  0.4546980000000 1.0
C      1  0.4966520000000  0.4068190000000  0.4530090000000 1.0
C      1  0.5010590000000  0.5681580000000  0.5310010000000 1.0
C      1  0.5083130000000  0.4275820000000  0.5445730000000 1.0
C      1  0.4910760000000  0.4741430000000  0.5265330000000 1.0
C      1  0.4937670000000  0.5269270000000  0.5230610000000 1.0
C      1  0.4948670000000  0.4998510000000  0.5066930000000 1.0
C      1  0.5010910000000  0.5006880000000  0.5400910000000 1.0
C      1  0.5038500000000  0.5008430000000  0.5718940000000 1.0
C      1  0.5095160000000  0.5002110000000  0.6032170000000 1.0
C      1  0.4983200000000  0.5007370000000  0.4770540000000 1.0
END
