TITL C-3289323-3850-685 -0.00293319299853025 125000 -985.245932332713 0 0 183 (C1) n - 1
REM
REM in /nfs/bkarasulu/CARBON/AIRSS/Generating-Clusters/AIREBO/with-SteepDescent/Higher-Symm/SD-CG/HFTN-CG
REM
REM
REM
REM
REM
REM ./C.cell (b20cbc046b6831c77cfcea5457e17084)
REM
REM compiler GCC version 9.2.1 20190827 (Red Hat 9.2.1-1)
REM options -cpp -mtune=generic -march=x86-64 -g -O0 -fpre-include=/usr/include/finclude/math-vector-fortran.h
REM seed 618532584 -696818138 -1536643465 -1351842830 -866351324 1048638274 1810654507 387748309 -1131401590 -672387630 370098419 1435247793 817839074 -1707190150 343678477 -1050259968 -910584471 -779805209 546109951 -114298527 310860729 -2024634070 -159781471 -723679236 928420559 -515193525 -625029562 126517537 1297904268 509288589 560352506 -816862075 -1334274573
REM
CELL 1.54180   50.00000   50.00000   50.00000   90.00000   90.00000   90.00000
LATT -1
SFAC C  
C      1  0.4864730000000  0.4057940000000  0.4788730000000 1.0
C      1  0.4819210000000  0.5950150000000  0.5276380000000 1.0
C      1  0.5171570000000  0.4019100000000  0.4747180000000 1.0
C      1  0.5131120000000  0.5927900000000  0.5217480000000 1.0
C      1  0.5562970000000  0.5017880000000  0.4071370000000 1.0
C      1  0.5644580000000  0.5159700000000  0.5861230000000 1.0
C      1  0.4342180000000  0.4789860000000  0.4166880000000 1.0
C      1  0.4457740000000  0.4989230000000  0.5917600000000 1.0
C      1  0.4777480000000  0.5134640000000  0.4254650000000 1.0
C      1  0.4666860000000  0.4854000000000  0.5709420000000 1.0
C      1  0.5305110000000  0.5187780000000  0.4213700000000 1.0
C      1  0.5220370000000  0.4897020000000  0.5738960000000 1.0
C      1  0.4294230000000  0.4197030000000  0.4905000000000 1.0
C      1  0.4300220000000  0.5839770000000  0.4951200000000 1.0
C      1  0.5656500000000  0.4069390000000  0.5128160000000 1.0
C      1  0.5703340000000  0.5800280000000  0.4887250000000 1.0
C      1  0.5108090000000  0.4798490000000  0.5265670000000 1.0
C      1  0.5228450000000  0.5237300000000  0.4680150000000 1.0
C      1  0.4843810000000  0.4713310000000  0.5135350000000 1.0
C      1  0.4965820000000  0.5283900000000  0.4864880000000 1.0
C      1  0.5901800000000  0.5550920000000  0.5415290000000 1.0
C      1  0.5930030000000  0.4322550000000  0.4729380000000 1.0
C      1  0.4105270000000  0.5647630000000  0.5396630000000 1.0
C      1  0.4110500000000  0.4511870000000  0.4603970000000 1.0
C      1  0.5773020000000  0.5533650000000  0.4687960000000 1.0
C      1  0.5801950000000  0.4533470000000  0.5387840000000 1.0
C      1  0.4144510000000  0.5448350000000  0.4706970000000 1.0
C      1  0.4230270000000  0.4346780000000  0.5171170000000 1.0
C      1  0.5110980000000  0.5523650000000  0.4604910000000 1.0
C      1  0.5205830000000  0.4521480000000  0.5392110000000 1.0
C      1  0.4771520000000  0.5504080000000  0.4620010000000 1.0
C      1  0.4854850000000  0.4475140000000  0.5369980000000 1.0
C      1  0.4601120000000  0.4181970000000  0.4946890000000 1.0
C      1  0.4533930000000  0.5893010000000  0.5089010000000 1.0
C      1  0.5441490000000  0.4039940000000  0.4957930000000 1.0
C      1  0.5417970000000  0.5836920000000  0.5047540000000 1.0
C      1  0.4559530000000  0.5121050000000  0.4701240000000 1.0
C      1  0.4489370000000  0.4968730000000  0.5374230000000 1.0
C      1  0.5590760000000  0.5104600000000  0.4587110000000 1.0
C      1  0.5485330000000  0.4918020000000  0.5323430000000 1.0
C      1  0.5232180000000  0.5387900000000  0.5551190000000 1.0
C      1  0.5180540000000  0.4424780000000  0.4322380000000 1.0
C      1  0.4808320000000  0.5426460000000  0.5679010000000 1.0
C      1  0.4892430000000  0.4563700000000  0.4405590000000 1.0
C      1  0.5509930000000  0.5223300000000  0.5315260000000 1.0
C      1  0.5544800000000  0.4792550000000  0.4628790000000 1.0
C      1  0.4397660000000  0.5260770000000  0.5369990000000 1.0
C      1  0.4502830000000  0.4828560000000  0.4642160000000 1.0
C      1  0.4297200000000  0.5046710000000  0.4084310000000 1.0
C      1  0.4125880000000  0.4933750000000  0.5966610000000 1.0
C      1  0.5857100000000  0.5165830000000  0.4156230000000 1.0
C      1  0.5877350000000  0.4926360000000  0.5857530000000 1.0
C      1  0.5721290000000  0.4741540000000  0.5618380000000 1.0
C      1  0.5862600000000  0.5287830000000  0.4470610000000 1.0
C      1  0.4126720000000  0.4783990000000  0.5657580000000 1.0
C      1  0.4278410000000  0.5266110000000  0.4322910000000 1.0
C      1  0.5535270000000  0.5879070000000  0.4595200000000 1.0
C      1  0.5502250000000  0.4103730000000  0.5429480000000 1.0
C      1  0.4316000000000  0.5866350000000  0.4612540000000 1.0
C      1  0.4494660000000  0.4124180000000  0.5414290000000 1.0
C      1  0.3810760000000  0.5133230000000  0.5372470000000 1.0
C      1  0.4045460000000  0.4605080000000  0.4876120000000 1.0
C      1  0.5956990000000  0.5448460000000  0.5148210000000 1.0
C      1  0.6066860000000  0.4569770000000  0.4722170000000 1.0
C      1  0.6022420000000  0.5379570000000  0.4866780000000 1.0
C      1  0.5891440000000  0.4517700000000  0.5076040000000 1.0
C      1  0.4027600000000  0.5416060000000  0.4987680000000 1.0
C      1  0.3975190000000  0.4529760000000  0.5172820000000 1.0
C      1  0.5462680000000  0.4509960000000  0.5003790000000 1.0
C      1  0.5452300000000  0.5512430000000  0.5004290000000 1.0
C      1  0.4546960000000  0.4496280000000  0.4982960000000 1.0
C      1  0.4538690000000  0.5510830000000  0.4971420000000 1.0
C      1  0.5102030000000  0.4601420000000  0.5767930000000 1.0
C      1  0.5136920000000  0.5469980000000  0.4210520000000 1.0
C      1  0.4836440000000  0.4600680000000  0.5748920000000 1.0
C      1  0.4870680000000  0.5451470000000  0.4237870000000 1.0
C      1  0.4214310000000  0.5391100000000  0.5575760000000 1.0
C      1  0.4265650000000  0.4739310000000  0.4449550000000 1.0
C      1  0.5698990000000  0.5324690000000  0.5568940000000 1.0
C      1  0.5650560000000  0.4621210000000  0.4382630000000 1.0
C      1  0.5435150000000  0.5575830000000  0.4694910000000 1.0
C      1  0.5507380000000  0.4404770000000  0.5286560000000 1.0
C      1  0.4445650000000  0.5576800000000  0.4687200000000 1.0
C      1  0.4519240000000  0.4449680000000  0.5318680000000 1.0
C      1  0.5991230000000  0.4978090000000  0.5218910000000 1.0
C      1  0.5950860000000  0.4964990000000  0.4684350000000 1.0
C      1  0.4112310000000  0.4892090000000  0.5271030000000 1.0
C      1  0.4035990000000  0.5049770000000  0.4827880000000 1.0
C      1  0.5869640000000  0.4208450000000  0.5010770000000 1.0
C      1  0.5791290000000  0.5801650000000  0.5213570000000 1.0
C      1  0.4260380000000  0.4276700000000  0.4625370000000 1.0
C      1  0.4110650000000  0.5684010000000  0.5120470000000 1.0
C      1  0.5558240000000  0.4848180000000  0.5966600000000 1.0
C      1  0.5663220000000  0.5328870000000  0.3969180000000 1.0
C      1  0.4323300000000  0.4681920000000  0.5989880000000 1.0
C      1  0.4500730000000  0.5260710000000  0.3995950000000 1.0
C      1  0.5139440000000  0.5073720000000  0.5459280000000 1.0
C      1  0.5208770000000  0.5007760000000  0.4472480000000 1.0
C      1  0.4826820000000  0.5111730000000  0.5555390000000 1.0
C      1  0.4921240000000  0.4902230000000  0.4400340000000 1.0
C      1  0.5371260000000  0.4795010000000  0.5070950000000 1.0
C      1  0.5440360000000  0.5075110000000  0.4890890000000 1.0
C      1  0.4630620000000  0.4917550000000  0.5110100000000 1.0
C      1  0.4688510000000  0.5215670000000  0.4975990000000 1.0
C      1  0.5149640000000  0.4703920000000  0.4130620000000 1.0
C      1  0.5132190000000  0.5267060000000  0.5851080000000 1.0
C      1  0.4834750000000  0.4781050000000  0.4015760000000 1.0
C      1  0.4841210000000  0.5311480000000  0.5997330000000 1.0
C      1  0.5556010000000  0.5622810000000  0.5671920000000 1.0
C      1  0.5748940000000  0.4322660000000  0.4505830000000 1.0
C      1  0.4398550000000  0.5480610000000  0.5796340000000 1.0
C      1  0.4540210000000  0.4348770000000  0.4180770000000 1.0
C      1  0.5034710000000  0.5123370000000  0.6204200000000 1.0
C      1  0.4777360000000  0.5102680000000  0.3921280000000 1.0
C      1  0.5283270000000  0.5019600000000  0.6034710000000 1.0
C      1  0.5087340000000  0.5015970000000  0.4030790000000 1.0
C      1  0.4831720000000  0.4829760000000  0.4697690000000 1.0
C      1  0.4719350000000  0.5286540000000  0.5315240000000 1.0
C      1  0.5224310000000  0.4759060000000  0.4703870000000 1.0
C      1  0.5224960000000  0.5159010000000  0.5140990000000 1.0
C      1  0.4401280000000  0.4305490000000  0.5672330000000 1.0
C      1  0.4440460000000  0.5748650000000  0.4326900000000 1.0
C      1  0.5581680000000  0.4330000000000  0.5671880000000 1.0
C      1  0.5565770000000  0.5689080000000  0.4314830000000 1.0
C      1  0.3839430000000  0.5163840000000  0.5073700000000 1.0
C      1  0.3817030000000  0.4826320000000  0.5115840000000 1.0
C      1  0.6186940000000  0.5082450000000  0.4886870000000 1.0
C      1  0.6112330000000  0.4761760000000  0.4986110000000 1.0
C      1  0.4351510000000  0.4685900000000  0.4871070000000 1.0
C      1  0.4316190000000  0.5317570000000  0.5079700000000 1.0
C      1  0.5706110000000  0.4691580000000  0.4883560000000 1.0
C      1  0.5686270000000  0.5327320000000  0.5075950000000 1.0
C      1  0.4535100000000  0.5278030000000  0.5941860000000 1.0
C      1  0.4555260000000  0.4635960000000  0.4080420000000 1.0
C      1  0.5449580000000  0.5384230000000  0.5885270000000 1.0
C      1  0.5489480000000  0.4723790000000  0.4133360000000 1.0
C      1  0.5547330000000  0.4145110000000  0.4502260000000 1.0
C      1  0.5579680000000  0.5787000000000  0.5412410000000 1.0
C      1  0.4487380000000  0.4273160000000  0.4454430000000 1.0
C      1  0.4532130000000  0.5710050000000  0.5717950000000 1.0
C      1  0.5144030000000  0.5489200000000  0.5146550000000 1.0
C      1  0.5182540000000  0.4447920000000  0.4834840000000 1.0
C      1  0.4819120000000  0.5569180000000  0.5154730000000 1.0
C      1  0.4854720000000  0.4537640000000  0.4844400000000 1.0
C      1  0.6058750000000  0.4713840000000  0.5379100000000 1.0
C      1  0.6168030000000  0.5198610000000  0.4566530000000 1.0
C      1  0.3883180000000  0.4701750000000  0.5435020000000 1.0
C      1  0.4063950000000  0.5217790000000  0.4525510000000 1.0
C      1  0.4963930000000  0.5654760000000  0.5833580000000 1.0
C      1  0.4837210000000  0.4360110000000  0.4136680000000 1.0
C      1  0.5244400000000  0.5640160000000  0.5779180000000 1.0
C      1  0.5093800000000  0.4255250000000  0.4040680000000 1.0
C      1  0.4372170000000  0.5533910000000  0.4153580000000 1.0
C      1  0.4235640000000  0.4486760000000  0.5781980000000 1.0
C      1  0.5634320000000  0.5590880000000  0.4018160000000 1.0
C      1  0.5657460000000  0.4533870000000  0.5880030000000 1.0
C      1  0.5282940000000  0.5677130000000  0.5384890000000 1.0
C      1  0.5269680000000  0.4270770000000  0.4557620000000 1.0
C      1  0.4749630000000  0.5685730000000  0.5466580000000 1.0
C      1  0.4751970000000  0.4320620000000  0.4603640000000 1.0
C      1  0.4726210000000  0.4333420000000  0.5651040000000 1.0
C      1  0.4736070000000  0.5726890000000  0.4374030000000 1.0
C      1  0.5246500000000  0.4313210000000  0.5653240000000 1.0
C      1  0.5252570000000  0.5718790000000  0.4365120000000 1.0
C      1  0.5404010000000  0.4747620000000  0.5550990000000 1.0
C      1  0.5546120000000  0.5366130000000  0.4374050000000 1.0
C      1  0.4426690000000  0.4713210000000  0.5513900000000 1.0
C      1  0.4575890000000  0.5285000000000  0.4448450000000 1.0
C      1  0.4831610000000  0.4083870000000  0.5445210000000 1.0
C      1  0.4875510000000  0.5887900000000  0.4618400000000 1.0
C      1  0.5163720000000  0.4126430000000  0.5380680000000 1.0
C      1  0.5204100000000  0.5971170000000  0.4579550000000 1.0
C      1  0.4012320000000  0.4894410000000  0.4540660000000 1.0
C      1  0.4070500000000  0.5101250000000  0.5534120000000 1.0
C      1  0.5935220000000  0.4722890000000  0.4507120000000 1.0
C      1  0.5868010000000  0.5033220000000  0.5522440000000 1.0
C      1  0.5163540000000  0.5935670000000  0.4888890000000 1.0
C      1  0.5150430000000  0.4182530000000  0.5045330000000 1.0
C      1  0.4842280000000  0.5844200000000  0.4954080000000 1.0
C      1  0.4844600000000  0.4086770000000  0.5126910000000 1.0
C      1  0.5766960000000  0.5015850000000  0.4965880000000 1.0
C      1  0.4309630000000  0.4983180000000  0.5018510000000 1.0
C      1  0.5051550000000  0.4972480000000  0.4915180000000 1.0
END
