TITL C-3289327-5623-63 -0.00127916466359248 125000 -771.7579309934 0 0 139 (C1) n - 1
REM
REM in /nfs/bkarasulu/CARBON/AIRSS/Generating-Clusters/AIREBO/with-SteepDescent/Higher-Symm/SD-CG/HFTN-CG
REM
REM
REM
REM
REM
REM ./C.cell (b20cbc046b6831c77cfcea5457e17084)
REM
REM compiler GCC version 9.2.1 20190827 (Red Hat 9.2.1-1)
REM options -cpp -mtune=generic -march=x86-64 -g -O0 -fpre-include=/usr/include/finclude/math-vector-fortran.h
REM seed -561979337 -778440992 -2147324974 -1738658920 -549472153 530037822 128382527 1799777082 -518952606 -1371230584 -1310240465 -59722848 -2028741096 949944644 -367047994 -580607648 112315798 753901921 279398458 -613616695 -1659374220 -71093582 28113499 501543118 -1078990880 -1222043998 -598005797 1045103879 2098815205 -2110146854 -1293054433 1171807459 -944068442
REM
CELL 1.54180   50.00000   50.00000   50.00000   90.00000   90.00000   90.00000
LATT -1
SFAC C  
C      1  0.4758240000000  0.5480540000000  0.5301360000000 1.0
C      1  0.4815530000000  0.4405700000000  0.4834910000000 1.0
C      1  0.5362160000000  0.4603010000000  0.5388790000000 1.0
C      1  0.5162950000000  0.5648490000000  0.4796190000000 1.0
C      1  0.4662030000000  0.5204160000000  0.5570880000000 1.0
C      1  0.4752060000000  0.4745760000000  0.4453470000000 1.0
C      1  0.5364440000000  0.5199610000000  0.4429430000000 1.0
C      1  0.5166060000000  0.4769860000000  0.5611120000000 1.0
C      1  0.4586610000000  0.4633060000000  0.4121480000000 1.0
C      1  0.4606830000000  0.5336310000000  0.5935690000000 1.0
C      1  0.5457250000000  0.5394950000000  0.4097950000000 1.0
C      1  0.5516270000000  0.4660360000000  0.5765300000000 1.0
C      1  0.4512020000000  0.4269000000000  0.4619350000000 1.0
C      1  0.4497880000000  0.5783070000000  0.5281520000000 1.0
C      1  0.5450010000000  0.4227950000000  0.5292580000000 1.0
C      1  0.5487830000000  0.5756040000000  0.4542490000000 1.0
C      1  0.6043960000000  0.5352970000000  0.5061600000000 1.0
C      1  0.5995520000000  0.4695780000000  0.4870920000000 1.0
C      1  0.4003820000000  0.4741160000000  0.5061580000000 1.0
C      1  0.4026130000000  0.5404220000000  0.4863360000000 1.0
C      1  0.5983120000000  0.5190450000000  0.5278110000000 1.0
C      1  0.5896810000000  0.4850010000000  0.4674070000000 1.0
C      1  0.4008510000000  0.5179220000000  0.4657320000000 1.0
C      1  0.4072520000000  0.4898380000000  0.5283630000000 1.0
C      1  0.5581560000000  0.4976630000000  0.4688510000000 1.0
C      1  0.5644660000000  0.5163650000000  0.5296800000000 1.0
C      1  0.4271180000000  0.4968750000000  0.4870570000000 1.0
C      1  0.4371690000000  0.4886010000000  0.5414270000000 1.0
C      1  0.5596260000000  0.4702310000000  0.4888910000000 1.0
C      1  0.5565570000000  0.5421910000000  0.5090230000000 1.0
C      1  0.4397070000000  0.4692510000000  0.5023960000000 1.0
C      1  0.4344360000000  0.5290690000000  0.4901810000000 1.0
C      1  0.4913360000000  0.4361400000000  0.5305370000000 1.0
C      1  0.4880920000000  0.5621090000000  0.4916540000000 1.0
C      1  0.5162540000000  0.5753180000000  0.5229640000000 1.0
C      1  0.5104910000000  0.4349030000000  0.4954900000000 1.0
C      1  0.4884650000000  0.5033920000000  0.4171060000000 1.0
C      1  0.4880360000000  0.4878900000000  0.5711000000000 1.0
C      1  0.5182110000000  0.5198760000000  0.5663570000000 1.0
C      1  0.5061490000000  0.4848590000000  0.4358550000000 1.0
C      1  0.5170410000000  0.3914880000000  0.4943200000000 1.0
C      1  0.5210610000000  0.6108260000000  0.5042460000000 1.0
C      1  0.4815290000000  0.6097910000000  0.5062430000000 1.0
C      1  0.4806280000000  0.4129330000000  0.5131960000000 1.0
C      1  0.5322190000000  0.4960050000000  0.3959150000000 1.0
C      1  0.5124010000000  0.5133130000000  0.5996840000000 1.0
C      1  0.4856280000000  0.4840800000000  0.6047670000000 1.0
C      1  0.4545850000000  0.5022310000000  0.3810960000000 1.0
C      1  0.4579050000000  0.5263030000000  0.5111060000000 1.0
C      1  0.4682730000000  0.4692930000000  0.4921600000000 1.0
C      1  0.5354610000000  0.4731080000000  0.5093290000000 1.0
C      1  0.5290840000000  0.5377540000000  0.4941860000000 1.0
C      1  0.4613680000000  0.5047100000000  0.5320740000000 1.0
C      1  0.4701930000000  0.4914220000000  0.4707420000000 1.0
C      1  0.5310820000000  0.5138250000000  0.4732680000000 1.0
C      1  0.5383450000000  0.4984870000000  0.5280760000000 1.0
C      1  0.5091800000000  0.4147540000000  0.4523320000000 1.0
C      1  0.5213790000000  0.5810510000000  0.5621880000000 1.0
C      1  0.4890630000000  0.5821330000000  0.4420740000000 1.0
C      1  0.4838180000000  0.4208410000000  0.5596380000000 1.0
C      1  0.5141760000000  0.4518120000000  0.4075320000000 1.0
C      1  0.5149680000000  0.5507540000000  0.5771100000000 1.0
C      1  0.4928460000000  0.4400370000000  0.5858250000000 1.0
C      1  0.4915000000000  0.5306260000000  0.4219680000000 1.0
C      1  0.5231610000000  0.4469470000000  0.5741360000000 1.0
C      1  0.5183140000000  0.5428070000000  0.4296720000000 1.0
C      1  0.4826210000000  0.5453180000000  0.5703470000000 1.0
C      1  0.4878040000000  0.4514700000000  0.4238120000000 1.0
C      1  0.5171480000000  0.5680650000000  0.4480340000000 1.0
C      1  0.5194140000000  0.4320140000000  0.5454250000000 1.0
C      1  0.4943340000000  0.5680530000000  0.5479290000000 1.0
C      1  0.4828580000000  0.4322570000000  0.4505160000000 1.0
C      1  0.4799500000000  0.5368500000000  0.4920880000000 1.0
C      1  0.4891680000000  0.4647050000000  0.5180090000000 1.0
C      1  0.5104030000000  0.4680050000000  0.4923760000000 1.0
C      1  0.5079150000000  0.5423910000000  0.5204180000000 1.0
C      1  0.4872020000000  0.4891810000000  0.5371340000000 1.0
C      1  0.4915190000000  0.5136010000000  0.4783530000000 1.0
C      1  0.5098720000000  0.4875830000000  0.4690390000000 1.0
C      1  0.5114310000000  0.5130390000000  0.5372420000000 1.0
C      1  0.5430030000000  0.5214390000000  0.3891710000000 1.0
C      1  0.4889990000000  0.4579610000000  0.6112460000000 1.0
C      1  0.5205060000000  0.4713540000000  0.3873420000000 1.0
C      1  0.4843450000000  0.5146350000000  0.6081690000000 1.0
C      1  0.4950210000000  0.3902410000000  0.5112640000000 1.0
C      1  0.4995640000000  0.6262630000000  0.4865460000000 1.0
C      1  0.5115270000000  0.3907040000000  0.4666370000000 1.0
C      1  0.5016480000000  0.6051990000000  0.5294240000000 1.0
C      1  0.4388390000000  0.4193040000000  0.5165520000000 1.0
C      1  0.4416660000000  0.5683780000000  0.4905570000000 1.0
C      1  0.5662520000000  0.5783520000000  0.4956970000000 1.0
C      1  0.5575800000000  0.4179480000000  0.4810650000000 1.0
C      1  0.4422220000000  0.5075820000000  0.4287650000000 1.0
C      1  0.4372790000000  0.4820880000000  0.5808070000000 1.0
C      1  0.5634650000000  0.5113790000000  0.5808560000000 1.0
C      1  0.5611030000000  0.4820730000000  0.4322610000000 1.0
C      1  0.5670090000000  0.4470220000000  0.5328090000000 1.0
C      1  0.5692540000000  0.5565750000000  0.4569840000000 1.0
C      1  0.4430560000000  0.5502980000000  0.5391890000000 1.0
C      1  0.4317290000000  0.4473730000000  0.4593050000000 1.0
C      1  0.5654930000000  0.5341500000000  0.4372320000000 1.0
C      1  0.5715580000000  0.4692750000000  0.5551850000000 1.0
C      1  0.4367130000000  0.5324250000000  0.5661990000000 1.0
C      1  0.4417950000000  0.4697110000000  0.4409110000000 1.0
C      1  0.5468250000000  0.5510410000000  0.5661250000000 1.0
C      1  0.5367370000000  0.4406770000000  0.4203240000000 1.0
C      1  0.4602620000000  0.4388950000000  0.5746570000000 1.0
C      1  0.4695570000000  0.5396510000000  0.4349400000000 1.0
C      1  0.5492430000000  0.5757850000000  0.5501520000000 1.0
C      1  0.5327660000000  0.4286580000000  0.4475990000000 1.0
C      1  0.4664680000000  0.5670520000000  0.4438370000000 1.0
C      1  0.4546500000000  0.4272270000000  0.5434990000000 1.0
C      1  0.4157750000000  0.5096620000000  0.5547810000000 1.0
C      1  0.4237100000000  0.4953390000000  0.4537180000000 1.0
C      1  0.5839030000000  0.4919800000000  0.5432670000000 1.0
C      1  0.5796910000000  0.5061570000000  0.4432670000000 1.0
C      1  0.4230710000000  0.5527490000000  0.5117810000000 1.0
C      1  0.4175350000000  0.4589360000000  0.4808300000000 1.0
C      1  0.5808370000000  0.5499030000000  0.4864530000000 1.0
C      1  0.5833370000000  0.4546660000000  0.5076430000000 1.0
C      1  0.5598720000000  0.4549040000000  0.4357750000000 1.0
C      1  0.5630190000000  0.5297530000000  0.5609220000000 1.0
C      1  0.4563230000000  0.5181270000000  0.4568290000000 1.0
C      1  0.4413730000000  0.4610890000000  0.5595190000000 1.0
C      1  0.5554690000000  0.4456130000000  0.4666020000000 1.0
C      1  0.5590540000000  0.5717280000000  0.5254810000000 1.0
C      1  0.4373220000000  0.4515040000000  0.5271170000000 1.0
C      1  0.4482770000000  0.5496310000000  0.4668080000000 1.0
C      1  0.5351280000000  0.5844490000000  0.4961950000000 1.0
C      1  0.5351100000000  0.4154690000000  0.5016290000000 1.0
C      1  0.4575410000000  0.4180410000000  0.4919890000000 1.0
C      1  0.4673140000000  0.5841470000000  0.5013740000000 1.0
C      1  0.5356220000000  0.4954600000000  0.5824010000000 1.0
C      1  0.5343040000000  0.4939700000000  0.4261390000000 1.0
C      1  0.4604940000000  0.4947440000000  0.4076210000000 1.0
C      1  0.4582350000000  0.5006130000000  0.5814920000000 1.0
C      1  0.5752310000000  0.4960410000000  0.5046160000000 1.0
C      1  0.3943570000000  0.4908980000000  0.4801610000000 1.0
C      1  0.5071950000000  0.5059570000000  0.5042930000000 1.0
END
