TITL C-3289334-2237-597 -6.32110277830539e-05 125000 -264.804204071929 0 0 50 (S4) n - 1
REM
REM in /nfs/bkarasulu/CARBON/AIRSS/Generating-Clusters/AIREBO/with-SteepDescent/Higher-Symm/SD-CG/HFTN-CG
REM
REM
REM
REM
REM
REM ./C.cell (b20cbc046b6831c77cfcea5457e17084)
REM
REM compiler GCC version 9.2.1 20190827 (Red Hat 9.2.1-1)
REM options -cpp -mtune=generic -march=x86-64 -g -O0 -fpre-include=/usr/include/finclude/math-vector-fortran.h
REM seed -1857177921 -343767890 -1378447671 -1247953658 1553124412 1130749567 -309427580 -516595030 -2098124 1871565521 -411363220 -1692436325 1020041616 -980531772 -1162696135 791806834 -520423635 -478058200 -426289840 1629325708 -954117216 -1458241936 1285417382 -1506444148 -700117756 227404884 1877082160 -1413164420 1383339704 -379460175 -1027907735 -1383829470 -881622916
REM
CELL 1.54180   50.00000   50.00000   50.00000   90.00000   90.00000   90.00000
LATT -1
SFAC C  
C      1  0.5518370000000  0.5293140000000  0.4455710000000 1.0
C      1  0.5302790000000  0.4480060000000  0.5544350000000 1.0
C      1  0.4489800000000  0.4695580000000  0.4455620000000 1.0
C      1  0.4705220000000  0.5508640000000  0.5544320000000 1.0
C      1  0.4509000000000  0.5156200000000  0.4686240000000 1.0
C      1  0.5165860000000  0.5489420000000  0.5313730000000 1.0
C      1  0.5499140000000  0.4832520000000  0.4686320000000 1.0
C      1  0.4842180000000  0.4499280000000  0.5313710000000 1.0
C      1  0.4554250000000  0.4934800000000  0.5426780000000 1.0
C      1  0.4944520000000  0.5444130000000  0.4573180000000 1.0
C      1  0.5453780000000  0.5053910000000  0.5426850000000 1.0
C      1  0.5063630000000  0.4544600000000  0.4573190000000 1.0
C      1  0.4884270000000  0.5209160000000  0.5349590000000 1.0
C      1  0.5218880000000  0.5114110000000  0.4650450000000 1.0
C      1  0.5123770000000  0.4779540000000  0.5349580000000 1.0
C      1  0.4789270000000  0.4874610000000  0.4650390000000 1.0
C      1  0.5444350000000  0.4728650000000  0.5395900000000 1.0
C      1  0.4738370000000  0.4554020000000  0.4604100000000 1.0
C      1  0.4563670000000  0.5260050000000  0.5395840000000 1.0
C      1  0.5269770000000  0.5434700000000  0.4604150000000 1.0
C      1  0.4907880000000  0.4877790000000  0.4030290000000 1.0
C      1  0.4887400000000  0.5090590000000  0.5969700000000 1.0
C      1  0.5099630000000  0.5110010000000  0.4031290000000 1.0
C      1  0.5119620000000  0.4898840000000  0.5968730000000 1.0
C      1  0.4630510000000  0.5454930000000  0.4712910000000 1.0
C      1  0.5464590000000  0.5367910000000  0.5287100000000 1.0
C      1  0.5377630000000  0.4533790000000  0.4712970000000 1.0
C      1  0.4543450000000  0.4620790000000  0.5287020000000 1.0
C      1  0.5120490000000  0.4458440000000  0.4890070000000 1.0
C      1  0.4468120000000  0.4877920000000  0.5109900000000 1.0
C      1  0.4887610000000  0.5530270000000  0.4890050000000 1.0
C      1  0.5539950000000  0.5110790000000  0.5109980000000 1.0
C      1  0.5619020000000  0.4674820000000  0.5139740000000 1.0
C      1  0.4684510000000  0.4379370000000  0.4860270000000 1.0
C      1  0.4389050000000  0.5313890000000  0.5139650000000 1.0
C      1  0.5323590000000  0.5609340000000  0.4860330000000 1.0
C      1  0.5167150000000  0.5193540000000  0.5481830000000 1.0
C      1  0.5203260000000  0.4831220000000  0.4518220000000 1.0
C      1  0.4840860000000  0.4795170000000  0.5481780000000 1.0
C      1  0.4804900000000  0.5157510000000  0.4518170000000 1.0
C      1  0.5597850000000  0.4889380000000  0.4965980000000 1.0
C      1  0.4899060000000  0.4400550000000  0.5034050000000 1.0
C      1  0.4410250000000  0.5099330000000  0.4965890000000 1.0
C      1  0.5109020000000  0.5588160000000  0.5034080000000 1.0
C      1  0.4408970000000  0.4930770000000  0.4486140000000 1.0
C      1  0.4940410000000  0.5589470000000  0.5513820000000 1.0
C      1  0.5599200000000  0.5057950000000  0.4486230000000 1.0
C      1  0.5067600000000  0.4399240000000  0.5513820000000 1.0
C      1  0.5004010000000  0.4994330000000  0.5663560000000 1.0
C      1  0.5004110000000  0.4994370000000  0.4336440000000 1.0
END
