TITL C-3289331-6719-387 5.76553060638483e-05 125000 -1089.66380649155 0 0 190 (C1) n - 1
REM
REM in /nfs/bkarasulu/CARBON/AIRSS/Generating-Clusters/AIREBO/with-SteepDescent/Higher-Symm/SD-CG/HFTN-CG
REM
REM
REM
REM
REM
REM ./C.cell (b20cbc046b6831c77cfcea5457e17084)
REM
REM compiler GCC version 9.2.1 20190827 (Red Hat 9.2.1-1)
REM options -cpp -mtune=generic -march=x86-64 -g -O0 -fpre-include=/usr/include/finclude/math-vector-fortran.h
REM seed 2044388594 -1177370113 1165903904 -625873729 391933549 -1285387938 -1942518240 256302401 -705655251 972115068 -522211905 723281440 832760350 1301549596 1292827419 455651894 185439254 -1946560720 1779437332 1581018930 -1305525016 -1957840045 -941729600 872128953 -165109377 -496638558 290333978 -1828445637 -64450355 -1356497285 388844075 -516183642 1691055761
REM
CELL 1.54180   50.00000   50.00000   50.00000   90.00000   90.00000   90.00000
LATT -1
SFAC C  
C      1  0.5719200000000  0.5312460000000  0.4294420000000 1.0
C      1  0.5759630000000  0.4551080000000  0.4341750000000 1.0
C      1  0.5905710000000  0.4121680000000  0.4979810000000 1.0
C      1  0.5690130000000  0.4456720000000  0.5660440000000 1.0
C      1  0.5735160000000  0.5113640000000  0.5801040000000 1.0
C      1  0.5816380000000  0.5657160000000  0.5247040000000 1.0
C      1  0.5792950000000  0.5837450000000  0.4723410000000 1.0
C      1  0.5003860000000  0.4402700000000  0.5387580000000 1.0
C      1  0.4966890000000  0.4899920000000  0.5657180000000 1.0
C      1  0.4980690000000  0.5447470000000  0.5573680000000 1.0
C      1  0.5046900000000  0.5711570000000  0.4961920000000 1.0
C      1  0.4993630000000  0.5400070000000  0.4378480000000 1.0
C      1  0.5063320000000  0.4807630000000  0.4366960000000 1.0
C      1  0.4931010000000  0.4409640000000  0.4731820000000 1.0
C      1  0.6037800000000  0.5129800000000  0.4699410000000 1.0
C      1  0.6028580000000  0.4807740000000  0.4734610000000 1.0
C      1  0.5917520000000  0.4706290000000  0.4979850000000 1.0
C      1  0.5959760000000  0.4732380000000  0.5292320000000 1.0
C      1  0.6056630000000  0.5002180000000  0.5434650000000 1.0
C      1  0.6020370000000  0.5239140000000  0.5280310000000 1.0
C      1  0.5965590000000  0.5232450000000  0.5007960000000 1.0
C      1  0.5203670000000  0.4312070000000  0.5871890000000 1.0
C      1  0.5154740000000  0.5336700000000  0.6283670000000 1.0
C      1  0.5236220000000  0.6143460000000  0.5570250000000 1.0
C      1  0.5268040000000  0.6016800000000  0.4524380000000 1.0
C      1  0.5174310000000  0.5257160000000  0.3885630000000 1.0
C      1  0.5164530000000  0.4345330000000  0.4112570000000 1.0
C      1  0.5271310000000  0.3868180000000  0.4980520000000 1.0
C      1  0.5593000000000  0.5608520000000  0.5033760000000 1.0
C      1  0.5841350000000  0.5575410000000  0.4678690000000 1.0
C      1  0.5621090000000  0.5007420000000  0.4328120000000 1.0
C      1  0.5676780000000  0.4418750000000  0.4643900000000 1.0
C      1  0.5731430000000  0.4280380000000  0.5189960000000 1.0
C      1  0.5587300000000  0.4737720000000  0.5695120000000 1.0
C      1  0.5666820000000  0.5372900000000  0.5623270000000 1.0
C      1  0.4679550000000  0.5409260000000  0.5193890000000 1.0
C      1  0.4663590000000  0.5349580000000  0.4749990000000 1.0
C      1  0.4603470000000  0.5073780000000  0.4604960000000 1.0
C      1  0.4619720000000  0.4738060000000  0.4609440000000 1.0
C      1  0.4572150000000  0.4528040000000  0.5104440000000 1.0
C      1  0.4603860000000  0.4772330000000  0.5338860000000 1.0
C      1  0.4606310000000  0.5112440000000  0.5342880000000 1.0
C      1  0.4986320000000  0.5684480000000  0.4192220000000 1.0
C      1  0.4983410000000  0.4728200000000  0.4056070000000 1.0
C      1  0.5038140000000  0.3905030000000  0.4526690000000 1.0
C      1  0.5012140000000  0.4079720000000  0.5494060000000 1.0
C      1  0.5017040000000  0.4842740000000  0.6183160000000 1.0
C      1  0.4984710000000  0.5691550000000  0.5805440000000 1.0
C      1  0.5081040000000  0.6049110000000  0.4987490000000 1.0
C      1  0.4345040000000  0.5436360000000  0.5229680000000 1.0
C      1  0.4407850000000  0.5394420000000  0.4903320000000 1.0
C      1  0.4312850000000  0.5086150000000  0.4804300000000 1.0
C      1  0.4345440000000  0.4752290000000  0.4748470000000 1.0
C      1  0.4332100000000  0.4468370000000  0.4934000000000 1.0
C      1  0.4321600000000  0.4595870000000  0.5408570000000 1.0
C      1  0.4286590000000  0.5008690000000  0.5394890000000 1.0
C      1  0.4761050000000  0.5736050000000  0.5144830000000 1.0
C      1  0.4635140000000  0.5585580000000  0.4557160000000 1.0
C      1  0.4533110000000  0.5138010000000  0.4326810000000 1.0
C      1  0.4682090000000  0.4440570000000  0.4527860000000 1.0
C      1  0.4756760000000  0.4297080000000  0.5179280000000 1.0
C      1  0.4669130000000  0.4785260000000  0.5672390000000 1.0
C      1  0.4762880000000  0.5237650000000  0.5602110000000 1.0
C      1  0.5899380000000  0.4192010000000  0.4734870000000 1.0
C      1  0.5867210000000  0.4451650000000  0.5414000000000 1.0
C      1  0.5979720000000  0.5017000000000  0.5712220000000 1.0
C      1  0.5894780000000  0.5457070000000  0.5413120000000 1.0
C      1  0.5935070000000  0.6050720000000  0.4628600000000 1.0
C      1  0.5917010000000  0.5367440000000  0.4488470000000 1.0
C      1  0.5988520000000  0.4655910000000  0.4495000000000 1.0
C      1  0.5718140000000  0.5060230000000  0.4647860000000 1.0
C      1  0.5640130000000  0.4756370000000  0.4663090000000 1.0
C      1  0.5649700000000  0.4504400000000  0.4971930000000 1.0
C      1  0.5689970000000  0.4845820000000  0.5430140000000 1.0
C      1  0.5649070000000  0.5143980000000  0.5392280000000 1.0
C      1  0.5513270000000  0.5223410000000  0.5129640000000 1.0
C      1  0.5679490000000  0.5332960000000  0.4853930000000 1.0
C      1  0.4740490000000  0.5318460000000  0.4161380000000 1.0
C      1  0.4631510000000  0.4409540000000  0.4197700000000 1.0
C      1  0.4886940000000  0.4159960000000  0.4913540000000 1.0
C      1  0.4809190000000  0.4470780000000  0.5658360000000 1.0
C      1  0.4991830000000  0.5149050000000  0.5837850000000 1.0
C      1  0.4976040000000  0.5730200000000  0.5408380000000 1.0
C      1  0.4819500000000  0.5859380000000  0.4638880000000 1.0
C      1  0.5269080000000  0.4564400000000  0.4281890000000 1.0
C      1  0.5297970000000  0.4161160000000  0.4928030000000 1.0
C      1  0.5270110000000  0.4437720000000  0.5596270000000 1.0
C      1  0.5318540000000  0.5188280000000  0.5886000000000 1.0
C      1  0.5313510000000  0.5771530000000  0.5419500000000 1.0
C      1  0.5280590000000  0.5756720000000  0.4719020000000 1.0
C      1  0.5242410000000  0.5287310000000  0.4184090000000 1.0
C      1  0.5488040000000  0.4926860000000  0.5942130000000 1.0
C      1  0.5432170000000  0.5588400000000  0.5634150000000 1.0
C      1  0.5530960000000  0.5883020000000  0.4875850000000 1.0
C      1  0.5488190000000  0.5476920000000  0.4216360000000 1.0
C      1  0.5531340000000  0.4718360000000  0.4182960000000 1.0
C      1  0.5382760000000  0.4246340000000  0.4641850000000 1.0
C      1  0.5517890000000  0.4253280000000  0.5453390000000 1.0
C      1  0.5284620000000  0.4800290000000  0.3961070000000 1.0
C      1  0.5278170000000  0.4029600000000  0.4440070000000 1.0
C      1  0.5311380000000  0.4007230000000  0.5423620000000 1.0
C      1  0.5276880000000  0.4743710000000  0.6116940000000 1.0
C      1  0.5289030000000  0.5649200000000  0.5905940000000 1.0
C      1  0.5377070000000  0.6084340000000  0.5061820000000 1.0
C      1  0.5323420000000  0.5723030000000  0.4168460000000 1.0
C      1  0.4751640000000  0.3907360000000  0.5096630000000 1.0
C      1  0.4640530000000  0.4505000000000  0.5951620000000 1.0
C      1  0.4612100000000  0.5319500000000  0.5960200000000 1.0
C      1  0.4647830000000  0.6100480000000  0.5264470000000 1.0
C      1  0.4534620000000  0.5969640000000  0.4538750000000 1.0
C      1  0.4684670000000  0.5093040000000  0.3918990000000 1.0
C      1  0.4558100000000  0.4111050000000  0.4252940000000 1.0
C      1  0.5224130000000  0.4348480000000  0.5134050000000 1.0
C      1  0.5259970000000  0.4742870000000  0.5670810000000 1.0
C      1  0.5279750000000  0.5292470000000  0.5564680000000 1.0
C      1  0.5297570000000  0.5607230000000  0.5156210000000 1.0
C      1  0.5239840000000  0.5493610000000  0.4593630000000 1.0
C      1  0.5303980000000  0.5021970000000  0.4308620000000 1.0
C      1  0.5216490000000  0.4512260000000  0.4589280000000 1.0
C      1  0.5406830000000  0.6059590000000  0.5341730000000 1.0
C      1  0.5386850000000  0.5975840000000  0.4278220000000 1.0
C      1  0.5287260000000  0.5017570000000  0.3790920000000 1.0
C      1  0.5286040000000  0.4101830000000  0.4169150000000 1.0
C      1  0.5349190000000  0.3808460000000  0.5242200000000 1.0
C      1  0.5297750000000  0.4464010000000  0.6086380000000 1.0
C      1  0.5332640000000  0.5431370000000  0.6080810000000 1.0
C      1  0.4875330000000  0.6205750000000  0.5157080000000 1.0
C      1  0.4694240000000  0.5845850000000  0.4263470000000 1.0
C      1  0.4700700000000  0.4831190000000  0.3978670000000 1.0
C      1  0.4797570000000  0.3996820000000  0.4418830000000 1.0
C      1  0.4754520000000  0.3952860000000  0.5379560000000 1.0
C      1  0.4761580000000  0.4752680000000  0.6073950000000 1.0
C      1  0.4675940000000  0.5592920000000  0.5822650000000 1.0
C      1  0.3920060000000  0.4654160000000  0.5099820000000 1.0
C      1  0.3990430000000  0.4863770000000  0.5311520000000 1.0
C      1  0.3925290000000  0.5173330000000  0.5265110000000 1.0
C      1  0.3943090000000  0.5300120000000  0.5014530000000 1.0
C      1  0.4009020000000  0.5174510000000  0.4729920000000 1.0
C      1  0.3888990000000  0.4932720000000  0.4602300000000 1.0
C      1  0.3858630000000  0.4705240000000  0.4816720000000 1.0
C      1  0.4958240000000  0.5457660000000  0.3940430000000 1.0
C      1  0.4896370000000  0.4424520000000  0.4036230000000 1.0
C      1  0.5027420000000  0.3893860000000  0.4808800000000 1.0
C      1  0.5033530000000  0.4104310000000  0.5810810000000 1.0
C      1  0.5000690000000  0.5132050000000  0.6165880000000 1.0
C      1  0.5046030000000  0.5966730000000  0.5643220000000 1.0
C      1  0.5024950000000  0.6059200000000  0.4687700000000 1.0
C      1  0.3989520000000  0.5341130000000  0.5476470000000 1.0
C      1  0.4081910000000  0.5559870000000  0.5051430000000 1.0
C      1  0.4032180000000  0.5386720000000  0.4518450000000 1.0
C      1  0.4002070000000  0.4893360000000  0.4343000000000 1.0
C      1  0.4083010000000  0.4589620000000  0.4649570000000 1.0
C      1  0.4093620000000  0.4432330000000  0.5124310000000 1.0
C      1  0.4101050000000  0.4729360000000  0.5605720000000 1.0
C      1  0.5290950000000  0.4975120000000  0.5443070000000 1.0
C      1  0.5236890000000  0.5321270000000  0.5228600000000 1.0
C      1  0.5374490000000  0.5294910000000  0.4708520000000 1.0
C      1  0.5280930000000  0.5017260000000  0.4627230000000 1.0
C      1  0.5349260000000  0.4751850000000  0.4724960000000 1.0
C      1  0.5341690000000  0.4636990000000  0.5028720000000 1.0
C      1  0.5449210000000  0.4843250000000  0.5221030000000 1.0
C      1  0.4556450000000  0.3937950000000  0.4885320000000 1.0
C      1  0.4379320000000  0.4656950000000  0.5795660000000 1.0
C      1  0.4443230000000  0.5242550000000  0.5685100000000 1.0
C      1  0.4571210000000  0.5848730000000  0.5403570000000 1.0
C      1  0.4296430000000  0.5566630000000  0.4556740000000 1.0
C      1  0.4240000000000  0.5109060000000  0.4227550000000 1.0
C      1  0.4316190000000  0.4122520000000  0.4446580000000 1.0
C      1  0.5017700000000  0.4671370000000  0.4930850000000 1.0
C      1  0.4914910000000  0.4689990000000  0.5228500000000 1.0
C      1  0.4990570000000  0.4975680000000  0.5337530000000 1.0
C      1  0.4945410000000  0.5221630000000  0.5161700000000 1.0
C      1  0.4945820000000  0.5389730000000  0.4887280000000 1.0
C      1  0.4998400000000  0.5173470000000  0.4632060000000 1.0
C      1  0.4923500000000  0.4841340000000  0.4651550000000 1.0
C      1  0.4530570000000  0.5562520000000  0.4234430000000 1.0
C      1  0.4494940000000  0.4669490000000  0.4085200000000 1.0
C      1  0.4591150000000  0.4133900000000  0.4646420000000 1.0
C      1  0.4512910000000  0.4155030000000  0.5358050000000 1.0
C      1  0.4635220000000  0.4999010000000  0.5934890000000 1.0
C      1  0.4505450000000  0.5675390000000  0.5612170000000 1.0
C      1  0.4582940000000  0.5839640000000  0.4870870000000 1.0
C      1  0.4287260000000  0.5460910000000  0.5534930000000 1.0
C      1  0.4304670000000  0.5703660000000  0.4842900000000 1.0
C      1  0.4230020000000  0.5437720000000  0.4246670000000 1.0
C      1  0.4249480000000  0.4784630000000  0.4145180000000 1.0
C      1  0.4246420000000  0.4335430000000  0.4631430000000 1.0
C      1  0.4282140000000  0.4310090000000  0.5342330000000 1.0
C      1  0.4295440000000  0.4978680000000  0.5724440000000 1.0
C      1  0.4305470000000  0.5026280000000  0.5098500000000 1.0
END
