TITL C-3289329-2751-113 -0.00079304696293417 125000 -508.982248596083 0 0 95 (C1) n - 1
REM
REM in /nfs/bkarasulu/CARBON/AIRSS/Generating-Clusters/AIREBO/with-SteepDescent/Higher-Symm/SD-CG/HFTN-CG
REM
REM
REM
REM
REM
REM ./C.cell (b20cbc046b6831c77cfcea5457e17084)
REM
REM compiler GCC version 9.2.1 20190827 (Red Hat 9.2.1-1)
REM options -cpp -mtune=generic -march=x86-64 -g -O0 -fpre-include=/usr/include/finclude/math-vector-fortran.h
REM seed 1831171431 667928503 2003004606 249589328 -103894103 -1102429875 422942400 69106611 -1849716277 1475661262 -217785224 -878519949 -508013411 -873939822 -1099313950 959643597 -1621514531 843066043 284784528 1724437658 -303609054 -994339985 1604712132 1489381415 763470633 95095967 -75972282 396104897 1350055627 -1757221759 -115581195 669697092 122510940
REM
CELL 1.54180   50.00000   50.00000   50.00000   90.00000   90.00000   90.00000
LATT -1
SFAC C  
C      1  0.3879600000000  0.5224160000000  0.5029970000000 1.0
C      1  0.4031210000000  0.4861350000000  0.4963370000000 1.0
C      1  0.4575660000000  0.5416700000000  0.4293200000000 1.0
C      1  0.4470560000000  0.4728970000000  0.4341310000000 1.0
C      1  0.4921140000000  0.4736720000000  0.5267700000000 1.0
C      1  0.4874540000000  0.5245140000000  0.5255840000000 1.0
C      1  0.4434610000000  0.5412280000000  0.4574320000000 1.0
C      1  0.4309000000000  0.4910270000000  0.4386530000000 1.0
C      1  0.4522150000000  0.5596520000000  0.5164610000000 1.0
C      1  0.4638840000000  0.4306670000000  0.5125760000000 1.0
C      1  0.5168950000000  0.4758280000000  0.5070650000000 1.0
C      1  0.5114520000000  0.5290640000000  0.5062350000000 1.0
C      1  0.4758110000000  0.5560370000000  0.4609920000000 1.0
C      1  0.4621980000000  0.4408650000000  0.4521030000000 1.0
C      1  0.3978370000000  0.5155910000000  0.5286010000000 1.0
C      1  0.4085720000000  0.4771900000000  0.5288200000000 1.0
C      1  0.5327790000000  0.4819960000000  0.5704690000000 1.0
C      1  0.5295490000000  0.5338860000000  0.5693780000000 1.0
C      1  0.4311210000000  0.5489620000000  0.5316280000000 1.0
C      1  0.4391690000000  0.4334880000000  0.5275660000000 1.0
C      1  0.5769030000000  0.5496480000000  0.4808680000000 1.0
C      1  0.5718200000000  0.4551140000000  0.4579320000000 1.0
C      1  0.5425730000000  0.4304860000000  0.4923790000000 1.0
C      1  0.5437630000000  0.5716600000000  0.4930280000000 1.0
C      1  0.5264570000000  0.4677890000000  0.4533100000000 1.0
C      1  0.5429590000000  0.5371430000000  0.4640860000000 1.0
C      1  0.5360170000000  0.4305000000000  0.4288410000000 1.0
C      1  0.5589630000000  0.5417450000000  0.4277710000000 1.0
C      1  0.5001370000000  0.4500930000000  0.4596330000000 1.0
C      1  0.5142170000000  0.5494220000000  0.4529780000000 1.0
C      1  0.4270710000000  0.5209180000000  0.5320540000000 1.0
C      1  0.4350410000000  0.4587200000000  0.5388610000000 1.0
C      1  0.5299780000000  0.5487900000000  0.5235020000000 1.0
C      1  0.5386680000000  0.4634810000000  0.5264180000000 1.0
C      1  0.4618150000000  0.4371420000000  0.4795090000000 1.0
C      1  0.4534730000000  0.5527820000000  0.4878070000000 1.0
C      1  0.5301660000000  0.4594510000000  0.5534720000000 1.0
C      1  0.5240880000000  0.5547510000000  0.5506720000000 1.0
C      1  0.5674270000000  0.5672800000000  0.5170630000000 1.0
C      1  0.5637420000000  0.4358840000000  0.5174830000000 1.0
C      1  0.4921560000000  0.5313350000000  0.5556880000000 1.0
C      1  0.4949010000000  0.4774740000000  0.5587520000000 1.0
C      1  0.5262930000000  0.5753290000000  0.4714330000000 1.0
C      1  0.5205950000000  0.4299920000000  0.4779130000000 1.0
C      1  0.5022000000000  0.4463430000000  0.5538830000000 1.0
C      1  0.4948090000000  0.5637120000000  0.5535980000000 1.0
C      1  0.5477890000000  0.4523260000000  0.4431320000000 1.0
C      1  0.5698260000000  0.5546530000000  0.4527810000000 1.0
C      1  0.5315620000000  0.5497390000000  0.4237340000000 1.0
C      1  0.5086880000000  0.4280080000000  0.4352240000000 1.0
C      1  0.4558020000000  0.4642740000000  0.4928130000000 1.0
C      1  0.4699140000000  0.5260520000000  0.4858140000000 1.0
C      1  0.4791220000000  0.4675330000000  0.4393330000000 1.0
C      1  0.4870260000000  0.5320220000000  0.4396740000000 1.0
C      1  0.4905400000000  0.4669060000000  0.4874450000000 1.0
C      1  0.4976770000000  0.5392210000000  0.4808830000000 1.0
C      1  0.5683330000000  0.4699940000000  0.5159880000000 1.0
C      1  0.5707310000000  0.5335270000000  0.5233900000000 1.0
C      1  0.4762350000000  0.5559850000000  0.5294400000000 1.0
C      1  0.4852790000000  0.4410090000000  0.5275650000000 1.0
C      1  0.4223170000000  0.4127310000000  0.5308370000000 1.0
C      1  0.4152310000000  0.5652030000000  0.5462670000000 1.0
C      1  0.5685950000000  0.4511310000000  0.4876970000000 1.0
C      1  0.5492580000000  0.5383970000000  0.4974770000000 1.0
C      1  0.5208340000000  0.4928590000000  0.4615730000000 1.0
C      1  0.5773650000000  0.5002100000000  0.5217730000000 1.0
C      1  0.5345130000000  0.5093010000000  0.5906770000000 1.0
C      1  0.4938310000000  0.4989510000000  0.4611760000000 1.0
C      1  0.5694460000000  0.5154180000000  0.4259910000000 1.0
C      1  0.4450040000000  0.4920610000000  0.5346240000000 1.0
C      1  0.5454230000000  0.5107520000000  0.5267350000000 1.0
C      1  0.5292820000000  0.5033710000000  0.5006000000000 1.0
C      1  0.4273090000000  0.5132440000000  0.4614500000000 1.0
C      1  0.5288840000000  0.5077770000000  0.5514460000000 1.0
C      1  0.5450290000000  0.5076220000000  0.4722500000000 1.0
C      1  0.4033930000000  0.5108810000000  0.4794620000000 1.0
C      1  0.4733790000000  0.4980940000000  0.5224830000000 1.0
C      1  0.5066400000000  0.4978580000000  0.4102560000000 1.0
C      1  0.6062220000000  0.4996870000000  0.5094190000000 1.0
C      1  0.4548680000000  0.5077320000000  0.5908970000000 1.0
C      1  0.4503560000000  0.4922610000000  0.5650820000000 1.0
C      1  0.6112220000000  0.4935190000000  0.4834750000000 1.0
C      1  0.5109440000000  0.5091040000000  0.6085360000000 1.0
C      1  0.4604040000000  0.5052810000000  0.4615130000000 1.0
C      1  0.5988750000000  0.5060420000000  0.4291880000000 1.0
C      1  0.4821860000000  0.5074420000000  0.5977850000000 1.0
C      1  0.4233130000000  0.5005280000000  0.5771090000000 1.0
C      1  0.4330820000000  0.4795070000000  0.5053560000000 1.0
C      1  0.4036560000000  0.4981820000000  0.5551310000000 1.0
C      1  0.4700480000000  0.4936180000000  0.4922110000000 1.0
C      1  0.6000260000000  0.4972840000000  0.4587620000000 1.0
C      1  0.4834040000000  0.4997940000000  0.4293500000000 1.0
C      1  0.5688180000000  0.4988880000000  0.4540920000000 1.0
C      1  0.5005410000000  0.5054420000000  0.5701140000000 1.0
C      1  0.4595830000000  0.5033560000000  0.4114950000000 1.0
END
