TITL C-3289335-9438-236 0.000345460698670638 125000 -760.304367271492 0 0 143 (C1) n - 1
REM
REM in /nfs/bkarasulu/CARBON/AIRSS/Generating-Clusters/AIREBO/with-SteepDescent/Higher-Symm/SD-CG/HFTN-CG
REM
REM
REM
REM
REM
REM ./C.cell (b20cbc046b6831c77cfcea5457e17084)
REM
REM compiler GCC version 9.2.1 20190827 (Red Hat 9.2.1-1)
REM options -cpp -mtune=generic -march=x86-64 -g -O0 -fpre-include=/usr/include/finclude/math-vector-fortran.h
REM seed 425431517 -1719966160 -1524973375 1842331248 -1337146785 -473383522 -1942693958 2003259423 2062381512 795300792 1951219718 -1112067018 -1580445758 127061246 -2651376 -167059979 -1138122489 1728766364 767477436 -1105776285 1714960878 -600686405 -1018967520 818382977 1568960237 1949188841 735200672 -313129562 -1400197716 -2099089822 -2051321290 -1308276498 -962867186
REM
CELL 1.54180   50.00000   50.00000   50.00000   90.00000   90.00000   90.00000
LATT -1
SFAC C  
C      1  0.4513550000000  0.5004350000000  0.4241980000000 1.0
C      1  0.4557710000000  0.5700070000000  0.5491320000000 1.0
C      1  0.4470740000000  0.4267370000000  0.5390700000000 1.0
C      1  0.4506100000000  0.5268050000000  0.5857970000000 1.0
C      1  0.4427230000000  0.4231390000000  0.4861030000000 1.0
C      1  0.4593270000000  0.5580240000000  0.4442720000000 1.0
C      1  0.4892710000000  0.5563260000000  0.5857480000000 1.0
C      1  0.4920410000000  0.4231430000000  0.5006620000000 1.0
C      1  0.4897710000000  0.5243260000000  0.4107210000000 1.0
C      1  0.5234740000000  0.5419430000000  0.5335550000000 1.0
C      1  0.5416680000000  0.4471000000000  0.5089390000000 1.0
C      1  0.5326120000000  0.5103380000000  0.4380310000000 1.0
C      1  0.4457870000000  0.4663940000000  0.5730820000000 1.0
C      1  0.4501120000000  0.4506440000000  0.4317330000000 1.0
C      1  0.4521190000000  0.5832470000000  0.5041630000000 1.0
C      1  0.4563850000000  0.4153700000000  0.5163320000000 1.0
C      1  0.4439730000000  0.5322610000000  0.4275720000000 1.0
C      1  0.4380710000000  0.5563050000000  0.5740730000000 1.0
C      1  0.4288910000000  0.5533670000000  0.5423460000000 1.0
C      1  0.4240950000000  0.4416880000000  0.5333250000000 1.0
C      1  0.4195990000000  0.5081780000000  0.4324410000000 1.0
C      1  0.5823360000000  0.5060760000000  0.4813280000000 1.0
C      1  0.5814070000000  0.5173360000000  0.5295190000000 1.0
C      1  0.5825420000000  0.4558810000000  0.5040030000000 1.0
C      1  0.5189020000000  0.5830520000000  0.4650190000000 1.0
C      1  0.5206700000000  0.4999800000000  0.6094140000000 1.0
C      1  0.5332730000000  0.4284010000000  0.4383710000000 1.0
C      1  0.4776660000000  0.5294480000000  0.4723680000000 1.0
C      1  0.4726480000000  0.5038480000000  0.5460960000000 1.0
C      1  0.4794040000000  0.4625120000000  0.4894550000000 1.0
C      1  0.4998340000000  0.5735380000000  0.4986620000000 1.0
C      1  0.4980140000000  0.4746500000000  0.5750550000000 1.0
C      1  0.5008760000000  0.4595730000000  0.4446200000000 1.0
C      1  0.5274320000000  0.5473780000000  0.4513000000000 1.0
C      1  0.5392860000000  0.5181630000000  0.5714220000000 1.0
C      1  0.5514440000000  0.4310240000000  0.4737690000000 1.0
C      1  0.4728270000000  0.4952790000000  0.5775810000000 1.0
C      1  0.4810530000000  0.4383820000000  0.4267050000000 1.0
C      1  0.4831310000000  0.5619630000000  0.4761210000000 1.0
C      1  0.4991180000000  0.4506040000000  0.5960640000000 1.0
C      1  0.4842790000000  0.4330040000000  0.3990330000000 1.0
C      1  0.5014640000000  0.6048820000000  0.4961310000000 1.0
C      1  0.4892020000000  0.5039200000000  0.4365660000000 1.0
C      1  0.4835760000000  0.5411360000000  0.5347400000000 1.0
C      1  0.4966410000000  0.4483570000000  0.5230060000000 1.0
C      1  0.4086560000000  0.4737240000000  0.4910110000000 1.0
C      1  0.4124680000000  0.5224470000000  0.4790520000000 1.0
C      1  0.4040930000000  0.5091080000000  0.5255570000000 1.0
C      1  0.4566610000000  0.4797520000000  0.5010250000000 1.0
C      1  0.4564520000000  0.5084500000000  0.4862710000000 1.0
C      1  0.4554920000000  0.5071380000000  0.5202410000000 1.0
C      1  0.5190630000000  0.4298550000000  0.5589520000000 1.0
C      1  0.5325510000000  0.4925980000000  0.3966380000000 1.0
C      1  0.5313030000000  0.5869910000000  0.5292040000000 1.0
C      1  0.4929080000000  0.4464210000000  0.5567850000000 1.0
C      1  0.4919590000000  0.4757430000000  0.4177280000000 1.0
C      1  0.5023910000000  0.5693560000000  0.5323110000000 1.0
C      1  0.5549520000000  0.5079060000000  0.4612440000000 1.0
C      1  0.5539590000000  0.5042720000000  0.5158760000000 1.0
C      1  0.5579400000000  0.4751720000000  0.4987330000000 1.0
C      1  0.5345620000000  0.4698250000000  0.5332160000000 1.0
C      1  0.5454540000000  0.4760090000000  0.4538050000000 1.0
C      1  0.5378350000000  0.5322030000000  0.5043070000000 1.0
C      1  0.4252490000000  0.5638170000000  0.5116880000000 1.0
C      1  0.4186670000000  0.4662270000000  0.5527340000000 1.0
C      1  0.4253340000000  0.4759200000000  0.4417210000000 1.0
C      1  0.5280450000000  0.5611880000000  0.4894150000000 1.0
C      1  0.5113060000000  0.5053950000000  0.5691330000000 1.0
C      1  0.5254060000000  0.4502060000000  0.4632530000000 1.0
C      1  0.4051760000000  0.5530050000000  0.4924200000000 1.0
C      1  0.3949350000000  0.4853400000000  0.5474320000000 1.0
C      1  0.4050410000000  0.4634920000000  0.4597850000000 1.0
C      1  0.5077960000000  0.5209860000000  0.4587000000000 1.0
C      1  0.5041960000000  0.5144960000000  0.5391950000000 1.0
C      1  0.5125720000000  0.4566000000000  0.4941010000000 1.0
C      1  0.4998530000000  0.5544540000000  0.4199350000000 1.0
C      1  0.5069500000000  0.5321160000000  0.5899850000000 1.0
C      1  0.4965210000000  0.4085430000000  0.4702830000000 1.0
C      1  0.4808570000000  0.4753380000000  0.5322530000000 1.0
C      1  0.4875920000000  0.4827630000000  0.4633990000000 1.0
C      1  0.4823740000000  0.5342310000000  0.5047470000000 1.0
C      1  0.4684410000000  0.4021710000000  0.4876960000000 1.0
C      1  0.4673820000000  0.5494560000000  0.4123670000000 1.0
C      1  0.4632610000000  0.5537490000000  0.5951090000000 1.0
C      1  0.4375850000000  0.5086010000000  0.4607160000000 1.0
C      1  0.4305740000000  0.5266610000000  0.5253620000000 1.0
C      1  0.4306440000000  0.4650950000000  0.5117110000000 1.0
C      1  0.5696800000000  0.4299740000000  0.5195650000000 1.0
C      1  0.5729840000000  0.5300250000000  0.4228540000000 1.0
C      1  0.5729490000000  0.5465470000000  0.5437600000000 1.0
C      1  0.5794780000000  0.5522260000000  0.4399960000000 1.0
C      1  0.5864920000000  0.5235290000000  0.5648050000000 1.0
C      1  0.5872800000000  0.4259060000000  0.4905390000000 1.0
C      1  0.5409650000000  0.4460890000000  0.5549330000000 1.0
C      1  0.5508310000000  0.4871990000000  0.4221480000000 1.0
C      1  0.5528890000000  0.5817850000000  0.5134020000000 1.0
C      1  0.5457980000000  0.4045920000000  0.4756300000000 1.0
C      1  0.5297190000000  0.5767540000000  0.4343290000000 1.0
C      1  0.5418280000000  0.5237580000000  0.6115450000000 1.0
C      1  0.5784240000000  0.5019560000000  0.4257600000000 1.0
C      1  0.5744470000000  0.5656290000000  0.5204470000000 1.0
C      1  0.5682480000000  0.4388730000000  0.5488620000000 1.0
C      1  0.4624040000000  0.4400170000000  0.5594970000000 1.0
C      1  0.4618290000000  0.4773870000000  0.4205870000000 1.0
C      1  0.4705000000000  0.5803470000000  0.5278990000000 1.0
C      1  0.5376430000000  0.5466160000000  0.5889570000000 1.0
C      1  0.5220160000000  0.4004200000000  0.4878940000000 1.0
C      1  0.5299890000000  0.5551530000000  0.4122940000000 1.0
C      1  0.5611740000000  0.4296520000000  0.4351890000000 1.0
C      1  0.5494930000000  0.5850360000000  0.4811340000000 1.0
C      1  0.5530860000000  0.4954520000000  0.6009200000000 1.0
C      1  0.5106420000000  0.5201910000000  0.4925760000000 1.0
C      1  0.5112850000000  0.4861280000000  0.5218190000000 1.0
C      1  0.5098180000000  0.4901290000000  0.4880650000000 1.0
C      1  0.4428520000000  0.4468300000000  0.4626010000000 1.0
C      1  0.4491390000000  0.5626980000000  0.4763870000000 1.0
C      1  0.4391570000000  0.4996700000000  0.5755920000000 1.0
C      1  0.5615350000000  0.4856680000000  0.5433700000000 1.0
C      1  0.5755350000000  0.4748700000000  0.4696230000000 1.0
C      1  0.5638300000000  0.5345860000000  0.4825070000000 1.0
C      1  0.5031940000000  0.4199750000000  0.4435030000000 1.0
C      1  0.4923510000000  0.5711420000000  0.4470760000000 1.0
C      1  0.4915020000000  0.5049910000000  0.6033030000000 1.0
C      1  0.5789340000000  0.4419620000000  0.4617510000000 1.0
C      1  0.5565070000000  0.5579630000000  0.4616240000000 1.0
C      1  0.5642280000000  0.5007350000000  0.5701140000000 1.0
C      1  0.4175210000000  0.5059890000000  0.5568520000000 1.0
C      1  0.4158660000000  0.4413470000000  0.4831210000000 1.0
C      1  0.4193380000000  0.5521040000000  0.4639050000000 1.0
C      1  0.4514230000000  0.5434060000000  0.5043000000000 1.0
C      1  0.4494040000000  0.4719300000000  0.5393500000000 1.0
C      1  0.4540090000000  0.4788310000000  0.4597630000000 1.0
C      1  0.5855140000000  0.5527390000000  0.4987840000000 1.0
C      1  0.5826090000000  0.4628950000000  0.5509890000000 1.0
C      1  0.5934630000000  0.4873490000000  0.4435600000000 1.0
C      1  0.5059240000000  0.4979690000000  0.4009320000000 1.0
C      1  0.4972980000000  0.5727280000000  0.5657650000000 1.0
C      1  0.5201650000000  0.4087930000000  0.5417630000000 1.0
C      1  0.5223590000000  0.4193970000000  0.5132230000000 1.0
C      1  0.5446120000000  0.5325520000000  0.4176080000000 1.0
C      1  0.5446070000000  0.5457150000000  0.5555730000000 1.0
C      1  0.3998140000000  0.5013200000000  0.4968650000000 1.0
C      1  0.5967440000000  0.5059880000000  0.5061790000000 1.0
END
