TITL C-3289329-2751-229 0.00714355651610905 125000 -634.411523817485 0 0 121 (C3i) n - 1
REM
REM in /nfs/bkarasulu/CARBON/AIRSS/Generating-Clusters/AIREBO/with-SteepDescent/Higher-Symm/SD-CG/HFTN-CG
REM
REM
REM
REM
REM
REM ./C.cell (b20cbc046b6831c77cfcea5457e17084)
REM
REM compiler GCC version 9.2.1 20190827 (Red Hat 9.2.1-1)
REM options -cpp -mtune=generic -march=x86-64 -g -O0 -fpre-include=/usr/include/finclude/math-vector-fortran.h
REM seed -424305796 1330353885 1146114947 307222047 -1971444541 386134414 951409596 -1742735504 2072992245 984956466 -854883488 -386169721 537668627 -665999981 -111039826 -1728354714 -143610070 -1433027443 1140005566 548064671 -745648502 1864271301 -1897551122 -1059743277 822675091 639800882 -647825300 1074796607 -681280806 -1492823673 2063712493 807435178 -1356858529
REM
CELL 1.54180   50.00000   50.00000   50.00000   90.00000   90.00000   90.00000
LATT -1
SFAC C  
C      1  0.4178320000000  0.5234200000000  0.4788100000000 1.0
C      1  0.5824120000000  0.5297670000000  0.5095900000000 1.0
C      1  0.4176410000000  0.5063400000000  0.5310870000000 1.0
C      1  0.5823510000000  0.4758510000000  0.5211170000000 1.0
C      1  0.4178490000000  0.4695090000000  0.4900250000000 1.0
C      1  0.5824810000000  0.4927440000000  0.4687180000000 1.0
C      1  0.5231700000000  0.5211630000000  0.4874200000000 1.0
C      1  0.4768610000000  0.5212280000000  0.5122170000000 1.0
C      1  0.5232630000000  0.4995600000000  0.5250410000000 1.0
C      1  0.4769800000000  0.4779810000000  0.5124980000000 1.0
C      1  0.5232820000000  0.4779310000000  0.4877750000000 1.0
C      1  0.4769980000000  0.4993280000000  0.4751780000000 1.0
C      1  0.4438160000000  0.5525480000000  0.5159050000000 1.0
C      1  0.5564060000000  0.5120810000000  0.5532530000000 1.0
C      1  0.4436740000000  0.4596930000000  0.5374810000000 1.0
C      1  0.5563570000000  0.4466090000000  0.4841410000000 1.0
C      1  0.4439030000000  0.4869450000000  0.4463090000000 1.0
C      1  0.5564200000000  0.5394030000000  0.4623510000000 1.0
C      1  0.4907050000000  0.4336160000000  0.5259650000000 1.0
C      1  0.5098050000000  0.4441770000000  0.4562580000000 1.0
C      1  0.4902910000000  0.5099100000000  0.4301590000000 1.0
C      1  0.5093890000000  0.5655540000000  0.4741390000000 1.0
C      1  0.4903400000000  0.5548520000000  0.5437790000000 1.0
C      1  0.5093960000000  0.4889230000000  0.5700230000000 1.0
C      1  0.5512780000000  0.5211960000000  0.4989440000000 1.0
C      1  0.4487810000000  0.5112760000000  0.5183580000000 1.0
C      1  0.5512530000000  0.4894460000000  0.5190750000000 1.0
C      1  0.4489570000000  0.4780610000000  0.5007580000000 1.0
C      1  0.5513640000000  0.4878700000000  0.4815250000000 1.0
C      1  0.4489650000000  0.5098940000000  0.4807760000000 1.0
C      1  0.5393600000000  0.5412760000000  0.5493760000000 1.0
C      1  0.4606590000000  0.4775950000000  0.5609060000000 1.0
C      1  0.5392170000000  0.4356800000000  0.5115610000000 1.0
C      1  0.4609710000000  0.4576760000000  0.4505030000000 1.0
C      1  0.5393120000000  0.5214790000000  0.4390330000000 1.0
C      1  0.4609090000000  0.5635810000000  0.4885170000000 1.0
C      1  0.4639600000000  0.4819240000000  0.4191470000000 1.0
C      1  0.5361830000000  0.5606960000000  0.4448620000000 1.0
C      1  0.4639640000000  0.5784930000000  0.5252390000000 1.0
C      1  0.5362210000000  0.5166690000000  0.5804690000000 1.0
C      1  0.4637570000000  0.4383690000000  0.5551210000000 1.0
C      1  0.5362240000000  0.4206530000000  0.4748810000000 1.0
C      1  0.4230980000000  0.4918690000000  0.4693340000000 1.0
C      1  0.5772690000000  0.5218310000000  0.4777060000000 1.0
C      1  0.4229370000000  0.5302500000000  0.5085470000000 1.0
C      1  0.5772250000000  0.5074650000000  0.5303110000000 1.0
C      1  0.4229550000000  0.4773020000000  0.5219770000000 1.0
C      1  0.5772210000000  0.4689270000000  0.4914130000000 1.0
C      1  0.4881990000000  0.5307390000000  0.5822880000000 1.0
C      1  0.5117360000000  0.4438530000000  0.5684680000000 1.0
C      1  0.4883660000000  0.4124190000000  0.4860960000000 1.0
C      1  0.5118580000000  0.4682720000000  0.4177410000000 1.0
C      1  0.4882050000000  0.5552830000000  0.4317420000000 1.0
C      1  0.5118230000000  0.5866240000000  0.5139990000000 1.0
C      1  0.4721480000000  0.5097480000000  0.4013970000000 1.0
C      1  0.5275720000000  0.5904670000000  0.4598130000000 1.0
C      1  0.4722520000000  0.5797830000000  0.5581920000000 1.0
C      1  0.5275160000000  0.4888620000000  0.5987990000000 1.0
C      1  0.4725350000000  0.4086390000000  0.5401930000000 1.0
C      1  0.5279740000000  0.4192600000000  0.4419230000000 1.0
C      1  0.4967370000000  0.6007440000000  0.4711090000000 1.0
C      1  0.5029850000000  0.5747540000000  0.5729500000000 1.0
C      1  0.4966940000000  0.4738490000000  0.6019400000000 1.0
C      1  0.5034340000000  0.3984540000000  0.5289920000000 1.0
C      1  0.4972270000000  0.4241230000000  0.4271590000000 1.0
C      1  0.5028240000000  0.5251480000000  0.3982600000000 1.0
C      1  0.5383370000000  0.5700090000000  0.5053540000000 1.0
C      1  0.4616260000000  0.5298670000000  0.5637560000000 1.0
C      1  0.5383440000000  0.4595590000000  0.5584290000000 1.0
C      1  0.4617820000000  0.4290190000000  0.4946010000000 1.0
C      1  0.5384160000000  0.4692150000000  0.4362570000000 1.0
C      1  0.4615870000000  0.5397210000000  0.4417910000000 1.0
C      1  0.4876270000000  0.5219700000000  0.5433150000000 1.0
C      1  0.5123000000000  0.4731030000000  0.5412680000000 1.0
C      1  0.4878600000000  0.4506060000000  0.4977990000000 1.0
C      1  0.5124150000000  0.4771250000000  0.4566940000000 1.0
C      1  0.4875800000000  0.5259260000000  0.4588300000000 1.0
C      1  0.5122290000000  0.5484420000000  0.5022730000000 1.0
C      1  0.4509340000000  0.5551970000000  0.5483370000000 1.0
C      1  0.5488970000000  0.4861330000000  0.5725030000000 1.0
C      1  0.4512120000000  0.4300610000000  0.5246220000000 1.0
C      1  0.5492070000000  0.4439390000000  0.4517290000000 1.0
C      1  0.4508790000000  0.5136110000000  0.4276410000000 1.0
C      1  0.5488930000000  0.5689800000000  0.4752990000000 1.0
C      1  0.5611850000000  0.5899500000000  0.5494750000000 1.0
C      1  0.4387840000000  0.5016730000000  0.6031260000000 1.0
C      1  0.5612640000000  0.4113880000000  0.5537020000000 1.0
C      1  0.4390150000000  0.4090520000000  0.4504780000000 1.0
C      1  0.5610290000000  0.4974110000000  0.3967560000000 1.0
C      1  0.4388710000000  0.5880340000000  0.4465170000000 1.0
C      1  0.5077060000000  0.5815700000000  0.5405470000000 1.0
C      1  0.4921810000000  0.5052740000000  0.5913970000000 1.0
C      1  0.5078160000000  0.4232420000000  0.5509240000000 1.0
C      1  0.4925080000000  0.4174050000000  0.4595390000000 1.0
C      1  0.5076610000000  0.4937230000000  0.4087160000000 1.0
C      1  0.4922290000000  0.5759090000000  0.4492270000000 1.0
C      1  0.5831970000000  0.4526710000000  0.5369760000000 1.0
C      1  0.4169780000000  0.4442320000000  0.4777920000000 1.0
C      1  0.5832460000000  0.4908700000000  0.4406850000000 1.0
C      1  0.4168940000000  0.5467000000000  0.4631020000000 1.0
C      1  0.5832380000000  0.5550270000000  0.5218790000000 1.0
C      1  0.4167650000000  0.5081500000000  0.5591140000000 1.0
C      1  0.5172620000000  0.4116300000000  0.5016720000000 1.0
C      1  0.4830280000000  0.4542980000000  0.4248070000000 1.0
C      1  0.5171090000000  0.5421870000000  0.4234690000000 1.0
C      1  0.4829310000000  0.5875460000000  0.4984600000000 1.0
C      1  0.5171360000000  0.5444270000000  0.5750770000000 1.0
C      1  0.4827270000000  0.4568560000000  0.5766220000000 1.0
C      1  0.4448950000000  0.5607760000000  0.4597640000000 1.0
C      1  0.5552070000000  0.5648590000000  0.5324530000000 1.0
C      1  0.4447970000000  0.5038850000000  0.5728920000000 1.0
C      1  0.5551890000000  0.4386260000000  0.5404160000000 1.0
C      1  0.4449950000000  0.4341820000000  0.4674360000000 1.0
C      1  0.5551610000000  0.4952030000000  0.4270150000000 1.0
C      1  0.4819250000000  0.5407290000000  0.4889130000000 1.0
C      1  0.5179700000000  0.5296100000000  0.5300010000000 1.0
C      1  0.4819880000000  0.4885130000000  0.5410770000000 1.0
C      1  0.5181370000000  0.4584650000000  0.5111360000000 1.0
C      1  0.4821100000000  0.4693510000000  0.4700170000000 1.0
C      1  0.5179390000000  0.5106070000000  0.4588780000000 1.0
C      1  0.5001370000000  0.4995900000000  0.5001030000000 1.0
END
