TITL C-3289334-2237-608 0.00378460622495267 125000 -573.762727393606 0 0 106 (C1) n - 1
REM
REM in /nfs/bkarasulu/CARBON/AIRSS/Generating-Clusters/AIREBO/with-SteepDescent/Higher-Symm/SD-CG/HFTN-CG
REM
REM
REM
REM
REM
REM ./C.cell (b20cbc046b6831c77cfcea5457e17084)
REM
REM compiler GCC version 9.2.1 20190827 (Red Hat 9.2.1-1)
REM options -cpp -mtune=generic -march=x86-64 -g -O0 -fpre-include=/usr/include/finclude/math-vector-fortran.h
REM seed 1908436398 -1589542598 861545262 -1993770563 235959195 -2042142700 2119944704 -1763855414 1094316272 -1146666213 -1628788676 -1900961540 1014416984 289502754 -275153912 1945088052 -1106757558 -1812373671 -1205554246 1856707827 1191122403 1774041198 890934200 1504170450 1417343661 785712918 -1949598673 2089303728 -1336803641 625297152 -168521992 -1491761484 965068904
REM
CELL 1.54180   50.00000   50.00000   50.00000   90.00000   90.00000   90.00000
LATT -1
SFAC C  
C      1  0.4297740000000  0.4933520000000  0.4518950000000 1.0
C      1  0.5668790000000  0.4985850000000  0.5538680000000 1.0
C      1  0.5653150000000  0.4981230000000  0.4539680000000 1.0
C      1  0.4329730000000  0.4928970000000  0.5543460000000 1.0
C      1  0.4466040000000  0.5210960000000  0.4590170000000 1.0
C      1  0.5458000000000  0.5236250000000  0.5473020000000 1.0
C      1  0.5533230000000  0.5291190000000  0.4504900000000 1.0
C      1  0.4577200000000  0.5135840000000  0.5435420000000 1.0
C      1  0.5555460000000  0.4419020000000  0.5359280000000 1.0
C      1  0.4452750000000  0.4490960000000  0.4641920000000 1.0
C      1  0.4412250000000  0.4448920000000  0.5328350000000 1.0
C      1  0.5575090000000  0.4391270000000  0.4627590000000 1.0
C      1  0.4682950000000  0.4628820000000  0.4432930000000 1.0
C      1  0.5341490000000  0.4598370000000  0.5554170000000 1.0
C      1  0.5363240000000  0.4574650000000  0.4434870000000 1.0
C      1  0.4596230000000  0.4474740000000  0.5613180000000 1.0
C      1  0.4832830000000  0.4129510000000  0.4851380000000 1.0
C      1  0.5120490000000  0.4091900000000  0.5125180000000 1.0
C      1  0.5152070000000  0.4081470000000  0.4819720000000 1.0
C      1  0.4817310000000  0.4145930000000  0.5159610000000 1.0
C      1  0.5284840000000  0.4809460000000  0.4668380000000 1.0
C      1  0.4950370000000  0.4808800000000  0.5397370000000 1.0
C      1  0.4786860000000  0.4863270000000  0.4656570000000 1.0
C      1  0.5257620000000  0.4814340000000  0.5305100000000 1.0
C      1  0.5119500000000  0.4351680000000  0.4354140000000 1.0
C      1  0.4880990000000  0.4323060000000  0.5687840000000 1.0
C      1  0.4870960000000  0.4347780000000  0.4397140000000 1.0
C      1  0.5123040000000  0.4349880000000  0.5632680000000 1.0
C      1  0.4861850000000  0.5351170000000  0.4343300000000 1.0
C      1  0.5128090000000  0.5448730000000  0.5713230000000 1.0
C      1  0.5109080000000  0.5462640000000  0.4275690000000 1.0
C      1  0.4821830000000  0.5402240000000  0.5641800000000 1.0
C      1  0.4692830000000  0.4381150000000  0.5238730000000 1.0
C      1  0.5297590000000  0.4308050000000  0.4725600000000 1.0
C      1  0.5302500000000  0.4279920000000  0.5237670000000 1.0
C      1  0.4707900000000  0.4374610000000  0.4760450000000 1.0
C      1  0.4715290000000  0.5614120000000  0.5460570000000 1.0
C      1  0.5296720000000  0.5527640000000  0.4541490000000 1.0
C      1  0.5296480000000  0.5533840000000  0.5441470000000 1.0
C      1  0.4660780000000  0.5488520000000  0.4563940000000 1.0
C      1  0.4874190000000  0.4612290000000  0.4858450000000 1.0
C      1  0.5264320000000  0.4549690000000  0.5119140000000 1.0
C      1  0.5165900000000  0.4564720000000  0.4840410000000 1.0
C      1  0.4796650000000  0.4670630000000  0.5165640000000 1.0
C      1  0.5574250000000  0.4845750000000  0.4841490000000 1.0
C      1  0.4561380000000  0.4859300000000  0.5093240000000 1.0
C      1  0.4486170000000  0.4863160000000  0.4784540000000 1.0
C      1  0.5559770000000  0.4867320000000  0.5158450000000 1.0
C      1  0.3959860000000  0.5204750000000  0.4732830000000 1.0
C      1  0.5841320000000  0.5195130000000  0.5342750000000 1.0
C      1  0.5970260000000  0.5114090000000  0.4743360000000 1.0
C      1  0.4188220000000  0.5171810000000  0.5353460000000 1.0
C      1  0.4510190000000  0.5174160000000  0.4281570000000 1.0
C      1  0.5481290000000  0.5233730000000  0.5787400000000 1.0
C      1  0.5362290000000  0.5291980000000  0.4230110000000 1.0
C      1  0.4563460000000  0.5156610000000  0.5774570000000 1.0
C      1  0.4104890000000  0.4862570000000  0.5307150000000 1.0
C      1  0.5928480000000  0.4829170000000  0.4669030000000 1.0
C      1  0.5869710000000  0.4858520000000  0.5297940000000 1.0
C      1  0.4037710000000  0.4942240000000  0.4697430000000 1.0
C      1  0.4213900000000  0.4669270000000  0.4806320000000 1.0
C      1  0.5733490000000  0.4582650000000  0.5151230000000 1.0
C      1  0.5761330000000  0.4568570000000  0.4811650000000 1.0
C      1  0.4288090000000  0.4679950000000  0.5138390000000 1.0
C      1  0.4898140000000  0.5401990000000  0.4791270000000 1.0
C      1  0.5114470000000  0.5440870000000  0.5162570000000 1.0
C      1  0.5180550000000  0.5567050000000  0.4858630000000 1.0
C      1  0.4803660000000  0.5480220000000  0.5174720000000 1.0
C      1  0.4594910000000  0.5743470000000  0.5104140000000 1.0
C      1  0.5457930000000  0.5728510000000  0.4846920000000 1.0
C      1  0.5540630000000  0.5821160000000  0.5098930000000 1.0
C      1  0.4460540000000  0.5823530000000  0.4873890000000 1.0
C      1  0.5727420000000  0.5303800000000  0.4763280000000 1.0
C      1  0.4311970000000  0.5369050000000  0.5216530000000 1.0
C      1  0.4161130000000  0.5408520000000  0.4752820000000 1.0
C      1  0.5696100000000  0.5372660000000  0.5183000000000 1.0
C      1  0.4874970000000  0.5054650000000  0.4389680000000 1.0
C      1  0.5094990000000  0.5147860000000  0.5774200000000 1.0
C      1  0.5174420000000  0.4999130000000  0.4423300000000 1.0
C      1  0.4878910000000  0.5079860000000  0.5545460000000 1.0
C      1  0.5080060000000  0.5783350000000  0.4537710000000 1.0
C      1  0.4895090000000  0.5866050000000  0.5474950000000 1.0
C      1  0.4827290000000  0.5781730000000  0.4528800000000 1.0
C      1  0.5142310000000  0.5836520000000  0.5426640000000 1.0
C      1  0.4421920000000  0.5604860000000  0.5313380000000 1.0
C      1  0.5657710000000  0.5615170000000  0.4699550000000 1.0
C      1  0.5575540000000  0.5612310000000  0.5283850000000 1.0
C      1  0.4381700000000  0.5619860000000  0.4694300000000 1.0
C      1  0.5538700000000  0.4803760000000  0.5729510000000 1.0
C      1  0.4415880000000  0.4781050000000  0.4287590000000 1.0
C      1  0.4423310000000  0.4707410000000  0.5739310000000 1.0
C      1  0.5554860000000  0.4817140000000  0.4300040000000 1.0
C      1  0.5339360000000  0.4995870000000  0.4125870000000 1.0
C      1  0.4607610000000  0.4904150000000  0.5878740000000 1.0
C      1  0.4677720000000  0.4916700000000  0.4155730000000 1.0
C      1  0.5320090000000  0.4968500000000  0.5923980000000 1.0
C      1  0.5126470000000  0.4749750000000  0.5770970000000 1.0
C      1  0.4915580000000  0.4708800000000  0.4194460000000 1.0
C      1  0.4819760000000  0.4717140000000  0.5697880000000 1.0
C      1  0.5192570000000  0.4696920000000  0.4166490000000 1.0
C      1  0.4900060000000  0.5101000000000  0.4872260000000 1.0
C      1  0.5268850000000  0.5142790000000  0.5217040000000 1.0
C      1  0.5209540000000  0.5051720000000  0.4894810000000 1.0
C      1  0.4671760000000  0.5180380000000  0.5111610000000 1.0
C      1  0.4420360000000  0.5286740000000  0.4919050000000 1.0
C      1  0.5496870000000  0.5215790000000  0.4974010000000 1.0
END
