TITL C-3289331-6719-243 0.00379350605334625 125000 -371.41037266355 0 0 66 (C1) n - 1
REM
REM in /nfs/bkarasulu/CARBON/AIRSS/Generating-Clusters/AIREBO/with-SteepDescent/Higher-Symm/SD-CG/HFTN-CG
REM
REM
REM
REM
REM
REM ./C.cell (b20cbc046b6831c77cfcea5457e17084)
REM
REM compiler GCC version 9.2.1 20190827 (Red Hat 9.2.1-1)
REM options -cpp -mtune=generic -march=x86-64 -g -O0 -fpre-include=/usr/include/finclude/math-vector-fortran.h
REM seed 1434127631 -688242297 -1715061168 1027319471 -226413876 335720649 507365221 1748730686 1525435087 77703438 -391033099 -2135506762 614608802 -1161986479 -1647493587 349173467 -404635232 1525935644 -1765025048 -1742039232 -303453174 -2124707863 1596922533 2072819980 -1537211775 2054512393 -162124056 1602982879 -2055778463 1873125888 1683553428 -1948951969 -281316805
REM
CELL 1.54180   50.00000   50.00000   50.00000   90.00000   90.00000   90.00000
LATT -1
SFAC C  
C      1  0.4788170000000  0.5030770000000  0.4443150000000 1.0
C      1  0.4642700000000  0.4777600000000  0.4525850000000 1.0
C      1  0.4818600000000  0.4564660000000  0.4643930000000 1.0
C      1  0.4761280000000  0.4554020000000  0.4950980000000 1.0
C      1  0.4788210000000  0.4592730000000  0.5283550000000 1.0
C      1  0.4778890000000  0.4850130000000  0.5495650000000 1.0
C      1  0.4692900000000  0.5177550000000  0.5459550000000 1.0
C      1  0.4785530000000  0.5415380000000  0.5278140000000 1.0
C      1  0.4650490000000  0.5451910000000  0.5035420000000 1.0
C      1  0.4758440000000  0.5445430000000  0.4773670000000 1.0
C      1  0.4637530000000  0.5273820000000  0.4589800000000 1.0
C      1  0.5704390000000  0.5168940000000  0.5442820000000 1.0
C      1  0.5598600000000  0.5355260000000  0.5263900000000 1.0
C      1  0.5687060000000  0.5422270000000  0.5006730000000 1.0
C      1  0.5577700000000  0.5377480000000  0.4752380000000 1.0
C      1  0.5680670000000  0.5203890000000  0.4559500000000 1.0
C      1  0.5585820000000  0.4944050000000  0.4520030000000 1.0
C      1  0.5705810000000  0.4714410000000  0.4627980000000 1.0
C      1  0.5619410000000  0.4560400000000  0.4841460000000 1.0
C      1  0.5578770000000  0.4558680000000  0.5129880000000 1.0
C      1  0.5705950000000  0.4689170000000  0.5341660000000 1.0
C      1  0.5603480000000  0.4910750000000  0.5481510000000 1.0
C      1  0.5107560000000  0.4431050000000  0.5662740000000 1.0
C      1  0.5007440000000  0.4850140000000  0.5704370000000 1.0
C      1  0.4943260000000  0.5253760000000  0.5649750000000 1.0
C      1  0.5018280000000  0.5562810000000  0.5407260000000 1.0
C      1  0.5148610000000  0.5819280000000  0.5040570000000 1.0
C      1  0.4992290000000  0.5600910000000  0.4659130000000 1.0
C      1  0.4936680000000  0.5312610000000  0.4322620000000 1.0
C      1  0.5053390000000  0.4939700000000  0.4255610000000 1.0
C      1  0.5028530000000  0.4469090000000  0.4393110000000 1.0
C      1  0.5030480000000  0.4327030000000  0.4763550000000 1.0
C      1  0.4986780000000  0.4350470000000  0.5267700000000 1.0
C      1  0.5147930000000  0.5209600000000  0.4539240000000 1.0
C      1  0.5287430000000  0.4925290000000  0.4487530000000 1.0
C      1  0.5204270000000  0.4644980000000  0.4591990000000 1.0
C      1  0.5297010000000  0.4498260000000  0.4854480000000 1.0
C      1  0.5279320000000  0.4482370000000  0.5193690000000 1.0
C      1  0.5219480000000  0.4599580000000  0.5475960000000 1.0
C      1  0.5306410000000  0.4893300000000  0.5545290000000 1.0
C      1  0.5190910000000  0.5183070000000  0.5495610000000 1.0
C      1  0.5302110000000  0.5406800000000  0.5302820000000 1.0
C      1  0.5239990000000  0.5552410000000  0.5026420000000 1.0
C      1  0.5274870000000  0.5427150000000  0.4734840000000 1.0
C      1  0.4477150000000  0.4603640000000  0.5033430000000 1.0
C      1  0.4466060000000  0.4671190000000  0.5323430000000 1.0
C      1  0.4426770000000  0.4887070000000  0.5510070000000 1.0
C      1  0.4375070000000  0.5172470000000  0.5457460000000 1.0
C      1  0.4253800000000  0.5362190000000  0.5296430000000 1.0
C      1  0.4364700000000  0.5439800000000  0.5048240000000 1.0
C      1  0.4239180000000  0.5427330000000  0.4795640000000 1.0
C      1  0.4356380000000  0.5263820000000  0.4597100000000 1.0
C      1  0.4240740000000  0.5020900000000  0.4513970000000 1.0
C      1  0.4373110000000  0.4784800000000  0.4590830000000 1.0
C      1  0.4299470000000  0.4631000000000  0.4816580000000 1.0
C      1  0.4998910000000  0.4182180000000  0.5546300000000 1.0
C      1  0.5007310000000  0.4579110000000  0.5892810000000 1.0
C      1  0.4945920000000  0.5085850000000  0.5928740000000 1.0
C      1  0.4964460000000  0.5571450000000  0.5731180000000 1.0
C      1  0.5045020000000  0.5860640000000  0.5302200000000 1.0
C      1  0.5029480000000  0.5884190000000  0.4791050000000 1.0
C      1  0.4931710000000  0.5627690000000  0.4343100000000 1.0
C      1  0.5044100000000  0.5189360000000  0.4028090000000 1.0
C      1  0.5014750000000  0.4650280000000  0.4142510000000 1.0
C      1  0.5060730000000  0.4149440000000  0.4475140000000 1.0
C      1  0.4931760000000  0.4176570000000  0.5013900000000 1.0
END
