TITL C-3289335-9438-132 0.0039270738812188 125000 -343.992857424905 0 0 63 (C1) n - 1
REM
REM in /nfs/bkarasulu/CARBON/AIRSS/Generating-Clusters/AIREBO/with-SteepDescent/Higher-Symm/SD-CG/HFTN-CG
REM
REM
REM
REM
REM
REM ./C.cell (b20cbc046b6831c77cfcea5457e17084)
REM
REM compiler GCC version 9.2.1 20190827 (Red Hat 9.2.1-1)
REM options -cpp -mtune=generic -march=x86-64 -g -O0 -fpre-include=/usr/include/finclude/math-vector-fortran.h
REM seed 1059098800 -980229544 620912540 -1843034464 -562323049 -1667099395 1541747065 1657663167 -389088365 1005584858 1031402472 -1964033511 1450238979 -1773417503 1754170856 76173938 -116301933 -1333949846 -440741478 -1498442289 1980588382 846550360 1600938804 -1607200186 -1593260721 2004326815 902105755 -2079462971 1174278150 -2053563863 -56331224 2041614682 658048309
REM
CELL 1.54180   50.00000   50.00000   50.00000   90.00000   90.00000   90.00000
LATT -1
SFAC C  
C      1  0.5297790000000  0.5299290000000  0.5352490000000 1.0
C      1  0.5187300000000  0.5150000000000  0.4485260000000 1.0
C      1  0.4557650000000  0.5062820000000  0.4263640000000 1.0
C      1  0.4575790000000  0.4270890000000  0.4727740000000 1.0
C      1  0.4800820000000  0.4462460000000  0.4906450000000 1.0
C      1  0.4889960000000  0.5265310000000  0.4569040000000 1.0
C      1  0.5211280000000  0.4666250000000  0.5321810000000 1.0
C      1  0.4665320000000  0.5188850000000  0.5514760000000 1.0
C      1  0.4819770000000  0.5770420000000  0.4910560000000 1.0
C      1  0.4866740000000  0.5530980000000  0.5484350000000 1.0
C      1  0.5194670000000  0.4995650000000  0.5238910000000 1.0
C      1  0.5094210000000  0.5668600000000  0.4735380000000 1.0
C      1  0.4296380000000  0.5152030000000  0.4995930000000 1.0
C      1  0.4644860000000  0.5450420000000  0.4557570000000 1.0
C      1  0.5508000000000  0.4660690000000  0.5444510000000 1.0
C      1  0.5921250000000  0.5076270000000  0.4799600000000 1.0
C      1  0.4890330000000  0.4256190000000  0.4654510000000 1.0
C      1  0.4697220000000  0.4917640000000  0.5139030000000 1.0
C      1  0.5035660000000  0.4848790000000  0.4438850000000 1.0
C      1  0.5591040000000  0.5420800000000  0.5230400000000 1.0
C      1  0.5241650000000  0.4590470000000  0.4520870000000 1.0
C      1  0.4438900000000  0.4620850000000  0.5071030000000 1.0
C      1  0.5636670000000  0.5144720000000  0.4824010000000 1.0
C      1  0.4736910000000  0.4676160000000  0.5482810000000 1.0
C      1  0.5480460000000  0.4998070000000  0.4566380000000 1.0
C      1  0.5179250000000  0.4459980000000  0.5053220000000 1.0
C      1  0.4501240000000  0.5589010000000  0.5068790000000 1.0
C      1  0.4379990000000  0.4911210000000  0.5119190000000 1.0
C      1  0.5095270000000  0.4974530000000  0.5686010000000 1.0
C      1  0.4729080000000  0.5112150000000  0.4793160000000 1.0
C      1  0.4421340000000  0.5289520000000  0.5434420000000 1.0
C      1  0.4900570000000  0.4964600000000  0.5407440000000 1.0
C      1  0.4932700000000  0.5262300000000  0.5670660000000 1.0
C      1  0.5086390000000  0.5653850000000  0.5056710000000 1.0
C      1  0.5232060000000  0.5459300000000  0.4621690000000 1.0
C      1  0.5502010000000  0.4985830000000  0.5093000000000 1.0
C      1  0.4438640000000  0.5254130000000  0.4444440000000 1.0
C      1  0.5558540000000  0.4519300000000  0.5164960000000 1.0
C      1  0.5129640000000  0.5103450000000  0.4933390000000 1.0
C      1  0.5369870000000  0.4887320000000  0.5632710000000 1.0
C      1  0.4881910000000  0.4357470000000  0.5182670000000 1.0
C      1  0.4343270000000  0.5374470000000  0.5171970000000 1.0
C      1  0.4577860000000  0.5617470000000  0.4774470000000 1.0
C      1  0.4635880000000  0.4520200000000  0.5265620000000 1.0
C      1  0.5491480000000  0.4715000000000  0.4589870000000 1.0
C      1  0.4586780000000  0.4714680000000  0.4573600000000 1.0
C      1  0.5612200000000  0.4612000000000  0.4863430000000 1.0
C      1  0.5080810000000  0.4859590000000  0.4764820000000 1.0
C      1  0.4431250000000  0.4543660000000  0.4785300000000 1.0
C      1  0.5667440000000  0.5450370000000  0.4969830000000 1.0
C      1  0.5145390000000  0.4404400000000  0.4716470000000 1.0
C      1  0.5037240000000  0.5422380000000  0.5240750000000 1.0
C      1  0.4874910000000  0.5201820000000  0.5086950000000 1.0
C      1  0.4723610000000  0.4861040000000  0.4375440000000 1.0
C      1  0.4426520000000  0.5173450000000  0.4744450000000 1.0
C      1  0.5332350000000  0.5282800000000  0.4831890000000 1.0
C      1  0.4777680000000  0.4772310000000  0.4842350000000 1.0
C      1  0.5009170000000  0.4607130000000  0.5549820000000 1.0
C      1  0.5500970000000  0.5133740000000  0.5578020000000 1.0
C      1  0.5421600000000  0.4243050000000  0.5152370000000 1.0
C      1  0.5659990000000  0.5137330000000  0.5328490000000 1.0
C      1  0.5317580000000  0.4751810000000  0.4946900000000 1.0
C      1  0.4726910000000  0.5672750000000  0.5248850000000 1.0
END
