TITL C-3289331-6719-209 0.00629902966724606 125000 -533.970416615804 0 0 99 (C1) n - 1
REM
REM in /nfs/bkarasulu/CARBON/AIRSS/Generating-Clusters/AIREBO/with-SteepDescent/Higher-Symm/SD-CG/HFTN-CG
REM
REM
REM
REM
REM
REM ./C.cell (b20cbc046b6831c77cfcea5457e17084)
REM
REM compiler GCC version 9.2.1 20190827 (Red Hat 9.2.1-1)
REM options -cpp -mtune=generic -march=x86-64 -g -O0 -fpre-include=/usr/include/finclude/math-vector-fortran.h
REM seed 211351608 1969912831 -1258617023 -1519649887 2077743956 -702098457 721509640 132181711 1909172501 1692885937 1477801114 98451701 -1444273312 675008215 1462424624 2091013664 -1808589993 2026228032 -457560311 854895023 2092010423 1567069294 1588616039 -500996630 809361712 -995957171 96960188 -1296879305 -909613893 2025736910 -1471297776 -269488080 -461433977
REM
CELL 1.54180   50.00000   50.00000   50.00000   90.00000   90.00000   90.00000
LATT -1
SFAC C  
C      1  0.5128350000000  0.5212810000000  0.4897290000000 1.0
C      1  0.5119080000000  0.4808270000000  0.4792230000000 1.0
C      1  0.5078970000000  0.4692230000000  0.5219590000000 1.0
C      1  0.5086790000000  0.5164390000000  0.5304270000000 1.0
C      1  0.4848270000000  0.5281340000000  0.5214740000000 1.0
C      1  0.4762900000000  0.4757680000000  0.5160640000000 1.0
C      1  0.4841160000000  0.4702910000000  0.4772620000000 1.0
C      1  0.4860680000000  0.5201230000000  0.4823540000000 1.0
C      1  0.4279490000000  0.5400820000000  0.4673550000000 1.0
C      1  0.4359410000000  0.4722920000000  0.4677230000000 1.0
C      1  0.4246450000000  0.4741990000000  0.5351740000000 1.0
C      1  0.4294220000000  0.5402240000000  0.5344780000000 1.0
C      1  0.5690620000000  0.5341790000000  0.5343890000000 1.0
C      1  0.5852390000000  0.4565510000000  0.5277690000000 1.0
C      1  0.5722340000000  0.4606670000000  0.4727690000000 1.0
C      1  0.5702130000000  0.5393000000000  0.4596380000000 1.0
C      1  0.5014080000000  0.4646400000000  0.4335690000000 1.0
C      1  0.5030930000000  0.4326710000000  0.5370920000000 1.0
C      1  0.5022950000000  0.5432730000000  0.5744680000000 1.0
C      1  0.4924170000000  0.5782670000000  0.4612330000000 1.0
C      1  0.5027920000000  0.4571440000000  0.5728640000000 1.0
C      1  0.5000790000000  0.4283100000000  0.4590550000000 1.0
C      1  0.4975920000000  0.5275710000000  0.4432010000000 1.0
C      1  0.5008770000000  0.5777670000000  0.5247110000000 1.0
C      1  0.4677570000000  0.4227050000000  0.4509040000000 1.0
C      1  0.4671260000000  0.4506020000000  0.5712790000000 1.0
C      1  0.4667900000000  0.5811730000000  0.5453270000000 1.0
C      1  0.4657830000000  0.5444260000000  0.4261620000000 1.0
C      1  0.5343330000000  0.4223220000000  0.5457210000000 1.0
C      1  0.5357500000000  0.4535160000000  0.4271340000000 1.0
C      1  0.5264740000000  0.5728590000000  0.4618360000000 1.0
C      1  0.5277280000000  0.5630970000000  0.5634540000000 1.0
C      1  0.4134460000000  0.4930200000000  0.5176920000000 1.0
C      1  0.4100470000000  0.5254590000000  0.5192010000000 1.0
C      1  0.4131470000000  0.5173570000000  0.4863210000000 1.0
C      1  0.4154440000000  0.4850800000000  0.4875180000000 1.0
C      1  0.5872260000000  0.4863590000000  0.4836020000000 1.0
C      1  0.5775550000000  0.5139370000000  0.4706690000000 1.0
C      1  0.5811340000000  0.5052330000000  0.5324430000000 1.0
C      1  0.5928360000000  0.4853450000000  0.5109630000000 1.0
C      1  0.4905610000000  0.5258050000000  0.5944880000000 1.0
C      1  0.5133140000000  0.5983840000000  0.4789020000000 1.0
C      1  0.5183710000000  0.4737040000000  0.4059910000000 1.0
C      1  0.5168710000000  0.4061140000000  0.5209540000000 1.0
C      1  0.4869210000000  0.5208510000000  0.4136990000000 1.0
C      1  0.4755870000000  0.5987200000000  0.5178460000000 1.0
C      1  0.4810690000000  0.4718130000000  0.5938210000000 1.0
C      1  0.4844390000000  0.4018080000000  0.4726520000000 1.0
C      1  0.4461710000000  0.5320140000000  0.4450340000000 1.0
C      1  0.4494110000000  0.4428610000000  0.4691380000000 1.0
C      1  0.4552650000000  0.4721560000000  0.5498330000000 1.0
C      1  0.4469120000000  0.5619240000000  0.5306880000000 1.0
C      1  0.5473060000000  0.5402220000000  0.5540880000000 1.0
C      1  0.5556780000000  0.4419320000000  0.5297020000000 1.0
C      1  0.5548690000000  0.4693360000000  0.4473900000000 1.0
C      1  0.5469450000000  0.5510110000000  0.4701500000000 1.0
C      1  0.5131680000000  0.5061970000000  0.3974250000000 1.0
C      1  0.5045850000000  0.3869610000000  0.4956820000000 1.0
C      1  0.4982380000000  0.4972560000000  0.6085640000000 1.0
C      1  0.5026580000000  0.6103150000000  0.5008650000000 1.0
C      1  0.4677380000000  0.5028680000000  0.5975490000000 1.0
C      1  0.4876400000000  0.4143810000000  0.5051550000000 1.0
C      1  0.4871420000000  0.4880890000000  0.4046070000000 1.0
C      1  0.4812430000000  0.5780230000000  0.4911390000000 1.0
C      1  0.4791880000000  0.4393400000000  0.4851970000000 1.0
C      1  0.4892050000000  0.4732460000000  0.5475110000000 1.0
C      1  0.4761540000000  0.5561480000000  0.5159120000000 1.0
C      1  0.4695310000000  0.5145270000000  0.4551540000000 1.0
C      1  0.5254200000000  0.4447240000000  0.5144420000000 1.0
C      1  0.5243090000000  0.4824260000000  0.4515510000000 1.0
C      1  0.5366170000000  0.5361030000000  0.4912780000000 1.0
C      1  0.5205070000000  0.5257750000000  0.5527960000000 1.0
C      1  0.4802340000000  0.4458480000000  0.4293230000000 1.0
C      1  0.4807380000000  0.4296820000000  0.5540580000000 1.0
C      1  0.4838770000000  0.5696320000000  0.5633870000000 1.0
C      1  0.4771400000000  0.5672760000000  0.4366980000000 1.0
C      1  0.5230610000000  0.4374500000000  0.5712730000000 1.0
C      1  0.5218710000000  0.4313820000000  0.4419980000000 1.0
C      1  0.5134650000000  0.5490930000000  0.4441230000000 1.0
C      1  0.5189120000000  0.5809130000000  0.5438390000000 1.0
C      1  0.4133580000000  0.5633340000000  0.4630220000000 1.0
C      1  0.4262560000000  0.4754660000000  0.4410090000000 1.0
C      1  0.4362280000000  0.4495320000000  0.5229210000000 1.0
C      1  0.4423470000000  0.5210310000000  0.5505920000000 1.0
C      1  0.5884600000000  0.5543280000000  0.5323450000000 1.0
C      1  0.6066320000000  0.4401940000000  0.5334610000000 1.0
C      1  0.5890520000000  0.4386740000000  0.4679150000000 1.0
C      1  0.5861110000000  0.5520060000000  0.4419570000000 1.0
C      1  0.4614820000000  0.4894860000000  0.4753900000000 1.0
C      1  0.4585300000000  0.4523570000000  0.5085190000000 1.0
C      1  0.4539450000000  0.5012230000000  0.5369530000000 1.0
C      1  0.4424890000000  0.5297650000000  0.4964390000000 1.0
C      1  0.5614810000000  0.4800060000000  0.5342360000000 1.0
C      1  0.5513170000000  0.4575820000000  0.4967340000000 1.0
C      1  0.5506690000000  0.4941890000000  0.4702160000000 1.0
C      1  0.5551160000000  0.5234010000000  0.5083960000000 1.0
C      1  0.5501170000000  0.4907680000000  0.5040470000000 1.0
C      1  0.4652020000000  0.5060330000000  0.5052180000000 1.0
C      1  0.5182860000000  0.4947470000000  0.5077670000000 1.0
END
