TITL C-3289323-3850-466 -0.00170290806340027 125000 -509.752691358452 0 0 106 (C1) n - 1
REM
REM in /nfs/bkarasulu/CARBON/AIRSS/Generating-Clusters/AIREBO/with-SteepDescent/Higher-Symm/SD-CG/HFTN-CG
REM
REM
REM
REM
REM
REM ./C.cell (b20cbc046b6831c77cfcea5457e17084)
REM
REM compiler GCC version 9.2.1 20190827 (Red Hat 9.2.1-1)
REM options -cpp -mtune=generic -march=x86-64 -g -O0 -fpre-include=/usr/include/finclude/math-vector-fortran.h
REM seed 1604897335 -17178823 -32226350 1101215953 -1515250896 -698493961 1676089201 -690841300 1057615752 1803518236 141139983 1022304502 1633538789 -485915984 487225526 1335236001 -502530822 1685101591 890296943 -681330851 1699231703 -974927795 -50478830 -437914042 1761245404 1948379206 1033900130 -20510035 -2049856667 838793427 -329153623 1854063825 1424017630
REM
CELL 1.54180   50.00000   50.00000   50.00000   90.00000   90.00000   90.00000
LATT -1
SFAC C  
C      1  0.4081150000000  0.5239800000000  0.5143720000000 1.0
C      1  0.5341830000000  0.5223470000000  0.4093580000000 1.0
C      1  0.5585850000000  0.5242560000000  0.5727070000000 1.0
C      1  0.5918740000000  0.4742060000000  0.5106220000000 1.0
C      1  0.4632330000000  0.4734540000000  0.4147780000000 1.0
C      1  0.4424270000000  0.4736470000000  0.5740580000000 1.0
C      1  0.4832870000000  0.4385200000000  0.4451350000000 1.0
C      1  0.5546890000000  0.4395590000000  0.5125310000000 1.0
C      1  0.4600420000000  0.4385750000000  0.5420770000000 1.0
C      1  0.5172340000000  0.5586170000000  0.4440170000000 1.0
C      1  0.4428450000000  0.5607830000000  0.5131920000000 1.0
C      1  0.5377560000000  0.5609290000000  0.5444010000000 1.0
C      1  0.5262110000000  0.4431630000000  0.5311700000000 1.0
C      1  0.4585190000000  0.4401510000000  0.5084680000000 1.0
C      1  0.5127770000000  0.4430010000000  0.4608710000000 1.0
C      1  0.4712080000000  0.5597610000000  0.5319550000000 1.0
C      1  0.5404340000000  0.5602980000000  0.5105060000000 1.0
C      1  0.4880370000000  0.5599600000000  0.4614290000000 1.0
C      1  0.4441780000000  0.5200360000000  0.5501120000000 1.0
C      1  0.4866710000000  0.5191660000000  0.4284830000000 1.0
C      1  0.5696840000000  0.5206900000000  0.5227020000000 1.0
C      1  0.5547960000000  0.4826020000000  0.5442690000000 1.0
C      1  0.5116650000000  0.4812070000000  0.4277950000000 1.0
C      1  0.4338840000000  0.4818550000000  0.5249630000000 1.0
C      1  0.5659780000000  0.4356620000000  0.4798990000000 1.0
C      1  0.4824310000000  0.4345050000000  0.5681190000000 1.0
C      1  0.4493890000000  0.4354240000000  0.4511670000000 1.0
C      1  0.4313870000000  0.5664790000000  0.4800660000000 1.0
C      1  0.5157050000000  0.5658340000000  0.5711070000000 1.0
C      1  0.5511210000000  0.5635680000000  0.4498610000000 1.0
C      1  0.4452850000000  0.5371460000000  0.4888610000000 1.0
C      1  0.5355520000000  0.5353700000000  0.4607690000000 1.0
C      1  0.5158480000000  0.5366290000000  0.5536940000000 1.0
C      1  0.5533800000000  0.4654260000000  0.4904830000000 1.0
C      1  0.4655030000000  0.4646660000000  0.4576610000000 1.0
C      1  0.4800650000000  0.4642790000000  0.5518450000000 1.0
C      1  0.4625370000000  0.4946160000000  0.4873740000000 1.0
C      1  0.5242300000000  0.4953080000000  0.4713600000000 1.0
C      1  0.5087790000000  0.4932360000000  0.5398240000000 1.0
C      1  0.5365600000000  0.5101190000000  0.4919240000000 1.0
C      1  0.4773240000000  0.5112990000000  0.4700490000000 1.0
C      1  0.4860580000000  0.5096480000000  0.5383640000000 1.0
C      1  0.4611400000000  0.4914200000000  0.5429350000000 1.0
C      1  0.4851110000000  0.4905950000000  0.4469110000000 1.0
C      1  0.5543630000000  0.4923730000000  0.5116790000000 1.0
C      1  0.5347470000000  0.5100940000000  0.5439420000000 1.0
C      1  0.5259990000000  0.5067670000000  0.4450600000000 1.0
C      1  0.4450750000000  0.5097510000000  0.5090050000000 1.0
C      1  0.4764450000000  0.5530740000000  0.4931320000000 1.0
C      1  0.5202340000000  0.5546190000000  0.4842770000000 1.0
C      1  0.5038240000000  0.5521860000000  0.5243340000000 1.0
C      1  0.5224020000000  0.4515220000000  0.4924620000000 1.0
C      1  0.4811550000000  0.4500980000000  0.4841150000000 1.0
C      1  0.4936480000000  0.4511360000000  0.5235660000000 1.0
C      1  0.4410110000000  0.5415300000000  0.4554040000000 1.0
C      1  0.5675970000000  0.5411500000000  0.4706400000000 1.0
C      1  0.4902920000000  0.5420180000000  0.5754910000000 1.0
C      1  0.5588830000000  0.4608750000000  0.4572100000000 1.0
C      1  0.4337760000000  0.4603080000000  0.4691800000000 1.0
C      1  0.5058460000000  0.4592880000000  0.5734980000000 1.0
C      1  0.4860490000000  0.4597250000000  0.4215730000000 1.0
C      1  0.5738150000000  0.4607850000000  0.5264160000000 1.0
C      1  0.4380400000000  0.4598480000000  0.5505580000000 1.0
C      1  0.5132370000000  0.5362600000000  0.4216200000000 1.0
C      1  0.4262300000000  0.5384210000000  0.5291290000000 1.0
C      1  0.5611980000000  0.5391930000000  0.5496050000000 1.0
C      1  0.5747770000000  0.4883970000000  0.5656370000000 1.0
C      1  0.4049760000000  0.4874290000000  0.5301850000000 1.0
C      1  0.5201870000000  0.4857690000000  0.3997060000000 1.0
C      1  0.4255270000000  0.5141230000000  0.5714910000000 1.0
C      1  0.5975800000000  0.5145070000000  0.5276170000000 1.0
C      1  0.4764420000000  0.5132350000000  0.4018640000000 1.0
C      1  0.4762000000000  0.4790670000000  0.5150370000000 1.0
C      1  0.4981130000000  0.4784130000000  0.4759050000000 1.0
C      1  0.5231130000000  0.4789480000000  0.5125670000000 1.0
C      1  0.5197850000000  0.5232260000000  0.5163550000000 1.0
C      1  0.5021180000000  0.5269780000000  0.4806860000000 1.0
C      1  0.4759860000000  0.5238770000000  0.5106070000000 1.0
C      1  0.4546900000000  0.4958570000000  0.4326100000000 1.0
C      1  0.5826230000000  0.4969620000000  0.4933090000000 1.0
C      1  0.4623570000000  0.4963500000000  0.5765710000000 1.0
C      1  0.5489130000000  0.4988400000000  0.4242310000000 1.0
C      1  0.4152470000000  0.5024890000000  0.4943660000000 1.0
C      1  0.5376880000000  0.5026040000000  0.5769840000000 1.0
C      1  0.5689690000000  0.4842140000000  0.4369770000000 1.0
C      1  0.5188330000000  0.4859120000000  0.5885010000000 1.0
C      1  0.4142580000000  0.4861130000000  0.4721200000000 1.0
C      1  0.4347920000000  0.5137790000000  0.4402990000000 1.0
C      1  0.4802820000000  0.5137040000000  0.5887990000000 1.0
C      1  0.5842810000000  0.5137580000000  0.4715310000000 1.0
C      1  0.5659130000000  0.5457670000000  0.5024780000000 1.0
C      1  0.4642660000000  0.5449800000000  0.5574460000000 1.0
C      1  0.4696700000000  0.5440170000000  0.4425710000000 1.0
C      1  0.4372730000000  0.4601520000000  0.5008270000000 1.0
C      1  0.5329250000000  0.4601210000000  0.5549340000000 1.0
C      1  0.5306960000000  0.4581100000000  0.4426840000000 1.0
C      1  0.5186070000000  0.4216600000000  0.5082350000000 1.0
C      1  0.4847220000000  0.4208610000000  0.5109270000000 1.0
C      1  0.4990060000000  0.4213860000000  0.4805010000000 1.0
C      1  0.4817050000000  0.5819280000000  0.5097400000000 1.0
C      1  0.5155600000000  0.5819700000000  0.5129010000000 1.0
C      1  0.5012060000000  0.5822610000000  0.4818880000000 1.0
C      1  0.5896330000000  0.5004010000000  0.4473620000000 1.0
C      1  0.4112490000000  0.5006830000000  0.4482100000000 1.0
C      1  0.4998500000000  0.5001420000000  0.6038480000000 1.0
C      1  0.4990840000000  0.5004850000000  0.5017970000000 1.0
END
