TITL C-3289330-4660-522 5.82512443876918e-05 125000 -679.455778981862 0 0 126 (C1) n - 1
REM
REM in /nfs/bkarasulu/CARBON/AIRSS/Generating-Clusters/AIREBO/with-SteepDescent/Higher-Symm/SD-CG/HFTN-CG
REM
REM
REM
REM
REM
REM ./C.cell (b20cbc046b6831c77cfcea5457e17084)
REM
REM compiler GCC version 9.2.1 20190827 (Red Hat 9.2.1-1)
REM options -cpp -mtune=generic -march=x86-64 -g -O0 -fpre-include=/usr/include/finclude/math-vector-fortran.h
REM seed -705632074 -857183808 -111881940 -783706135 -1951706224 1313614997 -522013327 -449885145 877972689 -180004286 -1358085081 983836014 397739135 861845154 2077765987 -1369116438 -8375330 -795420690 665148061 -124456500 1994315957 -1609958060 -722955524 -432314976 -120003430 1650892878 -852188770 2041058582 -1783497825 635663695 1498722682 1050612239 -1802691061
REM
CELL 1.54180   50.00000   50.00000   50.00000   90.00000   90.00000   90.00000
LATT -1
SFAC C  
C      1  0.4436820000000  0.4848260000000  0.4248290000000 1.0
C      1  0.5724690000000  0.5029980000000  0.5628580000000 1.0
C      1  0.5455890000000  0.5075670000000  0.4932670000000 1.0
C      1  0.4167700000000  0.4458840000000  0.4702990000000 1.0
C      1  0.5322460000000  0.5118910000000  0.5378520000000 1.0
C      1  0.5345150000000  0.4666830000000  0.4227280000000 1.0
C      1  0.4406650000000  0.4599360000000  0.5494190000000 1.0
C      1  0.4274360000000  0.5707100000000  0.4592990000000 1.0
C      1  0.5458890000000  0.5668850000000  0.4488550000000 1.0
C      1  0.5064630000000  0.4340020000000  0.4955390000000 1.0
C      1  0.4260380000000  0.4607780000000  0.4411570000000 1.0
C      1  0.4202630000000  0.5078420000000  0.4620330000000 1.0
C      1  0.5651220000000  0.5699480000000  0.4762480000000 1.0
C      1  0.4721420000000  0.5926180000000  0.5261410000000 1.0
C      1  0.4138460000000  0.4475450000000  0.5325650000000 1.0
C      1  0.5791670000000  0.4359260000000  0.5408400000000 1.0
C      1  0.5794390000000  0.5423350000000  0.5189100000000 1.0
C      1  0.5053800000000  0.5985360000000  0.5294570000000 1.0
C      1  0.5277570000000  0.5616210000000  0.5511480000000 1.0
C      1  0.5593670000000  0.4792800000000  0.4228820000000 1.0
C      1  0.4656240000000  0.5355680000000  0.5018580000000 1.0
C      1  0.5253650000000  0.5739990000000  0.4762520000000 1.0
C      1  0.4059930000000  0.4769810000000  0.4613770000000 1.0
C      1  0.5373980000000  0.4205580000000  0.5699860000000 1.0
C      1  0.4693360000000  0.4541240000000  0.5370970000000 1.0
C      1  0.4369090000000  0.5424220000000  0.4855150000000 1.0
C      1  0.5121960000000  0.4185580000000  0.5829730000000 1.0
C      1  0.4949710000000  0.5142400000000  0.5557310000000 1.0
C      1  0.5538530000000  0.4553020000000  0.5024140000000 1.0
C      1  0.5251590000000  0.5920620000000  0.5486910000000 1.0
C      1  0.4499340000000  0.4786290000000  0.4859500000000 1.0
C      1  0.5008510000000  0.5439090000000  0.5401990000000 1.0
C      1  0.4659110000000  0.4066000000000  0.5249140000000 1.0
C      1  0.5575370000000  0.5266220000000  0.5651070000000 1.0
C      1  0.4939260000000  0.4954900000000  0.4800880000000 1.0
C      1  0.5070880000000  0.4846850000000  0.5674250000000 1.0
C      1  0.5824860000000  0.5137050000000  0.5072410000000 1.0
C      1  0.5294830000000  0.4104100000000  0.5052060000000 1.0
C      1  0.5496680000000  0.5409800000000  0.5353000000000 1.0
C      1  0.4909610000000  0.4330250000000  0.5726690000000 1.0
C      1  0.4790540000000  0.4936600000000  0.4411300000000 1.0
C      1  0.5251640000000  0.4267960000000  0.4691540000000 1.0
C      1  0.4977580000000  0.5622690000000  0.4900000000000 1.0
C      1  0.5072470000000  0.5194890000000  0.5180650000000 1.0
C      1  0.5454930000000  0.5895350000000  0.4959360000000 1.0
C      1  0.5731810000000  0.5141670000000  0.4745260000000 1.0
C      1  0.4721290000000  0.4901870000000  0.5943120000000 1.0
C      1  0.5025160000000  0.5081920000000  0.4218290000000 1.0
C      1  0.4304030000000  0.5274780000000  0.5494280000000 1.0
C      1  0.4811500000000  0.5151320000000  0.5867840000000 1.0
C      1  0.4375860000000  0.5094910000000  0.4913180000000 1.0
C      1  0.4758780000000  0.4706290000000  0.4654720000000 1.0
C      1  0.5293110000000  0.5426370000000  0.4756860000000 1.0
C      1  0.3969610000000  0.4917630000000  0.4901140000000 1.0
C      1  0.5327010000000  0.4406720000000  0.5467360000000 1.0
C      1  0.5279980000000  0.4525750000000  0.4507640000000 1.0
C      1  0.4750010000000  0.4432250000000  0.4865280000000 1.0
C      1  0.4135900000000  0.4787080000000  0.5453530000000 1.0
C      1  0.5044210000000  0.4745260000000  0.4174410000000 1.0
C      1  0.5196080000000  0.4781320000000  0.4659100000000 1.0
C      1  0.4709930000000  0.4685550000000  0.5088080000000 1.0
C      1  0.5346640000000  0.5271210000000  0.5831170000000 1.0
C      1  0.5236210000000  0.5485310000000  0.4365820000000 1.0
C      1  0.5233740000000  0.5021400000000  0.5916360000000 1.0
C      1  0.5013320000000  0.4120160000000  0.4566010000000 1.0
C      1  0.5111390000000  0.4277180000000  0.5274910000000 1.0
C      1  0.4710080000000  0.4797630000000  0.4111600000000 1.0
C      1  0.4431210000000  0.4312340000000  0.4824010000000 1.0
C      1  0.5591780000000  0.5389700000000  0.4635510000000 1.0
C      1  0.5639870000000  0.5727780000000  0.5158520000000 1.0
C      1  0.4871070000000  0.5314870000000  0.4105270000000 1.0
C      1  0.4162670000000  0.5403150000000  0.4585780000000 1.0
C      1  0.4852900000000  0.4620340000000  0.5803890000000 1.0
C      1  0.5574370000000  0.4377490000000  0.4482700000000 1.0
C      1  0.4737000000000  0.5541360000000  0.4321550000000 1.0
C      1  0.5324220000000  0.5167360000000  0.4308400000000 1.0
C      1  0.4951920000000  0.4246990000000  0.4330970000000 1.0
C      1  0.5213390000000  0.4863050000000  0.4977970000000 1.0
C      1  0.4915090000000  0.6008350000000  0.4984940000000 1.0
C      1  0.4578970000000  0.4774390000000  0.5674110000000 1.0
C      1  0.4435440000000  0.5552370000000  0.5375310000000 1.0
C      1  0.4838840000000  0.4265480000000  0.5419620000000 1.0
C      1  0.4880730000000  0.5449650000000  0.5801160000000 1.0
C      1  0.4277120000000  0.5742340000000  0.4926980000000 1.0
C      1  0.5792230000000  0.4544290000000  0.5217040000000 1.0
C      1  0.4392890000000  0.5954820000000  0.4395780000000 1.0
C      1  0.5349550000000  0.5342590000000  0.5050200000000 1.0
C      1  0.5035120000000  0.5313800000000  0.4565880000000 1.0
C      1  0.4941920000000  0.5284810000000  0.4884430000000 1.0
C      1  0.4423820000000  0.5089660000000  0.4399360000000 1.0
C      1  0.5514250000000  0.4276910000000  0.4876460000000 1.0
C      1  0.4805950000000  0.4118370000000  0.4746900000000 1.0
C      1  0.5201180000000  0.6094180000000  0.4939330000000 1.0
C      1  0.4634450000000  0.5052450000000  0.5516370000000 1.0
C      1  0.5910090000000  0.4806440000000  0.5037490000000 1.0
C      1  0.4610570000000  0.5374930000000  0.5606580000000 1.0
C      1  0.4556600000000  0.4527140000000  0.4448100000000 1.0
C      1  0.4147000000000  0.4465660000000  0.5044000000000 1.0
C      1  0.5359770000000  0.4685510000000  0.5609960000000 1.0
C      1  0.5159930000000  0.5479150000000  0.5769110000000 1.0
C      1  0.5467900000000  0.4871910000000  0.5367800000000 1.0
C      1  0.4717680000000  0.5244300000000  0.4464170000000 1.0
C      1  0.5660290000000  0.4252030000000  0.5624750000000 1.0
C      1  0.5521140000000  0.5169670000000  0.4068860000000 1.0
C      1  0.4863730000000  0.4961140000000  0.5202870000000 1.0
C      1  0.4562250000000  0.5100630000000  0.5199780000000 1.0
C      1  0.4604900000000  0.5738950000000  0.4522120000000 1.0
C      1  0.5878760000000  0.4707970000000  0.4732490000000 1.0
C      1  0.4158520000000  0.5062190000000  0.5379100000000 1.0
C      1  0.5762700000000  0.4920370000000  0.4494860000000 1.0
C      1  0.5763690000000  0.4414360000000  0.4703540000000 1.0
C      1  0.4100080000000  0.5100100000000  0.5107130000000 1.0
C      1  0.4952790000000  0.5676860000000  0.5203530000000 1.0
C      1  0.4982930000000  0.4722060000000  0.5373680000000 1.0
C      1  0.4879810000000  0.4549250000000  0.4374220000000 1.0
C      1  0.5902940000000  0.5655810000000  0.4970240000000 1.0
C      1  0.5430400000000  0.4970790000000  0.4546620000000 1.0
C      1  0.5615280000000  0.4812550000000  0.5763010000000 1.0
C      1  0.4717830000000  0.5795010000000  0.4805310000000 1.0
C      1  0.4211900000000  0.4739020000000  0.4980070000000 1.0
C      1  0.5565440000000  0.4784670000000  0.4809750000000 1.0
C      1  0.5773430000000  0.4928340000000  0.5323790000000 1.0
C      1  0.4570770000000  0.5676810000000  0.5088450000000 1.0
C      1  0.4591520000000  0.4082510000000  0.4974880000000 1.0
C      1  0.5034220000000  0.5649400000000  0.4231070000000 1.0
C      1  0.5275430000000  0.4637650000000  0.5222250000000 1.0
END
