TITL C-3289320-4661-220 -0.000404068398646475 125000 -860.861365801517 0 0 153 (C1) n - 1
REM
REM in /nfs/bkarasulu/CARBON/AIRSS/Generating-Clusters/AIREBO/with-SteepDescent/Higher-Symm/SD-CG/HFTN-CG
REM
REM
REM
REM
REM
REM ./C.cell (b20cbc046b6831c77cfcea5457e17084)
REM
REM compiler GCC version 9.2.1 20190827 (Red Hat 9.2.1-1)
REM options -cpp -mtune=generic -march=x86-64 -g -O0 -fpre-include=/usr/include/finclude/math-vector-fortran.h
REM seed 327746376 1176471795 -724460224 1685751898 -1752568221 1609934048 -1497421889 15244786 1020582333 2038770861 -1417870274 794155098 844014796 188005611 -1213184538 -2041380901 -308365550 -1069966318 -615332670 -1834443379 -778527042 -1690081668 -1651142103 -2094733103 -1131663341 569080547 1625092650 -1232720223 -28576369 1390945300 1378679991 1211135066 -1392029885
REM
CELL 1.54180   50.00000   50.00000   50.00000   90.00000   90.00000   90.00000
LATT -1
SFAC C  
C      1  0.4929920000000  0.4220420000000  0.5265160000000 1.0
C      1  0.4820990000000  0.5059330000000  0.4223390000000 1.0
C      1  0.4785220000000  0.5564660000000  0.5481250000000 1.0
C      1  0.4821510000000  0.3918140000000  0.4326790000000 1.0
C      1  0.4835060000000  0.6185170000000  0.4528210000000 1.0
C      1  0.4884240000000  0.4862940000000  0.6317140000000 1.0
C      1  0.5048350000000  0.4268160000000  0.5756900000000 1.0
C      1  0.4783910000000  0.4650400000000  0.3848870000000 1.0
C      1  0.4767370000000  0.6125850000000  0.5331030000000 1.0
C      1  0.5291590000000  0.5052290000000  0.5991590000000 1.0
C      1  0.5275410000000  0.4102850000000  0.4590990000000 1.0
C      1  0.5289310000000  0.5867780000000  0.4467030000000 1.0
C      1  0.4045320000000  0.5259510000000  0.5492540000000 1.0
C      1  0.4042110000000  0.4605580000000  0.4983650000000 1.0
C      1  0.4168200000000  0.5235720000000  0.4674510000000 1.0
C      1  0.4392630000000  0.4691870000000  0.5488610000000 1.0
C      1  0.4374500000000  0.4648470000000  0.4512110000000 1.0
C      1  0.4444920000000  0.5721770000000  0.4885770000000 1.0
C      1  0.4200900000000  0.4744740000000  0.5220730000000 1.0
C      1  0.4239430000000  0.4920570000000  0.4667920000000 1.0
C      1  0.4128150000000  0.5242410000000  0.5166230000000 1.0
C      1  0.5594630000000  0.4165700000000  0.5007260000000 1.0
C      1  0.5517010000000  0.5442620000000  0.4283430000000 1.0
C      1  0.5558660000000  0.5432000000000  0.5742630000000 1.0
C      1  0.5478910000000  0.4876210000000  0.5278490000000 1.0
C      1  0.5409590000000  0.4838020000000  0.4729590000000 1.0
C      1  0.5434240000000  0.5274160000000  0.4992900000000 1.0
C      1  0.4518260000000  0.5077250000000  0.4783310000000 1.0
C      1  0.4423730000000  0.5118840000000  0.5233340000000 1.0
C      1  0.4462270000000  0.4849210000000  0.5029520000000 1.0
C      1  0.5649830000000  0.4244930000000  0.5316940000000 1.0
C      1  0.5580000000000  0.5137930000000  0.4170350000000 1.0
C      1  0.5582480000000  0.5662170000000  0.5543880000000 1.0
C      1  0.4871510000000  0.4816830000000  0.4578960000000 1.0
C      1  0.4842580000000  0.5423960000000  0.5111310000000 1.0
C      1  0.4859390000000  0.4728660000000  0.5295430000000 1.0
C      1  0.4758930000000  0.4770040000000  0.4883230000000 1.0
C      1  0.4736070000000  0.5283240000000  0.4846280000000 1.0
C      1  0.4709310000000  0.4987220000000  0.5310190000000 1.0
C      1  0.4313820000000  0.4119220000000  0.4802380000000 1.0
C      1  0.4471600000000  0.5606640000000  0.4292410000000 1.0
C      1  0.4498900000000  0.5255790000000  0.5824050000000 1.0
C      1  0.4830600000000  0.5458170000000  0.4592660000000 1.0
C      1  0.4791150000000  0.5092390000000  0.5606700000000 1.0
C      1  0.4733260000000  0.4439630000000  0.4809160000000 1.0
C      1  0.5940530000000  0.5405810000000  0.5020510000000 1.0
C      1  0.5959040000000  0.4850080000000  0.5352230000000 1.0
C      1  0.5935220000000  0.4800030000000  0.4632750000000 1.0
C      1  0.5552610000000  0.4483050000000  0.4892470000000 1.0
C      1  0.5522310000000  0.5369410000000  0.4615510000000 1.0
C      1  0.5474610000000  0.5157190000000  0.5560710000000 1.0
C      1  0.4219210000000  0.5184830000000  0.5678440000000 1.0
C      1  0.4164550000000  0.4383310000000  0.4897730000000 1.0
C      1  0.4300230000000  0.5402470000000  0.4503920000000 1.0
C      1  0.5272790000000  0.4540040000000  0.4304390000000 1.0
C      1  0.5332170000000  0.5853270000000  0.4960900000000 1.0
C      1  0.5370650000000  0.4616190000000  0.5750890000000 1.0
C      1  0.5121680000000  0.5102520000000  0.4813880000000 1.0
C      1  0.5145870000000  0.5028620000000  0.5123900000000 1.0
C      1  0.5080320000000  0.4735310000000  0.4964720000000 1.0
C      1  0.5745590000000  0.4996750000000  0.4344580000000 1.0
C      1  0.5732090000000  0.5616740000000  0.5286930000000 1.0
C      1  0.5799550000000  0.4479620000000  0.5356190000000 1.0
C      1  0.4513250000000  0.5419900000000  0.5337350000000 1.0
C      1  0.4531650000000  0.4538060000000  0.5148120000000 1.0
C      1  0.4560090000000  0.5079820000000  0.4446710000000 1.0
C      1  0.5747020000000  0.5594060000000  0.4494270000000 1.0
C      1  0.5714760000000  0.5130810000000  0.5800100000000 1.0
C      1  0.5764220000000  0.4274690000000  0.4726710000000 1.0
C      1  0.3896390000000  0.4754410000000  0.4500670000000 1.0
C      1  0.4129540000000  0.5629830000000  0.4907330000000 1.0
C      1  0.3894910000000  0.4821770000000  0.5284120000000 1.0
C      1  0.5396850000000  0.4229070000000  0.5434200000000 1.0
C      1  0.5357660000000  0.4965290000000  0.4077600000000 1.0
C      1  0.5293740000000  0.5762550000000  0.5492820000000 1.0
C      1  0.3974410000000  0.4782480000000  0.4784300000000 1.0
C      1  0.4092250000000  0.5361910000000  0.4906480000000 1.0
C      1  0.3867160000000  0.5089690000000  0.5304730000000 1.0
C      1  0.5485810000000  0.5920070000000  0.4711060000000 1.0
C      1  0.5502550000000  0.4818410000000  0.5929710000000 1.0
C      1  0.5426360000000  0.4323760000000  0.4398790000000 1.0
C      1  0.5165470000000  0.5310610000000  0.4047500000000 1.0
C      1  0.5142830000000  0.5808670000000  0.5770800000000 1.0
C      1  0.4766470000000  0.3704470000000  0.5088100000000 1.0
C      1  0.4930210000000  0.5305220000000  0.5396600000000 1.0
C      1  0.4918340000000  0.4472000000000  0.5092910000000 1.0
C      1  0.4945570000000  0.5144620000000  0.4528110000000 1.0
C      1  0.4746010000000  0.5554960000000  0.5788140000000 1.0
C      1  0.4724570000000  0.4041640000000  0.5108590000000 1.0
C      1  0.4745650000000  0.5525810000000  0.4122980000000 1.0
C      1  0.4693580000000  0.4807350000000  0.4049950000000 1.0
C      1  0.4620910000000  0.5896380000000  0.5339660000000 1.0
C      1  0.4815100000000  0.4263110000000  0.5558740000000 1.0
C      1  0.5248740000000  0.5332310000000  0.5840510000000 1.0
C      1  0.5287090000000  0.4045190000000  0.4926230000000 1.0
C      1  0.5285420000000  0.5642540000000  0.4233830000000 1.0
C      1  0.5017420000000  0.5564700000000  0.4094490000000 1.0
C      1  0.5023930000000  0.5577240000000  0.5869470000000 1.0
C      1  0.5012790000000  0.3890550000000  0.5009910000000 1.0
C      1  0.5305350000000  0.4691270000000  0.4068930000000 1.0
C      1  0.5265750000000  0.5882240000000  0.5213340000000 1.0
C      1  0.5299600000000  0.4360790000000  0.5667820000000 1.0
C      1  0.5205350000000  0.5128210000000  0.4308520000000 1.0
C      1  0.5198940000000  0.5444600000000  0.5525460000000 1.0
C      1  0.5214520000000  0.4129410000000  0.5249290000000 1.0
C      1  0.4983730000000  0.5980540000000  0.4514410000000 1.0
C      1  0.5006060000000  0.4949490000000  0.6111460000000 1.0
C      1  0.4969580000000  0.4049380000000  0.4486460000000 1.0
C      1  0.5003280000000  0.4987980000000  0.5784170000000 1.0
C      1  0.4991350000000  0.4301840000000  0.4696120000000 1.0
C      1  0.5048190000000  0.5654390000000  0.4585520000000 1.0
C      1  0.5261820000000  0.4463580000000  0.4737730000000 1.0
C      1  0.5297630000000  0.5574210000000  0.4769740000000 1.0
C      1  0.5260880000000  0.4899790000000  0.5624280000000 1.0
C      1  0.4331800000000  0.4357330000000  0.5355480000000 1.0
C      1  0.4123500000000  0.4734440000000  0.4333850000000 1.0
C      1  0.4190670000000  0.5880190000000  0.5072220000000 1.0
C      1  0.5308280000000  0.5253760000000  0.5285820000000 1.0
C      1  0.5391900000000  0.4727830000000  0.5035270000000 1.0
C      1  0.5340230000000  0.5113100000000  0.4583160000000 1.0
C      1  0.5736060000000  0.5164400000000  0.4944260000000 1.0
C      1  0.5733600000000  0.5023500000000  0.5253760000000 1.0
C      1  0.5728390000000  0.4837710000000  0.4850190000000 1.0
C      1  0.5116280000000  0.5390090000000  0.4959220000000 1.0
C      1  0.5158200000000  0.4790660000000  0.5352160000000 1.0
C      1  0.5161500000000  0.4701850000000  0.4545220000000 1.0
C      1  0.5692390000000  0.4396970000000  0.4467190000000 1.0
C      1  0.5732530000000  0.5775580000000  0.4720550000000 1.0
C      1  0.5786270000000  0.4843570000000  0.5820680000000 1.0
C      1  0.6110700000000  0.5033830000000  0.4602010000000 1.0
C      1  0.6045570000000  0.5368620000000  0.5284180000000 1.0
C      1  0.6123000000000  0.4724070000000  0.5146310000000 1.0
C      1  0.5801840000000  0.5175730000000  0.4610770000000 1.0
C      1  0.5744710000000  0.5300780000000  0.5411930000000 1.0
C      1  0.5814860000000  0.4609940000000  0.5067950000000 1.0
C      1  0.5820350000000  0.5681880000000  0.4983190000000 1.0
C      1  0.5873860000000  0.4686050000000  0.5590710000000 1.0
C      1  0.5802250000000  0.4665070000000  0.4397870000000 1.0
C      1  0.4538380000000  0.5598130000000  0.4624600000000 1.0
C      1  0.4473990000000  0.4971790000000  0.5631780000000 1.0
C      1  0.4442660000000  0.4419020000000  0.4705420000000 1.0
C      1  0.4575620000000  0.4086400000000  0.5652140000000 1.0
C      1  0.4436030000000  0.5008290000000  0.4059750000000 1.0
C      1  0.4391770000000  0.5829090000000  0.5504670000000 1.0
C      1  0.4161980000000  0.5897530000000  0.5351930000000 1.0
C      1  0.4343660000000  0.4153020000000  0.5571090000000 1.0
C      1  0.4200340000000  0.4881750000000  0.4108130000000 1.0
C      1  0.4505920000000  0.5289690000000  0.4184300000000 1.0
C      1  0.4435580000000  0.5540790000000  0.5649780000000 1.0
C      1  0.4475140000000  0.4210010000000  0.5078830000000 1.0
C      1  0.4625650000000  0.5665570000000  0.5130860000000 1.0
C      1  0.4680910000000  0.4522030000000  0.5453240000000 1.0
C      1  0.4628060000000  0.4753560000000  0.4379220000000 1.0
END
