TITL C-3289332-8317-577 -0.00217633347659957 125000 -511.280494385294 0 0 91 (C1) n - 1
REM
REM in /nfs/bkarasulu/CARBON/AIRSS/Generating-Clusters/AIREBO/with-SteepDescent/Higher-Symm/SD-CG/HFTN-CG
REM
REM
REM
REM
REM
REM ./C.cell (b20cbc046b6831c77cfcea5457e17084)
REM
REM compiler GCC version 9.2.1 20190827 (Red Hat 9.2.1-1)
REM options -cpp -mtune=generic -march=x86-64 -g -O0 -fpre-include=/usr/include/finclude/math-vector-fortran.h
REM seed -1587343573 1604081244 1500703812 1934017511 -1526767602 -971542333 1648616758 1157662586 -1876780695 1839782200 796126473 -1074573963 63677529 -1207455981 -1414913734 674763516 -1471922086 1903128939 364081105 1325921625 1552682090 1436067416 -1892801812 -2144977799 2090914248 641497050 1596958076 329315524 515454827 -214013182 -41364178 -1870177797 1899081921
REM
CELL 1.54180   50.00000   50.00000   50.00000   90.00000   90.00000   90.00000
LATT -1
SFAC C  
C      1  0.5397970000000  0.4849760000000  0.4818620000000 1.0
C      1  0.5285460000000  0.4906080000000  0.5335720000000 1.0
C      1  0.4964520000000  0.4876170000000  0.5299270000000 1.0
C      1  0.4612900000000  0.4953380000000  0.5125300000000 1.0
C      1  0.4655500000000  0.4836260000000  0.4746370000000 1.0
C      1  0.5090780000000  0.4907880000000  0.4681320000000 1.0
C      1  0.5453620000000  0.5128710000000  0.4922210000000 1.0
C      1  0.5411520000000  0.5171720000000  0.5247830000000 1.0
C      1  0.4867610000000  0.5147260000000  0.5408470000000 1.0
C      1  0.4573150000000  0.5233910000000  0.5262880000000 1.0
C      1  0.4715020000000  0.5126760000000  0.4690850000000 1.0
C      1  0.4998970000000  0.5194740000000  0.4531680000000 1.0
C      1  0.4967620000000  0.5594220000000  0.5618270000000 1.0
C      1  0.4446840000000  0.5735070000000  0.5281520000000 1.0
C      1  0.4489240000000  0.5582570000000  0.4689550000000 1.0
C      1  0.5068940000000  0.5763550000000  0.4438590000000 1.0
C      1  0.5535040000000  0.5580040000000  0.4712340000000 1.0
C      1  0.5503520000000  0.5703590000000  0.5352120000000 1.0
C      1  0.4945150000000  0.4310470000000  0.5610590000000 1.0
C      1  0.4440160000000  0.4399270000000  0.5260790000000 1.0
C      1  0.4530600000000  0.4306330000000  0.4650160000000 1.0
C      1  0.5113180000000  0.4334900000000  0.4414510000000 1.0
C      1  0.5591480000000  0.4350090000000  0.4773650000000 1.0
C      1  0.5483370000000  0.4347410000000  0.5321830000000 1.0
C      1  0.4675930000000  0.5842400000000  0.5146260000000 1.0
C      1  0.4759800000000  0.5727020000000  0.4837000000000 1.0
C      1  0.5057990000000  0.5829320000000  0.4709700000000 1.0
C      1  0.5289910000000  0.5720050000000  0.4902130000000 1.0
C      1  0.5272530000000  0.5812540000000  0.5225360000000 1.0
C      1  0.4955900000000  0.5746680000000  0.5314350000000 1.0
C      1  0.4718750000000  0.4267680000000  0.5106470000000 1.0
C      1  0.4765290000000  0.4186080000000  0.4785330000000 1.0
C      1  0.5096640000000  0.4251310000000  0.4737750000000 1.0
C      1  0.5384130000000  0.4204890000000  0.4897360000000 1.0
C      1  0.5190550000000  0.4282270000000  0.5167150000000 1.0
C      1  0.4930300000000  0.4174810000000  0.5357840000000 1.0
C      1  0.5283940000000  0.5440080000000  0.5095450000000 1.0
C      1  0.5072180000000  0.5367320000000  0.5307030000000 1.0
C      1  0.4792440000000  0.5471780000000  0.5198330000000 1.0
C      1  0.4707700000000  0.5342510000000  0.4921400000000 1.0
C      1  0.4934070000000  0.5454940000000  0.4729950000000 1.0
C      1  0.5228140000000  0.5340620000000  0.4800570000000 1.0
C      1  0.5255760000000  0.4668130000000  0.5123600000000 1.0
C      1  0.4980340000000  0.4542540000000  0.5230790000000 1.0
C      1  0.4655130000000  0.4641620000000  0.5218210000000 1.0
C      1  0.4727330000000  0.4553850000000  0.4922090000000 1.0
C      1  0.4948250000000  0.4599200000000  0.4682530000000 1.0
C      1  0.5225520000000  0.4556720000000  0.4814920000000 1.0
C      1  0.4844570000000  0.5291660000000  0.4176460000000 1.0
C      1  0.5648730000000  0.5144410000000  0.4446640000000 1.0
C      1  0.5844060000000  0.5326900000000  0.5208220000000 1.0
C      1  0.5078410000000  0.5143090000000  0.5856190000000 1.0
C      1  0.4335050000000  0.5222810000000  0.5579700000000 1.0
C      1  0.4216310000000  0.5125770000000  0.4692220000000 1.0
C      1  0.4844550000000  0.4683850000000  0.4189970000000 1.0
C      1  0.5590720000000  0.4808130000000  0.4468790000000 1.0
C      1  0.5752870000000  0.4768810000000  0.5270960000000 1.0
C      1  0.5192610000000  0.4824350000000  0.5822570000000 1.0
C      1  0.4308750000000  0.4882790000000  0.5555420000000 1.0
C      1  0.4258650000000  0.4788430000000  0.4736920000000 1.0
C      1  0.4608810000000  0.5218930000000  0.4402770000000 1.0
C      1  0.5168720000000  0.5238690000000  0.4270950000000 1.0
C      1  0.5754540000000  0.5209060000000  0.4911040000000 1.0
C      1  0.5513330000000  0.5239590000000  0.5548600000000 1.0
C      1  0.4654710000000  0.5239130000000  0.5654180000000 1.0
C      1  0.4261150000000  0.5265580000000  0.5185430000000 1.0
C      1  0.4608150000000  0.4748890000000  0.4421200000000 1.0
C      1  0.5259900000000  0.4787620000000  0.4411910000000 1.0
C      1  0.5713820000000  0.4805860000000  0.4936740000000 1.0
C      1  0.5408550000000  0.4742650000000  0.5579720000000 1.0
C      1  0.4806720000000  0.4769360000000  0.5580870000000 1.0
C      1  0.4323080000000  0.4798480000000  0.5060670000000 1.0
C      1  0.4282550000000  0.4684680000000  0.5351660000000 1.0
C      1  0.4403560000000  0.4571880000000  0.4588930000000 1.0
C      1  0.5085490000000  0.4578280000000  0.4292620000000 1.0
C      1  0.5681050000000  0.4603880000000  0.4689650000000 1.0
C      1  0.5601190000000  0.4579560000000  0.5409330000000 1.0
C      1  0.4982080000000  0.4580610000000  0.5711830000000 1.0
C      1  0.4306340000000  0.5502130000000  0.5387670000000 1.0
C      1  0.4391580000000  0.5338300000000  0.4592220000000 1.0
C      1  0.5038840000000  0.5549140000000  0.4284160000000 1.0
C      1  0.5658890000000  0.5338720000000  0.4651190000000 1.0
C      1  0.5657300000000  0.5455020000000  0.5384480000000 1.0
C      1  0.4929720000000  0.5349420000000  0.5746750000000 1.0
C      1  0.5927030000000  0.5007990000000  0.5113060000000 1.0
C      1  0.4188020000000  0.5083880000000  0.4993370000000 1.0
C      1  0.4698330000000  0.4984190000000  0.4190460000000 1.0
C      1  0.5395010000000  0.5052420000000  0.4270670000000 1.0
C      1  0.5440600000000  0.5040570000000  0.5725310000000 1.0
C      1  0.4589300000000  0.4927350000000  0.5664770000000 1.0
C      1  0.4904790000000  0.4909010000000  0.4966050000000 1.0
END
