TITL C-3289329-2751-494 0.00269351756811337 125000 -653.425165810733 0 0 111 (C1) n - 1
REM
REM in /nfs/bkarasulu/CARBON/AIRSS/Generating-Clusters/AIREBO/with-SteepDescent/Higher-Symm/SD-CG/HFTN-CG
REM
REM
REM
REM
REM
REM ./C.cell (b20cbc046b6831c77cfcea5457e17084)
REM
REM compiler GCC version 9.2.1 20190827 (Red Hat 9.2.1-1)
REM options -cpp -mtune=generic -march=x86-64 -g -O0 -fpre-include=/usr/include/finclude/math-vector-fortran.h
REM seed 1971445641 -64681 1009292584 1792187494 1963439147 -223678014 2042505606 -1352730334 1474550489 -474841183 1959935294 1934617520 750707908 -1591354136 1307467443 877387830 -1938684630 -161694993 -1413175357 -1388124740 -1068256045 -1026972349 -183988161 1142805067 1681700880 478488182 -1348459960 -1241520565 1251984761 -1606654516 -2130872803 365178669 -2002521120
REM
CELL 1.54180   50.00000   50.00000   50.00000   90.00000   90.00000   90.00000
LATT -1
SFAC C  
C      1  0.4709640000000  0.4124860000000  0.4715540000000 1.0
C      1  0.4584720000000  0.4001820000000  0.4937370000000 1.0
C      1  0.4632460000000  0.4117600000000  0.5191600000000 1.0
C      1  0.4805390000000  0.3999170000000  0.5381860000000 1.0
C      1  0.5067700000000  0.4105950000000  0.5396450000000 1.0
C      1  0.5287820000000  0.3961170000000  0.5299830000000 1.0
C      1  0.5396140000000  0.3931960000000  0.5050130000000 1.0
C      1  0.5350800000000  0.4084150000000  0.4824210000000 1.0
C      1  0.5174570000000  0.4128210000000  0.4574590000000 1.0
C      1  0.4916180000000  0.4017320000000  0.4555170000000 1.0
C      1  0.5138650000000  0.4970280000000  0.5771950000000 1.0
C      1  0.5554200000000  0.4968560000000  0.5599200000000 1.0
C      1  0.5718760000000  0.4969510000000  0.5084770000000 1.0
C      1  0.5798340000000  0.4888060000000  0.4678630000000 1.0
C      1  0.5462920000000  0.4899690000000  0.4217890000000 1.0
C      1  0.4869750000000  0.4889690000000  0.4199110000000 1.0
C      1  0.4305940000000  0.4993850000000  0.4422530000000 1.0
C      1  0.4162950000000  0.4956980000000  0.4934800000000 1.0
C      1  0.4276050000000  0.4819800000000  0.5367210000000 1.0
C      1  0.4684870000000  0.4865360000000  0.5745320000000 1.0
C      1  0.5771380000000  0.5248860000000  0.5132830000000 1.0
C      1  0.5814080000000  0.5218030000000  0.4648460000000 1.0
C      1  0.5381760000000  0.5189300000000  0.4289370000000 1.0
C      1  0.4856330000000  0.5179550000000  0.4132990000000 1.0
C      1  0.4390330000000  0.5263390000000  0.4372680000000 1.0
C      1  0.4227700000000  0.5274560000000  0.4877270000000 1.0
C      1  0.4212100000000  0.5122920000000  0.5429090000000 1.0
C      1  0.4605460000000  0.5137550000000  0.5777720000000 1.0
C      1  0.5093310000000  0.5260640000000  0.5806640000000 1.0
C      1  0.5560810000000  0.5244920000000  0.5599870000000 1.0
C      1  0.5139320000000  0.5880200000000  0.5541720000000 1.0
C      1  0.5587400000000  0.5853080000000  0.5711880000000 1.0
C      1  0.5786440000000  0.6027090000000  0.5021690000000 1.0
C      1  0.5508840000000  0.5994080000000  0.4861230000000 1.0
C      1  0.5321380000000  0.5963330000000  0.4668290000000 1.0
C      1  0.5052550000000  0.5751400000000  0.4236530000000 1.0
C      1  0.4627300000000  0.5926030000000  0.4526770000000 1.0
C      1  0.4487690000000  0.5938630000000  0.4734930000000 1.0
C      1  0.4324740000000  0.5776100000000  0.5227570000000 1.0
C      1  0.4885720000000  0.5834280000000  0.5507290000000 1.0
C      1  0.4828020000000  0.4521060000000  0.5362580000000 1.0
C      1  0.5074110000000  0.4388540000000  0.5389010000000 1.0
C      1  0.5289820000000  0.4541450000000  0.5306210000000 1.0
C      1  0.5366180000000  0.4556210000000  0.5026020000000 1.0
C      1  0.5338640000000  0.4382490000000  0.4830530000000 1.0
C      1  0.5179260000000  0.4468210000000  0.4568960000000 1.0
C      1  0.4892340000000  0.4558330000000  0.4593380000000 1.0
C      1  0.4705590000000  0.4407000000000  0.4728540000000 1.0
C      1  0.4577950000000  0.4531260000000  0.4947410000000 1.0
C      1  0.4641390000000  0.4403440000000  0.5190560000000 1.0
C      1  0.4552230000000  0.5744050000000  0.4976390000000 1.0
C      1  0.4655410000000  0.5753370000000  0.5292720000000 1.0
C      1  0.4741760000000  0.5538760000000  0.5537070000000 1.0
C      1  0.5390590000000  0.5766520000000  0.5540840000000 1.0
C      1  0.5467990000000  0.5613320000000  0.5292820000000 1.0
C      1  0.5575460000000  0.5792090000000  0.5093850000000 1.0
C      1  0.5377370000000  0.5479320000000  0.4561250000000 1.0
C      1  0.5203420000000  0.5715190000000  0.4539080000000 1.0
C      1  0.4863870000000  0.5716870000000  0.4515800000000 1.0
C      1  0.4648840000000  0.5570200000000  0.4708180000000 1.0
C      1  0.5685260000000  0.4685660000000  0.5537000000000 1.0
C      1  0.5896260000000  0.4718110000000  0.4957340000000 1.0
C      1  0.5758900000000  0.4821610000000  0.4345760000000 1.0
C      1  0.5170050000000  0.4741190000000  0.4140410000000 1.0
C      1  0.4652550000000  0.4633610000000  0.4142690000000 1.0
C      1  0.4193850000000  0.4693410000000  0.4482990000000 1.0
C      1  0.4149940000000  0.4659340000000  0.5093430000000 1.0
C      1  0.4259690000000  0.4567450000000  0.5592390000000 1.0
C      1  0.4715150000000  0.4619650000000  0.5912070000000 1.0
C      1  0.5216960000000  0.4713810000000  0.5872540000000 1.0
C      1  0.5836150000000  0.4689260000000  0.5291290000000 1.0
C      1  0.6080170000000  0.4519250000000  0.4885560000000 1.0
C      1  0.5957400000000  0.4739890000000  0.4196010000000 1.0
C      1  0.4920420000000  0.4546970000000  0.4015210000000 1.0
C      1  0.4396410000000  0.4628790000000  0.4256910000000 1.0
C      1  0.4111010000000  0.4674260000000  0.4753190000000 1.0
C      1  0.4082460000000  0.4474890000000  0.5365530000000 1.0
C      1  0.4433090000000  0.4561800000000  0.5810760000000 1.0
C      1  0.4988870000000  0.4571500000000  0.5981160000000 1.0
C      1  0.5487710000000  0.4629880000000  0.5795960000000 1.0
C      1  0.4713190000000  0.5258520000000  0.4743250000000 1.0
C      1  0.4519050000000  0.5135150000000  0.4927150000000 1.0
C      1  0.4608400000000  0.5167430000000  0.5204180000000 1.0
C      1  0.4794800000000  0.5341390000000  0.5306570000000 1.0
C      1  0.5048010000000  0.5238390000000  0.5329040000000 1.0
C      1  0.5275790000000  0.5356780000000  0.5206010000000 1.0
C      1  0.5353510000000  0.5156660000000  0.5004940000000 1.0
C      1  0.5371520000000  0.5167190000000  0.4699060000000 1.0
C      1  0.5120010000000  0.5192930000000  0.4506350000000 1.0
C      1  0.4888720000000  0.5097270000000  0.4609620000000 1.0
C      1  0.4559700000000  0.4940760000000  0.5354310000000 1.0
C      1  0.4804270000000  0.4799440000000  0.5463640000000 1.0
C      1  0.5059790000000  0.4968260000000  0.5466780000000 1.0
C      1  0.5331430000000  0.4832890000000  0.5423730000000 1.0
C      1  0.5430330000000  0.4862840000000  0.5117770000000 1.0
C      1  0.5484440000000  0.4901120000000  0.4614640000000 1.0
C      1  0.5322370000000  0.4679490000000  0.4430390000000 1.0
C      1  0.4802040000000  0.4824820000000  0.4497120000000 1.0
C      1  0.4525530000000  0.4880320000000  0.4596260000000 1.0
C      1  0.4463040000000  0.4802840000000  0.4890150000000 1.0
C      1  0.4338420000000  0.5196250000000  0.5678480000000 1.0
C      1  0.4813770000000  0.5338600000000  0.5760460000000 1.0
C      1  0.5361220000000  0.5379310000000  0.5769450000000 1.0
C      1  0.5645220000000  0.5364720000000  0.5356430000000 1.0
C      1  0.5885720000000  0.5353170000000  0.4892130000000 1.0
C      1  0.5641920000000  0.5328940000000  0.4455110000000 1.0
C      1  0.5107410000000  0.5290250000000  0.4119640000000 1.0
C      1  0.4594570000000  0.5289840000000  0.4170370000000 1.0
C      1  0.4373230000000  0.5419000000000  0.4611250000000 1.0
C      1  0.4135260000000  0.5260570000000  0.5204240000000 1.0
C      1  0.5102140000000  0.4975930000000  0.4923290000000 1.0
END
