TITL C-3289322-3858-454 0.000965233827322454 125000 -792.28421854549 0 0 150 (Ci) n - 1
REM
REM in /nfs/bkarasulu/CARBON/AIRSS/Generating-Clusters/AIREBO/with-SteepDescent/Higher-Symm/SD-CG/HFTN-CG
REM
REM
REM
REM
REM
REM ./C.cell (b20cbc046b6831c77cfcea5457e17084)
REM
REM compiler GCC version 9.2.1 20190827 (Red Hat 9.2.1-1)
REM options -cpp -mtune=generic -march=x86-64 -g -O0 -fpre-include=/usr/include/finclude/math-vector-fortran.h
REM seed 801434281 -1612635455 -485706901 -1736646876 -1390523426 -1156252781 1896386886 -125734233 -614117798 1959494709 -1841973699 1189174479 285087472 -2013868460 1792494358 -513205629 -442409856 -1203765467 254510207 -426614153 1491506679 -691738564 -2013008770 -265741424 -2131140787 771673435 -1611534218 -1114531366 2050066011 1693928840 304016105 -1159993732 -1435670013
REM
CELL 1.54180   50.00000   50.00000   50.00000   90.00000   90.00000   90.00000
LATT -1
SFAC C  
C      1  0.5146380000000  0.4444480000000  0.5238350000000 1.0
C      1  0.4882740000000  0.4440950000000  0.4879470000000 1.0
C      1  0.5134500000000  0.4660560000000  0.4610370000000 1.0
C      1  0.4797890000000  0.4961720000000  0.4416580000000 1.0
C      1  0.5106820000000  0.5220720000000  0.4536720000000 1.0
C      1  0.4853950000000  0.5554850000000  0.4761680000000 1.0
C      1  0.5117750000000  0.5560540000000  0.5121020000000 1.0
C      1  0.4864890000000  0.5340390000000  0.5389490000000 1.0
C      1  0.5202590000000  0.5038580000000  0.5583440000000 1.0
C      1  0.4892410000000  0.4778950000000  0.5463520000000 1.0
C      1  0.4460660000000  0.5568240000000  0.5630050000000 1.0
C      1  0.5496470000000  0.5175680000000  0.5842370000000 1.0
C      1  0.4478140000000  0.4659080000000  0.5726930000000 1.0
C      1  0.5456270000000  0.4261890000000  0.5408480000000 1.0
C      1  0.4474760000000  0.4212340000000  0.4922470000000 1.0
C      1  0.5537810000000  0.4429110000000  0.4370400000000 1.0
C      1  0.4503700000000  0.4825090000000  0.4158280000000 1.0
C      1  0.5520480000000  0.5339920000000  0.4273210000000 1.0
C      1  0.4544240000000  0.5737910000000  0.4591540000000 1.0
C      1  0.5524890000000  0.5787530000000  0.5077530000000 1.0
C      1  0.5290080000000  0.4691750000000  0.5088040000000 1.0
C      1  0.4753330000000  0.4738530000000  0.4887530000000 1.0
C      1  0.5272850000000  0.4898650000000  0.4747010000000 1.0
C      1  0.4678510000000  0.5078020000000  0.4684170000000 1.0
C      1  0.5161710000000  0.5164010000000  0.4840270000000 1.0
C      1  0.4708770000000  0.5309900000000  0.4913530000000 1.0
C      1  0.5246510000000  0.5262480000000  0.5112150000000 1.0
C      1  0.4726690000000  0.5101480000000  0.5253680000000 1.0
C      1  0.5322230000000  0.4921940000000  0.5316620000000 1.0
C      1  0.4837770000000  0.4835940000000  0.5160120000000 1.0
C      1  0.5540570000000  0.5246520000000  0.5124360000000 1.0
C      1  0.4451440000000  0.5138390000000  0.5166410000000 1.0
C      1  0.5628860000000  0.5002930000000  0.5284740000000 1.0
C      1  0.4335530000000  0.4866650000000  0.5156140000000 1.0
C      1  0.5615310000000  0.4736080000000  0.5125600000000 1.0
C      1  0.4459350000000  0.4753640000000  0.4875820000000 1.0
C      1  0.5547960000000  0.4861430000000  0.4834390000000 1.0
C      1  0.4371100000000  0.4997220000000  0.4715600000000 1.0
C      1  0.5664550000000  0.5133120000000  0.4844080000000 1.0
C      1  0.4384760000000  0.5263390000000  0.4874690000000 1.0
C      1  0.4781230000000  0.4231640000000  0.4387560000000 1.0
C      1  0.5168190000000  0.4743290000000  0.4027200000000 1.0
C      1  0.4796730000000  0.5361920000000  0.4056400000000 1.0
C      1  0.5234860000000  0.5802290000000  0.4442010000000 1.0
C      1  0.4832570000000  0.5989740000000  0.5041290000000 1.0
C      1  0.5219770000000  0.5769180000000  0.5613150000000 1.0
C      1  0.4831810000000  0.5256220000000  0.5971910000000 1.0
C      1  0.5203220000000  0.4637650000000  0.5943090000000 1.0
C      1  0.4765270000000  0.4196640000000  0.5557680000000 1.0
C      1  0.5164410000000  0.4004970000000  0.4953840000000 1.0
C      1  0.4819980000000  0.4485120000000  0.5202020000000 1.0
C      1  0.5215180000000  0.4463350000000  0.4847470000000 1.0
C      1  0.4808220000000  0.4666670000000  0.4559690000000 1.0
C      1  0.5132580000000  0.4966670000000  0.4356220000000 1.0
C      1  0.4828600000000  0.5341070000000  0.4534710000000 1.0
C      1  0.5179900000000  0.5515040000000  0.4798390000000 1.0
C      1  0.4784890000000  0.5539330000000  0.5152750000000 1.0
C      1  0.5191500000000  0.5333620000000  0.5440130000000 1.0
C      1  0.4867540000000  0.5033280000000  0.5642640000000 1.0
C      1  0.5170260000000  0.4658880000000  0.5466410000000 1.0
C      1  0.4740020000000  0.4590700000000  0.5867390000000 1.0
C      1  0.5198780000000  0.4131670000000  0.5475950000000 1.0
C      1  0.4748680000000  0.4065860000000  0.4886270000000 1.0
C      1  0.5224400000000  0.4344200000000  0.4360130000000 1.0
C      1  0.4770510000000  0.4828740000000  0.4041830000000 1.0
C      1  0.5259840000000  0.5408900000000  0.4131340000000 1.0
C      1  0.4801930000000  0.5867420000000  0.4523370000000 1.0
C      1  0.5251770000000  0.5935630000000  0.5113150000000 1.0
C      1  0.4774000000000  0.5647980000000  0.5634590000000 1.0
C      1  0.5229300000000  0.5171700000000  0.5958090000000 1.0
C      1  0.5802500000000  0.4664550000000  0.4779690000000 1.0
C      1  0.4157920000000  0.4779030000000  0.4614310000000 1.0
C      1  0.5859260000000  0.5230120000000  0.4594830000000 1.0
C      1  0.4159540000000  0.5439700000000  0.4746700000000 1.0
C      1  0.5765570000000  0.5469900000000  0.5082030000000 1.0
C      1  0.4197380000000  0.5336400000000  0.5220140000000 1.0
C      1  0.5842110000000  0.5221250000000  0.5385760000000 1.0
C      1  0.4139940000000  0.4769440000000  0.5404560000000 1.0
C      1  0.5841200000000  0.4561060000000  0.5254510000000 1.0
C      1  0.4234300000000  0.4530150000000  0.4917900000000 1.0
C      1  0.5206970000000  0.5078530000000  0.4070760000000 1.0
C      1  0.4787860000000  0.5582680000000  0.4315120000000 1.0
C      1  0.5266510000000  0.5843280000000  0.4778190000000 1.0
C      1  0.4800270000000  0.5822000000000  0.5335540000000 1.0
C      1  0.5229720000000  0.5459600000000  0.5753710000000 1.0
C      1  0.4793030000000  0.4921000000000  0.5928190000000 1.0
C      1  0.5212070000000  0.4416410000000  0.5684790000000 1.0
C      1  0.4733680000000  0.4156740000000  0.5221370000000 1.0
C      1  0.5203080000000  0.4184130000000  0.4667170000000 1.0
C      1  0.4770300000000  0.4540750000000  0.4246040000000 1.0
C      1  0.5087900000000  0.4519560000000  0.4178620000000 1.0
C      1  0.4887350000000  0.5092150000000  0.4026400000000 1.0
C      1  0.5121800000000  0.5620220000000  0.4262900000000 1.0
C      1  0.4941870000000  0.5944560000000  0.4774580000000 1.0
C      1  0.5123490000000  0.5878040000000  0.5372830000000 1.0
C      1  0.4911740000000  0.5479180000000  0.5819270000000 1.0
C      1  0.5112700000000  0.4907740000000  0.5972950000000 1.0
C      1  0.4878010000000  0.4379060000000  0.5736400000000 1.0
C      1  0.5058130000000  0.4054830000000  0.5223380000000 1.0
C      1  0.4877760000000  0.4126380000000  0.4628860000000 1.0
C      1  0.3967570000000  0.4705600000000  0.4880500000000 1.0
C      1  0.5990940000000  0.4941540000000  0.4720630000000 1.0
C      1  0.3879610000000  0.5023780000000  0.4803970000000 1.0
C      1  0.6160870000000  0.5167070000000  0.4847900000000 1.0
C      1  0.3997430000000  0.5238410000000  0.4963010000000 1.0
C      1  0.6032320000000  0.5294740000000  0.5119360000000 1.0
C      1  0.4009620000000  0.5059020000000  0.5279550000000 1.0
C      1  0.6121290000000  0.4976730000000  0.5195110000000 1.0
C      1  0.3838780000000  0.4834290000000  0.5151500000000 1.0
C      1  0.6002510000000  0.4761790000000  0.5037060000000 1.0
C      1  0.4320960000000  0.4531710000000  0.4524390000000 1.0
C      1  0.5651890000000  0.4893830000000  0.4323610000000 1.0
C      1  0.4293540000000  0.5300370000000  0.4466470000000 1.0
C      1  0.5578370000000  0.5444320000000  0.4781550000000 1.0
C      1  0.4333800000000  0.5645300000000  0.5148440000000 1.0
C      1  0.5679660000000  0.5468790000000  0.5476050000000 1.0
C      1  0.4345340000000  0.5105040000000  0.5676890000000 1.0
C      1  0.5706280000000  0.4700160000000  0.5534420000000 1.0
C      1  0.4421360000000  0.4555460000000  0.5218390000000 1.0
C      1  0.5670100000000  0.4354900000000  0.4853470000000 1.0
C      1  0.5537570000000  0.4215140000000  0.4614490000000 1.0
C      1  0.4430430000000  0.4552100000000  0.4245840000000 1.0
C      1  0.5715860000000  0.5157480000000  0.4334230000000 1.0
C      1  0.4454240000000  0.5552630000000  0.4373970000000 1.0
C      1  0.5600790000000  0.5781610000000  0.4765640000000 1.0
C      1  0.4466480000000  0.5784640000000  0.5388580000000 1.0
C      1  0.5569600000000  0.5448670000000  0.5754520000000 1.0
C      1  0.4282380000000  0.4841200000000  0.5665820000000 1.0
C      1  0.5545610000000  0.4447370000000  0.5626010000000 1.0
C      1  0.4399370000000  0.4218180000000  0.5234340000000 1.0
C      1  0.5359630000000  0.5419840000000  0.4525860000000 1.0
C      1  0.4580220000000  0.5684110000000  0.4916820000000 1.0
C      1  0.5400590000000  0.5572070000000  0.5309490000000 1.0
C      1  0.4632030000000  0.5275550000000  0.5603460000000 1.0
C      1  0.5521010000000  0.4946410000000  0.5660150000000 1.0
C      1  0.4639770000000  0.4579720000000  0.5474450000000 1.0
C      1  0.5422370000000  0.4319020000000  0.5084090000000 1.0
C      1  0.4599850000000  0.4428040000000  0.4691170000000 1.0
C      1  0.5365480000000  0.4721450000000  0.4394740000000 1.0
C      1  0.4479450000000  0.5054390000000  0.4340640000000 1.0
C      1  0.5752510000000  0.4641270000000  0.4450470000000 1.0
C      1  0.4094570000000  0.5026650000000  0.4432020000000 1.0
C      1  0.5845050000000  0.5575760000000  0.4620630000000 1.0
C      1  0.4184590000000  0.5704870000000  0.4862110000000 1.0
C      1  0.5764170000000  0.5730000000000  0.5287680000000 1.0
C      1  0.4245110000000  0.5357930000000  0.5550060000000 1.0
C      1  0.5905690000000  0.4973670000000  0.5568060000000 1.0
C      1  0.4154570000000  0.4423770000000  0.5378860000000 1.0
C      1  0.5817590000000  0.4294890000000  0.5140480000000 1.0
C      1  0.4236050000000  0.4270280000000  0.4712030000000 1.0
END
