TITL C-3289335-9438-215 0.00123844093471142 125000 -374.615148306132 0 0 63 (C1) n - 1
REM
REM in /nfs/bkarasulu/CARBON/AIRSS/Generating-Clusters/AIREBO/with-SteepDescent/Higher-Symm/SD-CG/HFTN-CG
REM
REM
REM
REM
REM
REM ./C.cell (b20cbc046b6831c77cfcea5457e17084)
REM
REM compiler GCC version 9.2.1 20190827 (Red Hat 9.2.1-1)
REM options -cpp -mtune=generic -march=x86-64 -g -O0 -fpre-include=/usr/include/finclude/math-vector-fortran.h
REM seed -1242328118 94245777 1987227729 -245960934 -638003829 1507341476 -255730703 -1365826333 715698333 680605046 -1447242307 -918832628 1594754361 -1099091562 -939383323 170399770 -1729456050 -1110997601 -1750303094 159476148 402492921 -77737758 468204212 1675130391 999337372 -242940209 2025461388 -2134068008 1070091594 -1612535479 -769621755 834513994 2104474166
REM
CELL 1.54180   50.00000   50.00000   50.00000   90.00000   90.00000   90.00000
LATT -1
SFAC C  
C      1  0.5174220000000  0.4786720000000  0.5568730000000 1.0
C      1  0.4407840000000  0.4734300000000  0.5243870000000 1.0
C      1  0.4768410000000  0.4828420000000  0.4375460000000 1.0
C      1  0.5626900000000  0.4804610000000  0.4808910000000 1.0
C      1  0.4762320000000  0.5277670000000  0.5599170000000 1.0
C      1  0.5669800000000  0.5209990000000  0.5260890000000 1.0
C      1  0.5242670000000  0.5241390000000  0.4337210000000 1.0
C      1  0.4408720000000  0.5233590000000  0.4846910000000 1.0
C      1  0.5717220000000  0.4380550000000  0.5018640000000 1.0
C      1  0.5039990000000  0.4333210000000  0.5654790000000 1.0
C      1  0.4343490000000  0.4384820000000  0.4937500000000 1.0
C      1  0.4930630000000  0.4343650000000  0.4461770000000 1.0
C      1  0.4363580000000  0.5694870000000  0.4974320000000 1.0
C      1  0.4945680000000  0.5708390000000  0.5680230000000 1.0
C      1  0.5564650000000  0.5693480000000  0.5110500000000 1.0
C      1  0.4991620000000  0.5648060000000  0.4304960000000 1.0
C      1  0.5329400000000  0.4442350000000  0.4759360000000 1.0
C      1  0.5270870000000  0.4429830000000  0.5249860000000 1.0
C      1  0.4770440000000  0.4405900000000  0.5255650000000 1.0
C      1  0.4513360000000  0.4488120000000  0.4679070000000 1.0
C      1  0.4756130000000  0.5553860000000  0.4745780000000 1.0
C      1  0.4762670000000  0.5618450000000  0.5246510000000 1.0
C      1  0.5235440000000  0.5586390000000  0.5309950000000 1.0
C      1  0.5228670000000  0.5550210000000  0.4697720000000 1.0
C      1  0.4896710000000  0.4869720000000  0.5295540000000 1.0
C      1  0.4665460000000  0.4933370000000  0.4901220000000 1.0
C      1  0.5091650000000  0.4861060000000  0.4644530000000 1.0
C      1  0.5310080000000  0.4885640000000  0.5067330000000 1.0
C      1  0.5140550000000  0.5115760000000  0.5344370000000 1.0
C      1  0.5377600000000  0.5116850000000  0.4826680000000 1.0
C      1  0.4836230000000  0.5092380000000  0.4578820000000 1.0
C      1  0.4666330000000  0.5170570000000  0.5145280000000 1.0
C      1  0.4709400000000  0.4500560000000  0.4420840000000 1.0
C      1  0.5813410000000  0.4595210000000  0.4867170000000 1.0
C      1  0.5140580000000  0.4573750000000  0.5755020000000 1.0
C      1  0.4238570000000  0.4530330000000  0.5142860000000 1.0
C      1  0.5157500000000  0.5461030000000  0.4178690000000 1.0
C      1  0.4240860000000  0.5459240000000  0.4889300000000 1.0
C      1  0.4810490000000  0.5486840000000  0.5782760000000 1.0
C      1  0.5647570000000  0.5521080000000  0.5304310000000 1.0
C      1  0.4652600000000  0.5287440000000  0.4704850000000 1.0
C      1  0.5328760000000  0.5308190000000  0.4597040000000 1.0
C      1  0.5392130000000  0.5319980000000  0.5419100000000 1.0
C      1  0.4677650000000  0.5359240000000  0.5338610000000 1.0
C      1  0.5382940000000  0.4717580000000  0.4698500000000 1.0
C      1  0.4586640000000  0.4791270000000  0.4653840000000 1.0
C      1  0.4673200000000  0.4664800000000  0.5321620000000 1.0
C      1  0.5286180000000  0.4710400000000  0.5318750000000 1.0
C      1  0.4650050000000  0.5684340000000  0.4986510000000 1.0
C      1  0.4982500000000  0.5633840000000  0.4589780000000 1.0
C      1  0.5281080000000  0.5598870000000  0.4989540000000 1.0
C      1  0.4995890000000  0.5699140000000  0.5399070000000 1.0
C      1  0.5432500000000  0.4355850000000  0.5017700000000 1.0
C      1  0.5061310000000  0.4393120000000  0.4706900000000 1.0
C      1  0.4661530000000  0.4341970000000  0.4976180000000 1.0
C      1  0.5022060000000  0.4321490000000  0.5368330000000 1.0
C      1  0.4399220000000  0.4991500000000  0.5085570000000 1.0
C      1  0.4941920000000  0.5034510000000  0.5586620000000 1.0
C      1  0.5615270000000  0.5022900000000  0.5046590000000 1.0
C      1  0.5060500000000  0.5004510000000  0.4344650000000 1.0
C      1  0.4900470000000  0.4534390000000  0.4896840000000 1.0
C      1  0.5215340000000  0.5273590000000  0.5065960000000 1.0
C      1  0.4989400000000  0.4855140000000  0.4968740000000 1.0
END
