TITL C-3289334-2237-4 0.00178431155138513 125000 -314.297376712956 0 0 57 (C1) n - 1
REM
REM in /nfs/bkarasulu/CARBON/AIRSS/Generating-Clusters/AIREBO/with-SteepDescent/Higher-Symm/SD-CG/HFTN-CG
REM
REM
REM
REM
REM
REM ./C.cell (b20cbc046b6831c77cfcea5457e17084)
REM
REM compiler GCC version 9.2.1 20190827 (Red Hat 9.2.1-1)
REM options -cpp -mtune=generic -march=x86-64 -g -O0 -fpre-include=/usr/include/finclude/math-vector-fortran.h
REM seed 1764232134 456848131 744298555 808640893 1120291993 -1218629603 554682007 -1113392474 1895520361 691719757 1457475671 1234780733 -1852902518 1235130929 1398368957 -2104085858 -1206590069 -707492837 -893073310 1806714505 2137834968 539909807 -729674001 -2048327702 -1808282899 -873273617 -7096422 -228967787 164764050 -1989705875 697588140 -461767988 -1277012675
REM
CELL 1.54180   50.00000   50.00000   50.00000   90.00000   90.00000   90.00000
LATT -1
SFAC C  
C      1  0.4607270000000  0.5161080000000  0.4687890000000 1.0
C      1  0.4532750000000  0.4457770000000  0.5052920000000 1.0
C      1  0.4974370000000  0.4170270000000  0.4884610000000 1.0
C      1  0.5490640000000  0.4300230000000  0.4780640000000 1.0
C      1  0.5605130000000  0.5149810000000  0.4781680000000 1.0
C      1  0.5313820000000  0.5538840000000  0.4880970000000 1.0
C      1  0.4716390000000  0.5803390000000  0.5174140000000 1.0
C      1  0.4865040000000  0.4451780000000  0.5430950000000 1.0
C      1  0.5361760000000  0.4536660000000  0.5532850000000 1.0
C      1  0.5590640000000  0.4961920000000  0.5470230000000 1.0
C      1  0.5323570000000  0.5381740000000  0.5381580000000 1.0
C      1  0.4867590000000  0.5587780000000  0.5569050000000 1.0
C      1  0.4515250000000  0.5274140000000  0.5510910000000 1.0
C      1  0.4528020000000  0.4800280000000  0.5400230000000 1.0
C      1  0.4572580000000  0.4498190000000  0.5324540000000 1.0
C      1  0.5195140000000  0.4398890000000  0.5349870000000 1.0
C      1  0.5625950000000  0.4648360000000  0.5499330000000 1.0
C      1  0.5596950000000  0.5266080000000  0.5318410000000 1.0
C      1  0.4966040000000  0.5719450000000  0.5314050000000 1.0
C      1  0.4627150000000  0.5513480000000  0.5340350000000 1.0
C      1  0.4356940000000  0.5067350000000  0.5417630000000 1.0
C      1  0.5137650000000  0.4778270000000  0.4833150000000 1.0
C      1  0.5373760000000  0.5235700000000  0.4981260000000 1.0
C      1  0.5067850000000  0.5232250000000  0.4832770000000 1.0
C      1  0.4800350000000  0.5394100000000  0.4805540000000 1.0
C      1  0.4613010000000  0.4879470000000  0.4683930000000 1.0
C      1  0.4707350000000  0.4659830000000  0.4868620000000 1.0
C      1  0.4989460000000  0.4476020000000  0.4805730000000 1.0
C      1  0.5297880000000  0.4461760000000  0.4658210000000 1.0
C      1  0.5513770000000  0.5025690000000  0.4522560000000 1.0
C      1  0.5295430000000  0.5536640000000  0.4597640000000 1.0
C      1  0.4807390000000  0.5583020000000  0.4560130000000 1.0
C      1  0.4493210000000  0.5255740000000  0.4434180000000 1.0
C      1  0.4522520000000  0.4783900000000  0.4431350000000 1.0
C      1  0.4831560000000  0.4416810000000  0.4510340000000 1.0
C      1  0.4731510000000  0.4879210000000  0.5635010000000 1.0
C      1  0.4924560000000  0.4682610000000  0.5648560000000 1.0
C      1  0.5198960000000  0.4734760000000  0.5675110000000 1.0
C      1  0.5314870000000  0.4993030000000  0.5645340000000 1.0
C      1  0.5200800000000  0.5245330000000  0.5599620000000 1.0
C      1  0.4949230000000  0.5339360000000  0.5683280000000 1.0
C      1  0.4727020000000  0.5159630000000  0.5674220000000 1.0
C      1  0.4796450000000  0.5094560000000  0.5122100000000 1.0
C      1  0.4757730000000  0.4811000000000  0.5158630000000 1.0
C      1  0.4989330000000  0.4563120000000  0.5134560000000 1.0
C      1  0.5242390000000  0.4790680000000  0.5112220000000 1.0
C      1  0.5385230000000  0.5020110000000  0.5208930000000 1.0
C      1  0.5153740000000  0.5513980000000  0.5165510000000 1.0
C      1  0.4845690000000  0.5388280000000  0.5125530000000 1.0
C      1  0.5419400000000  0.4754460000000  0.4537910000000 1.0
C      1  0.5444640000000  0.5325970000000  0.4461190000000 1.0
C      1  0.5066700000000  0.5667560000000  0.4494220000000 1.0
C      1  0.4586540000000  0.5521130000000  0.4390890000000 1.0
C      1  0.4424030000000  0.5014840000000  0.4288220000000 1.0
C      1  0.4606520000000  0.4520290000000  0.4390120000000 1.0
C      1  0.5097210000000  0.4324820000000  0.4452270000000 1.0
C      1  0.5029050000000  0.4993400000000  0.4710050000000 1.0
END
