TITL C-3289333-7213-419 -0.00133248528962206 125000 -554.860640903347 0 0 99 (C1) n - 1
REM
REM in /nfs/bkarasulu/CARBON/AIRSS/Generating-Clusters/AIREBO/with-SteepDescent/Higher-Symm/SD-CG/HFTN-CG
REM
REM
REM
REM
REM
REM ./C.cell (b20cbc046b6831c77cfcea5457e17084)
REM
REM compiler GCC version 9.2.1 20190827 (Red Hat 9.2.1-1)
REM options -cpp -mtune=generic -march=x86-64 -g -O0 -fpre-include=/usr/include/finclude/math-vector-fortran.h
REM seed -2111212103 -666049473 34895367 248065586 1246394137 2024555104 741268686 1147478636 -2113741335 -140529965 901951493 138285473 -228926733 -957258210 -903393670 -480630534 -1108454581 1948255509 1335276350 1610967123 492496766 908815417 -1116028415 404030601 281794905 1722130715 -1516509547 -506469678 1363636913 -1494126573 1582888693 1089242824 42790677
REM
CELL 1.54180   50.00000   50.00000   50.00000   90.00000   90.00000   90.00000
LATT -1
SFAC C  
C      1  0.4718450000000  0.4847690000000  0.5067950000000 1.0
C      1  0.4810710000000  0.4766340000000  0.4793470000000 1.0
C      1  0.5216530000000  0.4974130000000  0.4732630000000 1.0
C      1  0.5280210000000  0.4926260000000  0.5217250000000 1.0
C      1  0.5029690000000  0.4904190000000  0.5429020000000 1.0
C      1  0.5379900000000  0.5196400000000  0.5221450000000 1.0
C      1  0.5046050000000  0.5149430000000  0.4869850000000 1.0
C      1  0.4755930000000  0.5098370000000  0.4743880000000 1.0
C      1  0.4676530000000  0.5128810000000  0.5186990000000 1.0
C      1  0.4932330000000  0.5222860000000  0.5345490000000 1.0
C      1  0.5401850000000  0.4770510000000  0.5019730000000 1.0
C      1  0.5295190000000  0.4815370000000  0.5582790000000 1.0
C      1  0.4681450000000  0.4635810000000  0.5273240000000 1.0
C      1  0.4614940000000  0.4581350000000  0.4616660000000 1.0
C      1  0.5128830000000  0.4802510000000  0.4531880000000 1.0
C      1  0.4537980000000  0.5328340000000  0.5021590000000 1.0
C      1  0.4857600000000  0.5412900000000  0.5578180000000 1.0
C      1  0.5653430000000  0.5222140000000  0.5341930000000 1.0
C      1  0.5504460000000  0.5270100000000  0.4618740000000 1.0
C      1  0.4881260000000  0.5209740000000  0.4472190000000 1.0
C      1  0.5562120000000  0.4805140000000  0.4309410000000 1.0
C      1  0.5826920000000  0.4800240000000  0.5263800000000 1.0
C      1  0.5022400000000  0.4839080000000  0.5922980000000 1.0
C      1  0.4192980000000  0.4830290000000  0.5195560000000 1.0
C      1  0.4485030000000  0.4766520000000  0.4380420000000 1.0
C      1  0.4474570000000  0.5116060000000  0.4197790000000 1.0
C      1  0.4223730000000  0.5195350000000  0.5333420000000 1.0
C      1  0.4951850000000  0.5215280000000  0.5829350000000 1.0
C      1  0.5865950000000  0.5314160000000  0.5145350000000 1.0
C      1  0.5402180000000  0.5264610000000  0.4360380000000 1.0
C      1  0.5688210000000  0.4570710000000  0.5451240000000 1.0
C      1  0.5042870000000  0.4610320000000  0.6050140000000 1.0
C      1  0.4080650000000  0.4605100000000  0.5121400000000 1.0
C      1  0.4463110000000  0.4432540000000  0.4368290000000 1.0
C      1  0.5671760000000  0.4663170000000  0.4099950000000 1.0
C      1  0.4144070000000  0.5413820000000  0.5454630000000 1.0
C      1  0.4954150000000  0.5542280000000  0.5867030000000 1.0
C      1  0.6019250000000  0.5517120000000  0.5096910000000 1.0
C      1  0.5224000000000  0.5473710000000  0.4288240000000 1.0
C      1  0.4431170000000  0.5325670000000  0.4046730000000 1.0
C      1  0.5117610000000  0.4511260000000  0.4492200000000 1.0
C      1  0.5282960000000  0.4511470000000  0.4967320000000 1.0
C      1  0.5133860000000  0.4244350000000  0.5103410000000 1.0
C      1  0.4652700000000  0.4391770000000  0.5168450000000 1.0
C      1  0.4717760000000  0.4383440000000  0.4859730000000 1.0
C      1  0.5144910000000  0.5599230000000  0.4879640000000 1.0
C      1  0.4640710000000  0.5598020000000  0.5083950000000 1.0
C      1  0.4720590000000  0.5620500000000  0.5400200000000 1.0
C      1  0.5174780000000  0.5662960000000  0.5273250000000 1.0
C      1  0.5445540000000  0.5492620000000  0.4759600000000 1.0
C      1  0.5672070000000  0.4793360000000  0.4561900000000 1.0
C      1  0.5774380000000  0.4947390000000  0.5552800000000 1.0
C      1  0.4747860000000  0.4966990000000  0.5790910000000 1.0
C      1  0.4227180000000  0.5106220000000  0.5008450000000 1.0
C      1  0.4713630000000  0.4886100000000  0.4173390000000 1.0
C      1  0.4334460000000  0.5036880000000  0.4486680000000 1.0
C      1  0.4351760000000  0.4915740000000  0.5473760000000 1.0
C      1  0.5251580000000  0.5076880000000  0.5857080000000 1.0
C      1  0.5792750000000  0.5033290000000  0.5018550000000 1.0
C      1  0.5326700000000  0.4994520000000  0.4244460000000 1.0
C      1  0.5767480000000  0.5026000000000  0.5854830000000 1.0
C      1  0.4479080000000  0.4911300000000  0.5930200000000 1.0
C      1  0.3985250000000  0.5127450000000  0.4799010000000 1.0
C      1  0.4927020000000  0.4882300000000  0.3929360000000 1.0
C      1  0.5883030000000  0.4652900000000  0.4697470000000 1.0
C      1  0.4284070000000  0.4871520000000  0.5770960000000 1.0
C      1  0.5551660000000  0.5053070000000  0.5985760000000 1.0
C      1  0.5932540000000  0.4734920000000  0.4951310000000 1.0
C      1  0.5171220000000  0.4941750000000  0.3956940000000 1.0
C      1  0.4033990000000  0.5061110000000  0.4557930000000 1.0
C      1  0.5175110000000  0.4319390000000  0.4313380000000 1.0
C      1  0.5437690000000  0.4216890000000  0.5010150000000 1.0
C      1  0.4999520000000  0.4033950000000  0.5214520000000 1.0
C      1  0.4698440000000  0.4130770000000  0.5282910000000 1.0
C      1  0.4696110000000  0.4068440000000  0.4799400000000 1.0
C      1  0.4889980000000  0.5732310000000  0.4895680000000 1.0
C      1  0.4592660000000  0.5895630000000  0.4926710000000 1.0
C      1  0.4929190000000  0.5802460000000  0.5298490000000 1.0
C      1  0.5420800000000  0.5771910000000  0.5321220000000 1.0
C      1  0.5425450000000  0.5789580000000  0.4853670000000 1.0
C      1  0.5068640000000  0.4371170000000  0.6154220000000 1.0
C      1  0.3991440000000  0.4373180000000  0.5038040000000 1.0
C      1  0.4386800000000  0.4221510000000  0.4251780000000 1.0
C      1  0.5791450000000  0.4548530000000  0.3896910000000 1.0
C      1  0.5465570000000  0.4586130000000  0.5581820000000 1.0
C      1  0.4992990000000  0.5745690000000  0.6012390000000 1.0
C      1  0.6155070000000  0.5732210000000  0.5033850000000 1.0
C      1  0.4958700000000  0.5447520000000  0.4367890000000 1.0
C      1  0.4371110000000  0.5520750000000  0.3882370000000 1.0
C      1  0.4088460000000  0.5640980000000  0.5572940000000 1.0
C      1  0.5469680000000  0.5091830000000  0.5596640000000 1.0
C      1  0.4993780000000  0.4969500000000  0.4313310000000 1.0
C      1  0.4691440000000  0.4924060000000  0.5458050000000 1.0
C      1  0.5543630000000  0.4979890000000  0.4792270000000 1.0
C      1  0.4447830000000  0.5157280000000  0.4754450000000 1.0
C      1  0.4748540000000  0.3918570000000  0.5043220000000 1.0
C      1  0.4820200000000  0.6012840000000  0.5123730000000 1.0
C      1  0.5133750000000  0.5361110000000  0.5122080000000 1.0
C      1  0.5023510000000  0.4514990000000  0.4788050000000 1.0
END
