TITL C-3289323-3850-412 0.000906504829840038 125000 -254.571275689707 0 0 50 (C1) n - 1
REM
REM in /nfs/bkarasulu/CARBON/AIRSS/Generating-Clusters/AIREBO/with-SteepDescent/Higher-Symm/SD-CG/HFTN-CG
REM
REM
REM
REM
REM
REM ./C.cell (b20cbc046b6831c77cfcea5457e17084)
REM
REM compiler GCC version 9.2.1 20190827 (Red Hat 9.2.1-1)
REM options -cpp -mtune=generic -march=x86-64 -g -O0 -fpre-include=/usr/include/finclude/math-vector-fortran.h
REM seed 230871769 -366114383 -182843884 146926577 -266666589 1965971321 316185973 263556514 1531156771 383282561 -1222841420 1597287582 -685652153 -895477748 -1693123579 1928260719 -883060565 563583716 -1038237170 1942804381 -900198663 -447237326 -507932446 1740825972 -2050783008 257705772 -2050062433 -1461691915 -1458627062 -991449768 -17834633 1600752128 1897912549
REM
CELL 1.54180   50.00000   50.00000   50.00000   90.00000   90.00000   90.00000
LATT -1
SFAC C  
C      1  0.5176930000000  0.4732210000000  0.5177410000000 1.0
C      1  0.5153650000000  0.5268920000000  0.5185290000000 1.0
C      1  0.5096150000000  0.4976560000000  0.4630830000000 1.0
C      1  0.4885990000000  0.4693670000000  0.5201470000000 1.0
C      1  0.4857170000000  0.5260700000000  0.5134240000000 1.0
C      1  0.4803720000000  0.4985500000000  0.4664890000000 1.0
C      1  0.4220770000000  0.4722860000000  0.4988970000000 1.0
C      1  0.4216610000000  0.5208940000000  0.5174600000000 1.0
C      1  0.4116490000000  0.5164540000000  0.4628600000000 1.0
C      1  0.5818900000000  0.4738180000000  0.4994730000000 1.0
C      1  0.5813920000000  0.5221440000000  0.5179760000000 1.0
C      1  0.5975320000000  0.5163520000000  0.4649830000000 1.0
C      1  0.5406780000000  0.4482290000000  0.5195370000000 1.0
C      1  0.5375410000000  0.5385500000000  0.5407620000000 1.0
C      1  0.5371630000000  0.5098260000000  0.4483580000000 1.0
C      1  0.4649110000000  0.4451260000000  0.5173530000000 1.0
C      1  0.4660050000000  0.5394070000000  0.5377120000000 1.0
C      1  0.4633340000000  0.5141360000000  0.4415260000000 1.0
C      1  0.5222650000000  0.5483170000000  0.4855940000000 1.0
C      1  0.5135640000000  0.4538130000000  0.4651720000000 1.0
C      1  0.5150550000000  0.4899070000000  0.5577810000000 1.0
C      1  0.4903320000000  0.5504970000000  0.4807400000000 1.0
C      1  0.4805720000000  0.4586360000000  0.4644120000000 1.0
C      1  0.4838250000000  0.4861100000000  0.5561220000000 1.0
C      1  0.5175590000000  0.5209830000000  0.5579460000000 1.0
C      1  0.5167860000000  0.5359540000000  0.4546850000000 1.0
C      1  0.5185430000000  0.4398110000000  0.4958090000000 1.0
C      1  0.4869170000000  0.5176070000000  0.5524830000000 1.0
C      1  0.4866270000000  0.5366830000000  0.4489860000000 1.0
C      1  0.4877330000000  0.4404880000000  0.4925800000000 1.0
C      1  0.4749730000000  0.4780830000000  0.4905230000000 1.0
C      1  0.4705300000000  0.4980880000000  0.5179970000000 1.0
C      1  0.4700930000000  0.5250520000000  0.4833150000000 1.0
C      1  0.5225500000000  0.4778710000000  0.4847020000000 1.0
C      1  0.5308380000000  0.5029140000000  0.5060390000000 1.0
C      1  0.5407130000000  0.5236670000000  0.4854850000000 1.0
C      1  0.4433840000000  0.5135120000000  0.4692480000000 1.0
C      1  0.4364730000000  0.4545320000000  0.5083600000000 1.0
C      1  0.4363700000000  0.5304660000000  0.5349630000000 1.0
C      1  0.5638830000000  0.5138760000000  0.4663040000000 1.0
C      1  0.5690220000000  0.4557340000000  0.5102270000000 1.0
C      1  0.5670270000000  0.5303610000000  0.5364220000000 1.0
C      1  0.4723390000000  0.4592390000000  0.5482420000000 1.0
C      1  0.4755160000000  0.5583810000000  0.5104510000000 1.0
C      1  0.4663480000000  0.4795420000000  0.4419960000000 1.0
C      1  0.5317980000000  0.4666790000000  0.5479780000000 1.0
C      1  0.5274410000000  0.5589910000000  0.5156530000000 1.0
C      1  0.5296080000000  0.4765580000000  0.4454430000000 1.0
C      1  0.5828100000000  0.5038430000000  0.4929640000000 1.0
C      1  0.4207180000000  0.5025680000000  0.4923410000000 1.0
END
