TITL C-3289331-6719-340 0.00084282740467696 125000 -1089.57099815887 0 0 200 (C1) n - 1
REM
REM in /nfs/bkarasulu/CARBON/AIRSS/Generating-Clusters/AIREBO/with-SteepDescent/Higher-Symm/SD-CG/HFTN-CG
REM
REM
REM
REM
REM
REM ./C.cell (b20cbc046b6831c77cfcea5457e17084)
REM
REM compiler GCC version 9.2.1 20190827 (Red Hat 9.2.1-1)
REM options -cpp -mtune=generic -march=x86-64 -g -O0 -fpre-include=/usr/include/finclude/math-vector-fortran.h
REM seed -630023058 368045546 1885214755 1622616655 125825916 1222002273 1687462361 1191007161 1596941898 -1469312525 240193418 -467301063 1871265452 434532621 -1187457146 -2133046671 -941321968 1094339163 -1760338765 -1272233516 -421999929 -339529012 -1599723106 -1923109948 294815476 -1351598054 -465110426 -2129419033 -432181726 1922016877 93439599 -79094311 -1083076630
REM
CELL 1.54180   50.00000   50.00000   50.00000   90.00000   90.00000   90.00000
LATT -1
SFAC C  
C      1  0.5456510000000  0.4193150000000  0.4291510000000 1.0
C      1  0.4801140000000  0.4290760000000  0.4294710000000 1.0
C      1  0.4301620000000  0.4809910000000  0.4300410000000 1.0
C      1  0.4421610000000  0.5354570000000  0.4323290000000 1.0
C      1  0.4930650000000  0.5745740000000  0.4314370000000 1.0
C      1  0.5588570000000  0.5436690000000  0.4177540000000 1.0
C      1  0.5817000000000  0.4909860000000  0.4284960000000 1.0
C      1  0.4764740000000  0.5262680000000  0.4781710000000 1.0
C      1  0.5073820000000  0.5383570000000  0.4759540000000 1.0
C      1  0.5268730000000  0.5194670000000  0.4857180000000 1.0
C      1  0.5405850000000  0.4936150000000  0.4735910000000 1.0
C      1  0.5237870000000  0.4713390000000  0.4831070000000 1.0
C      1  0.4958320000000  0.4778070000000  0.4751870000000 1.0
C      1  0.4884780000000  0.4966030000000  0.5095380000000 1.0
C      1  0.5985000000000  0.4877290000000  0.5328090000000 1.0
C      1  0.5502120000000  0.4128960000000  0.5332730000000 1.0
C      1  0.4673320000000  0.3971810000000  0.5253570000000 1.0
C      1  0.4053770000000  0.4631880000000  0.5379800000000 1.0
C      1  0.4167550000000  0.5657780000000  0.5250000000000 1.0
C      1  0.4879120000000  0.5972780000000  0.5417840000000 1.0
C      1  0.5726770000000  0.5758580000000  0.5252470000000 1.0
C      1  0.5243800000000  0.4133640000000  0.4485710000000 1.0
C      1  0.4530470000000  0.4333950000000  0.4457880000000 1.0
C      1  0.4174420000000  0.4970970000000  0.4543000000000 1.0
C      1  0.4431330000000  0.5641240000000  0.4409640000000 1.0
C      1  0.5199100000000  0.5906580000000  0.4308300000000 1.0
C      1  0.5657170000000  0.5337990000000  0.4495610000000 1.0
C      1  0.5783440000000  0.4686320000000  0.4490170000000 1.0
C      1  0.5274690000000  0.4597020000000  0.4008240000000 1.0
C      1  0.4727230000000  0.4655640000000  0.3961400000000 1.0
C      1  0.4538460000000  0.4936670000000  0.3929640000000 1.0
C      1  0.4709530000000  0.5230580000000  0.3934440000000 1.0
C      1  0.4991450000000  0.5425220000000  0.3910240000000 1.0
C      1  0.5524080000000  0.5215010000000  0.3937160000000 1.0
C      1  0.5391850000000  0.4904080000000  0.3988610000000 1.0
C      1  0.5030520000000  0.6029160000000  0.4577030000000 1.0
C      1  0.5773290000000  0.5635250000000  0.4613230000000 1.0
C      1  0.6023820000000  0.4745160000000  0.4723750000000 1.0
C      1  0.5422340000000  0.4056260000000  0.4750940000000 1.0
C      1  0.4515770000000  0.4068970000000  0.4660660000000 1.0
C      1  0.4003910000000  0.4787690000000  0.4773290000000 1.0
C      1  0.4193360000000  0.5652400000000  0.4633380000000 1.0
C      1  0.4639350000000  0.4885090000000  0.6263300000000 1.0
C      1  0.4713450000000  0.5151510000000  0.6251170000000 1.0
C      1  0.4943210000000  0.5242190000000  0.6383860000000 1.0
C      1  0.5196660000000  0.5135460000000  0.6322610000000 1.0
C      1  0.5250320000000  0.4881100000000  0.6425520000000 1.0
C      1  0.5126120000000  0.4674140000000  0.6285330000000 1.0
C      1  0.4826780000000  0.4659360000000  0.6290650000000 1.0
C      1  0.5311850000000  0.4305600000000  0.5779940000000 1.0
C      1  0.4670270000000  0.4242960000000  0.5869200000000 1.0
C      1  0.4204810000000  0.5063060000000  0.5726080000000 1.0
C      1  0.4480430000000  0.5516390000000  0.5720640000000 1.0
C      1  0.5126880000000  0.5632980000000  0.5960030000000 1.0
C      1  0.5595800000000  0.5471990000000  0.5838310000000 1.0
C      1  0.5701040000000  0.4601940000000  0.5717960000000 1.0
C      1  0.4396950000000  0.4644040000000  0.4036000000000 1.0
C      1  0.4383600000000  0.5209820000000  0.4041380000000 1.0
C      1  0.4814910000000  0.5672330000000  0.4018530000000 1.0
C      1  0.5319920000000  0.5487990000000  0.3975370000000 1.0
C      1  0.5709950000000  0.4945670000000  0.4029610000000 1.0
C      1  0.5486320000000  0.4438330000000  0.4107150000000 1.0
C      1  0.4957230000000  0.4508630000000  0.4099900000000 1.0
C      1  0.5854110000000  0.4338270000000  0.4970400000000 1.0
C      1  0.4978670000000  0.3946890000000  0.4998410000000 1.0
C      1  0.4199730000000  0.4314590000000  0.4971180000000 1.0
C      1  0.3939690000000  0.5261800000000  0.5010430000000 1.0
C      1  0.4513230000000  0.5884760000000  0.5018240000000 1.0
C      1  0.5416730000000  0.5976970000000  0.4928100000000 1.0
C      1  0.6012940000000  0.5283640000000  0.4981490000000 1.0
C      1  0.4144220000000  0.5197890000000  0.4291600000000 1.0
C      1  0.4615860000000  0.5828910000000  0.4247040000000 1.0
C      1  0.5453410000000  0.5729700000000  0.4189360000000 1.0
C      1  0.5894640000000  0.5137430000000  0.4426810000000 1.0
C      1  0.5697190000000  0.4417080000000  0.4378460000000 1.0
C      1  0.4949900000000  0.4073470000000  0.4401540000000 1.0
C      1  0.4303430000000  0.4483230000000  0.4324790000000 1.0
C      1  0.5033070000000  0.5511850000000  0.5591170000000 1.0
C      1  0.5590340000000  0.5607250000000  0.5596190000000 1.0
C      1  0.5643840000000  0.4890710000000  0.5571610000000 1.0
C      1  0.5348560000000  0.4522280000000  0.5553800000000 1.0
C      1  0.4729390000000  0.4359580000000  0.5554170000000 1.0
C      1  0.4395610000000  0.4833880000000  0.5562370000000 1.0
C      1  0.4499030000000  0.5261310000000  0.5542800000000 1.0
C      1  0.5585420000000  0.5279880000000  0.4822950000000 1.0
C      1  0.5632730000000  0.4720330000000  0.4782430000000 1.0
C      1  0.5054080000000  0.4264720000000  0.4735830000000 1.0
C      1  0.4528400000000  0.4450120000000  0.4777540000000 1.0
C      1  0.4271620000000  0.5112610000000  0.4836480000000 1.0
C      1  0.4567550000000  0.5525950000000  0.4694980000000 1.0
C      1  0.5187250000000  0.5664990000000  0.4848080000000 1.0
C      1  0.4989450000000  0.3899330000000  0.5291170000000 1.0
C      1  0.4217130000000  0.4198950000000  0.5216650000000 1.0
C      1  0.3995710000000  0.5412910000000  0.5274540000000 1.0
C      1  0.4579010000000  0.6035820000000  0.5315680000000 1.0
C      1  0.5467350000000  0.5923600000000  0.5234930000000 1.0
C      1  0.6059800000000  0.5365780000000  0.5231170000000 1.0
C      1  0.5996480000000  0.4381140000000  0.5206010000000 1.0
C      1  0.5817840000000  0.5472350000000  0.5412320000000 1.0
C      1  0.5927770000000  0.4605760000000  0.5396250000000 1.0
C      1  0.5249590000000  0.4021750000000  0.5419660000000 1.0
C      1  0.4501610000000  0.4211070000000  0.5380410000000 1.0
C      1  0.3945310000000  0.4844100000000  0.5516060000000 1.0
C      1  0.4387490000000  0.5784020000000  0.5383570000000 1.0
C      1  0.5172420000000  0.5966730000000  0.5399090000000 1.0
C      1  0.4676610000000  0.5734760000000  0.5555800000000 1.0
C      1  0.5311310000000  0.5689820000000  0.5518730000000 1.0
C      1  0.5856920000000  0.5144610000000  0.5495400000000 1.0
C      1  0.5705600000000  0.4361350000000  0.5477660000000 1.0
C      1  0.5039780000000  0.4235280000000  0.5499060000000 1.0
C      1  0.4296900000000  0.4441660000000  0.5524110000000 1.0
C      1  0.3994310000000  0.5175150000000  0.5496460000000 1.0
C      1  0.4312860000000  0.4617150000000  0.4968840000000 1.0
C      1  0.4220860000000  0.5405990000000  0.4944800000000 1.0
C      1  0.4815820000000  0.5972820000000  0.5008160000000 1.0
C      1  0.5498560000000  0.5650620000000  0.4944860000000 1.0
C      1  0.5780560000000  0.5064710000000  0.4922100000000 1.0
C      1  0.5533820000000  0.4426160000000  0.4921700000000 1.0
C      1  0.4786770000000  0.4187520000000  0.4931380000000 1.0
C      1  0.4212920000000  0.4223410000000  0.4691960000000 1.0
C      1  0.3881100000000  0.5111200000000  0.4764530000000 1.0
C      1  0.4420260000000  0.5894090000000  0.4716610000000 1.0
C      1  0.5363310000000  0.6016480000000  0.4651420000000 1.0
C      1  0.6008210000000  0.5404020000000  0.4700490000000 1.0
C      1  0.5967260000000  0.4407660000000  0.4703310000000 1.0
C      1  0.5132880000000  0.3873590000000  0.4762940000000 1.0
C      1  0.5530320000000  0.4122780000000  0.5055890000000 1.0
C      1  0.4581830000000  0.3925920000000  0.4959330000000 1.0
C      1  0.4005890000000  0.4645310000000  0.5083130000000 1.0
C      1  0.4137890000000  0.5735690000000  0.4951300000000 1.0
C      1  0.4897050000000  0.6163610000000  0.4829170000000 1.0
C      1  0.5822760000000  0.5725730000000  0.4937700000000 1.0
C      1  0.6032800000000  0.4888050000000  0.5033230000000 1.0
C      1  0.5605030000000  0.5083260000000  0.5279970000000 1.0
C      1  0.5531990000000  0.4585500000000  0.5295950000000 1.0
C      1  0.4975650000000  0.4434860000000  0.5248220000000 1.0
C      1  0.4491330000000  0.4605170000000  0.5325910000000 1.0
C      1  0.4284160000000  0.5149210000000  0.5345690000000 1.0
C      1  0.4846390000000  0.5570060000000  0.5312180000000 1.0
C      1  0.5236480000000  0.5574750000000  0.5233950000000 1.0
C      1  0.5305100000000  0.5189920000000  0.6054420000000 1.0
C      1  0.5447740000000  0.4969970000000  0.5837830000000 1.0
C      1  0.5227140000000  0.4632840000000  0.5989990000000 1.0
C      1  0.4897110000000  0.4549880000000  0.5984460000000 1.0
C      1  0.4616160000000  0.4747810000000  0.5963260000000 1.0
C      1  0.4647940000000  0.5269790000000  0.5985820000000 1.0
C      1  0.4846310000000  0.5460020000000  0.5870670000000 1.0
C      1  0.4898760000000  0.5108150000000  0.5622660000000 1.0
C      1  0.5169890000000  0.5242510000000  0.5747190000000 1.0
C      1  0.5271720000000  0.5057330000000  0.5492000000000 1.0
C      1  0.5199720000000  0.4790140000000  0.5689670000000 1.0
C      1  0.4949960000000  0.4621830000000  0.5531360000000 1.0
C      1  0.4714450000000  0.4799270000000  0.5449440000000 1.0
C      1  0.4600410000000  0.5020090000000  0.5759930000000 1.0
C      1  0.5491940000000  0.5371360000000  0.5138790000000 1.0
C      1  0.5649110000000  0.4812970000000  0.5109180000000 1.0
C      1  0.5212950000000  0.4360990000000  0.5015410000000 1.0
C      1  0.4682940000000  0.4475500000000  0.5079500000000 1.0
C      1  0.4291100000000  0.4921380000000  0.5088800000000 1.0
C      1  0.4491700000000  0.5562160000000  0.5010330000000 1.0
C      1  0.4988780000000  0.5745450000000  0.5086650000000 1.0
C      1  0.4320570000000  0.5271410000000  0.5894850000000 1.0
C      1  0.4875830000000  0.5795520000000  0.5824620000000 1.0
C      1  0.5359670000000  0.5492780000000  0.5992860000000 1.0
C      1  0.5690650000000  0.5205320000000  0.5801730000000 1.0
C      1  0.5514650000000  0.4503910000000  0.5916240000000 1.0
C      1  0.5002720000000  0.4288120000000  0.5832730000000 1.0
C      1  0.4458660000000  0.4491110000000  0.5816410000000 1.0
C      1  0.5038870000000  0.5346740000000  0.4215290000000 1.0
C      1  0.5269660000000  0.5388670000000  0.4411360000000 1.0
C      1  0.5293240000000  0.4891340000000  0.4277860000000 1.0
C      1  0.5103900000000  0.4657130000000  0.4362830000000 1.0
C      1  0.4781170000000  0.4696740000000  0.4404170000000 1.0
C      1  0.4554620000000  0.4880870000000  0.4458100000000 1.0
C      1  0.4811470000000  0.5375590000000  0.4401630000000 1.0
C      1  0.4079640000000  0.4515250000000  0.4578960000000 1.0
C      1  0.4045570000000  0.5346210000000  0.4581420000000 1.0
C      1  0.4696510000000  0.5962370000000  0.4549170000000 1.0
C      1  0.5574850000000  0.5874510000000  0.4472190000000 1.0
C      1  0.6076250000000  0.5074230000000  0.4652490000000 1.0
C      1  0.5712080000000  0.4193880000000  0.4632430000000 1.0
C      1  0.4824600000000  0.3928320000000  0.4629890000000 1.0
C      1  0.5400420000000  0.5115310000000  0.4482620000000 1.0
C      1  0.5218560000000  0.4518650000000  0.4597270000000 1.0
C      1  0.4824700000000  0.4504810000000  0.4662470000000 1.0
C      1  0.4503180000000  0.4894370000000  0.4756680000000 1.0
C      1  0.4596460000000  0.5179720000000  0.4497870000000 1.0
C      1  0.4867920000000  0.5605760000000  0.4605670000000 1.0
C      1  0.5254340000000  0.5652360000000  0.4527250000000 1.0
C      1  0.4924520000000  0.5184660000000  0.5341200000000 1.0
C      1  0.5221410000000  0.5168380000000  0.5173670000000 1.0
C      1  0.5130620000000  0.4852350000000  0.5260300000000 1.0
C      1  0.5282400000000  0.4656990000000  0.5126450000000 1.0
C      1  0.4706040000000  0.4770830000000  0.4935800000000 1.0
C      1  0.4578780000000  0.5022980000000  0.5232230000000 1.0
C      1  0.4712970000000  0.5326520000000  0.5115800000000 1.0
C      1  0.4965870000000  0.4932040000000  0.5891720000000 1.0
C      1  0.4945500000000  0.5029950000000  0.4611910000000 1.0
C      1  0.5029840000000  0.5048600000000  0.4329670000000 1.0
C      1  0.4918380000000  0.5024500000000  0.4015910000000 1.0
END
