TITL C-3289332-8317-520 -0.000252282499345245 125000 -883.320665036732 0 0 167 (C1) n - 1
REM
REM in /nfs/bkarasulu/CARBON/AIRSS/Generating-Clusters/AIREBO/with-SteepDescent/Higher-Symm/SD-CG/HFTN-CG
REM
REM
REM
REM
REM
REM ./C.cell (b20cbc046b6831c77cfcea5457e17084)
REM
REM compiler GCC version 9.2.1 20190827 (Red Hat 9.2.1-1)
REM options -cpp -mtune=generic -march=x86-64 -g -O0 -fpre-include=/usr/include/finclude/math-vector-fortran.h
REM seed 1353108046 -461768162 -1583445016 932004205 -862410092 2041610882 -17378288 -1968794882 1120059581 1197712867 1584753717 -971139618 1499399937 1232496126 -941885968 107217579 -458102950 -403469087 403908915 1262349534 -1360118528 1962750396 1080652653 1704275403 1129801286 -518596515 -1505472926 -1001198338 712752010 1057164293 775235012 -624348322 251919998
REM
CELL 1.54180   50.00000   50.00000   50.00000   90.00000   90.00000   90.00000
LATT -1
SFAC C  
C      1  0.5162170000000  0.4408780000000  0.4958390000000 1.0
C      1  0.5210260000000  0.5188070000000  0.5479710000000 1.0
C      1  0.5174430000000  0.5188320000000  0.4652800000000 1.0
C      1  0.4851120000000  0.4401040000000  0.4908120000000 1.0
C      1  0.4874010000000  0.5142430000000  0.5452100000000 1.0
C      1  0.4878670000000  0.5354550000000  0.4626180000000 1.0
C      1  0.4493030000000  0.4129040000000  0.5121280000000 1.0
C      1  0.4525830000000  0.5505510000000  0.5603900000000 1.0
C      1  0.4497000000000  0.5331760000000  0.4272140000000 1.0
C      1  0.5485840000000  0.4158010000000  0.5120530000000 1.0
C      1  0.5489630000000  0.5493390000000  0.5631840000000 1.0
C      1  0.5494290000000  0.5354640000000  0.4297880000000 1.0
C      1  0.4752530000000  0.3971300000000  0.5098370000000 1.0
C      1  0.4758310000000  0.5591410000000  0.5790450000000 1.0
C      1  0.4751770000000  0.5439080000000  0.4119170000000 1.0
C      1  0.5246400000000  0.3983350000000  0.5096990000000 1.0
C      1  0.5250320000000  0.5596050000000  0.5802580000000 1.0
C      1  0.5242690000000  0.5435240000000  0.4153990000000 1.0
C      1  0.4594980000000  0.5543510000000  0.4621010000000 1.0
C      1  0.4667630000000  0.4396620000000  0.4646130000000 1.0
C      1  0.4658330000000  0.5059800000000  0.5779400000000 1.0
C      1  0.5433210000000  0.5592170000000  0.4663080000000 1.0
C      1  0.5316630000000  0.4406020000000  0.4671730000000 1.0
C      1  0.5319140000000  0.5097830000000  0.5764320000000 1.0
C      1  0.4185940000000  0.5020170000000  0.5480910000000 1.0
C      1  0.4330240000000  0.5390270000000  0.4769920000000 1.0
C      1  0.4209630000000  0.4506750000000  0.4739210000000 1.0
C      1  0.5792050000000  0.4999860000000  0.5492860000000 1.0
C      1  0.5717000000000  0.5422600000000  0.4750340000000 1.0
C      1  0.5779140000000  0.4530880000000  0.4749280000000 1.0
C      1  0.5552790000000  0.4810880000000  0.5392200000000 1.0
C      1  0.5550790000000  0.5508550000000  0.5034270000000 1.0
C      1  0.5546230000000  0.4732620000000  0.4651460000000 1.0
C      1  0.4433280000000  0.4826860000000  0.5422530000000 1.0
C      1  0.4546470000000  0.5489830000000  0.5012750000000 1.0
C      1  0.4423420000000  0.4713140000000  0.4648000000000 1.0
C      1  0.5355580000000  0.4716410000000  0.5877640000000 1.0
C      1  0.5402370000000  0.5969300000000  0.4789860000000 1.0
C      1  0.5412220000000  0.4423050000000  0.4284300000000 1.0
C      1  0.4592260000000  0.4692670000000  0.5914530000000 1.0
C      1  0.4567820000000  0.5904060000000  0.4791990000000 1.0
C      1  0.4593670000000  0.4396370000000  0.4254330000000 1.0
C      1  0.4457860000000  0.4701250000000  0.4326540000000 1.0
C      1  0.4480790000000  0.4569000000000  0.5616770000000 1.0
C      1  0.4467120000000  0.5778000000000  0.5094860000000 1.0
C      1  0.5542540000000  0.4737490000000  0.4311440000000 1.0
C      1  0.5469010000000  0.4576020000000  0.5581550000000 1.0
C      1  0.5506340000000  0.5822910000000  0.5080970000000 1.0
C      1  0.5596970000000  0.5703720000000  0.5386450000000 1.0
C      1  0.5609390000000  0.5052080000000  0.4214850000000 1.0
C      1  0.5583160000000  0.4304000000000  0.5412120000000 1.0
C      1  0.4397420000000  0.5757750000000  0.5422450000000 1.0
C      1  0.4411900000000  0.5012940000000  0.4214040000000 1.0
C      1  0.4423690000000  0.4313370000000  0.5399440000000 1.0
C      1  0.5924330000000  0.4738690000000  0.5058550000000 1.0
C      1  0.5987260000000  0.5247590000000  0.5084120000000 1.0
C      1  0.6004490000000  0.4862160000000  0.4751980000000 1.0
C      1  0.4132350000000  0.4735880000000  0.5057800000000 1.0
C      1  0.4143210000000  0.5256160000000  0.5097040000000 1.0
C      1  0.4027130000000  0.4860980000000  0.4759560000000 1.0
C      1  0.4695790000000  0.6175710000000  0.5477670000000 1.0
C      1  0.4650590000000  0.4939340000000  0.3829710000000 1.0
C      1  0.4639170000000  0.4024810000000  0.5684290000000 1.0
C      1  0.5339910000000  0.6098910000000  0.5423130000000 1.0
C      1  0.5364390000000  0.4976620000000  0.3794350000000 1.0
C      1  0.5381250000000  0.3954150000000  0.5664470000000 1.0
C      1  0.5280230000000  0.5038820000000  0.4130480000000 1.0
C      1  0.5262290000000  0.4197050000000  0.5448790000000 1.0
C      1  0.5266380000000  0.5763280000000  0.5439980000000 1.0
C      1  0.4745490000000  0.5042510000000  0.4154820000000 1.0
C      1  0.4749820000000  0.4217690000000  0.5412770000000 1.0
C      1  0.4728440000000  0.5821730000000  0.5466820000000 1.0
C      1  0.4061100000000  0.4405210000000  0.5023330000000 1.0
C      1  0.4071910000000  0.5332130000000  0.5406820000000 1.0
C      1  0.4102110000000  0.5172120000000  0.4643140000000 1.0
C      1  0.5950240000000  0.4404930000000  0.5015270000000 1.0
C      1  0.5911210000000  0.5280520000000  0.5398140000000 1.0
C      1  0.5923670000000  0.5175420000000  0.4640260000000 1.0
C      1  0.4757880000000  0.4700080000000  0.4589590000000 1.0
C      1  0.4751260000000  0.4852810000000  0.5540160000000 1.0
C      1  0.4853680000000  0.5493020000000  0.4918110000000 1.0
C      1  0.5230420000000  0.4671700000000  0.4541050000000 1.0
C      1  0.5290310000000  0.4936700000000  0.5304080000000 1.0
C      1  0.5260090000000  0.5494130000000  0.4936740000000 1.0
C      1  0.5639650000000  0.4239240000000  0.4837910000000 1.0
C      1  0.5689100000000  0.5236120000000  0.5711080000000 1.0
C      1  0.5664090000000  0.5638300000000  0.4342100000000 1.0
C      1  0.4355730000000  0.4223870000000  0.4826960000000 1.0
C      1  0.4324010000000  0.5245030000000  0.5687940000000 1.0
C      1  0.4322630000000  0.5596580000000  0.4333170000000 1.0
C      1  0.4838090000000  0.5826490000000  0.4965940000000 1.0
C      1  0.4840750000000  0.4602160000000  0.4298960000000 1.0
C      1  0.4860370000000  0.4602870000000  0.5732740000000 1.0
C      1  0.5151440000000  0.5776540000000  0.4914430000000 1.0
C      1  0.5150380000000  0.4602840000000  0.4228360000000 1.0
C      1  0.5175080000000  0.4506590000000  0.5723380000000 1.0
C      1  0.5145260000000  0.4225490000000  0.4360710000000 1.0
C      1  0.5136580000000  0.4882830000000  0.6047530000000 1.0
C      1  0.5122630000000  0.6018430000000  0.4601760000000 1.0
C      1  0.4859230000000  0.4207350000000  0.4352910000000 1.0
C      1  0.4848390000000  0.4860910000000  0.6064820000000 1.0
C      1  0.4838430000000  0.6006170000000  0.4610990000000 1.0
C      1  0.4164040000000  0.4961490000000  0.4402200000000 1.0
C      1  0.4141800000000  0.4439940000000  0.5324830000000 1.0
C      1  0.4154530000000  0.5608080000000  0.5278540000000 1.0
C      1  0.5843220000000  0.4982080000000  0.4409220000000 1.0
C      1  0.5854350000000  0.4442610000000  0.5316690000000 1.0
C      1  0.5858000000000  0.5565940000000  0.5282200000000 1.0
C      1  0.5163980000000  0.4988210000000  0.4924570000000 1.0
C      1  0.5103150000000  0.4756070000000  0.5146990000000 1.0
C      1  0.5137640000000  0.5259650000000  0.5077730000000 1.0
C      1  0.4863230000000  0.4944070000000  0.4771900000000 1.0
C      1  0.4793950000000  0.4750480000000  0.5233430000000 1.0
C      1  0.4844710000000  0.5282250000000  0.5173100000000 1.0
C      1  0.5912480000000  0.4694280000000  0.4489250000000 1.0
C      1  0.5944710000000  0.4733010000000  0.5400060000000 1.0
C      1  0.5941420000000  0.5557720000000  0.4967310000000 1.0
C      1  0.4057910000000  0.4680050000000  0.4491280000000 1.0
C      1  0.4047420000000  0.4736720000000  0.5390240000000 1.0
C      1  0.4114750000000  0.5567950000000  0.4964010000000 1.0
C      1  0.5135540000000  0.5442610000000  0.6016220000000 1.0
C      1  0.5136650000000  0.5675430000000  0.4241450000000 1.0
C      1  0.5141950000000  0.3938400000000  0.4837460000000 1.0
C      1  0.4852020000000  0.5438730000000  0.6005820000000 1.0
C      1  0.4855130000000  0.5681500000000  0.4221760000000 1.0
C      1  0.4857050000000  0.3936700000000  0.4836570000000 1.0
C      1  0.5189920000000  0.4456750000000  0.5283140000000 1.0
C      1  0.5147010000000  0.5487110000000  0.5330650000000 1.0
C      1  0.5166840000000  0.4956470000000  0.4419040000000 1.0
C      1  0.4869780000000  0.4444400000000  0.5228490000000 1.0
C      1  0.4823360000000  0.5569790000000  0.5309280000000 1.0
C      1  0.4857120000000  0.5061420000000  0.4452830000000 1.0
C      1  0.5577690000000  0.4254470000000  0.4515180000000 1.0
C      1  0.5581560000000  0.4947810000000  0.5822140000000 1.0
C      1  0.5629260000000  0.5851390000000  0.4563220000000 1.0
C      1  0.4415150000000  0.4231250000000  0.4492270000000 1.0
C      1  0.4369500000000  0.4937250000000  0.5826020000000 1.0
C      1  0.4349150000000  0.5773410000000  0.4572900000000 1.0
C      1  0.4493590000000  0.5168410000000  0.4570650000000 1.0
C      1  0.4531860000000  0.4445760000000  0.5016150000000 1.0
C      1  0.4543810000000  0.5218610000000  0.5422260000000 1.0
C      1  0.5503520000000  0.5203480000000  0.4601870000000 1.0
C      1  0.5488220000000  0.4483080000000  0.5020170000000 1.0
C      1  0.5513240000000  0.5287950000000  0.5361920000000 1.0
C      1  0.5240170000000  0.4082410000000  0.4620110000000 1.0
C      1  0.5218440000000  0.5175720000000  0.6025140000000 1.0
C      1  0.5248780000000  0.5781820000000  0.4472310000000 1.0
C      1  0.4757340000000  0.4073700000000  0.4614930000000 1.0
C      1  0.4759020000000  0.5172970000000  0.6029690000000 1.0
C      1  0.4728060000000  0.5778650000000  0.4448910000000 1.0
C      1  0.4852720000000  0.4275500000000  0.5731690000000 1.0
C      1  0.4842750000000  0.6026370000000  0.5220480000000 1.0
C      1  0.4857930000000  0.4756890000000  0.4008470000000 1.0
C      1  0.5157990000000  0.4186850000000  0.5772330000000 1.0
C      1  0.5144220000000  0.5954670000000  0.5186810000000 1.0
C      1  0.5167880000000  0.4769630000000  0.3955610000000 1.0
C      1  0.4451910000000  0.5191690000000  0.5095110000000 1.0
C      1  0.4532360000000  0.4971640000000  0.4845370000000 1.0
C      1  0.4470280000000  0.4747890000000  0.5093860000000 1.0
C      1  0.5655290000000  0.5207720000000  0.5082200000000 1.0
C      1  0.5499980000000  0.4987250000000  0.4872130000000 1.0
C      1  0.5601030000000  0.4743370000000  0.5084880000000 1.0
C      1  0.5009880000000  0.5228830000000  0.4049710000000 1.0
C      1  0.5005900000000  0.4013510000000  0.5321210000000 1.0
C      1  0.5006810000000  0.5784800000000  0.5658760000000 1.0
C      1  0.6137510000000  0.5008110000000  0.5022660000000 1.0
C      1  0.3964380000000  0.5037370000000  0.5029700000000 1.0
END
