TITL C-3289326-3776-103 -0.00117345757978405 125000 -635.450999916884 0 0 115 (C1) n - 1
REM
REM in /nfs/bkarasulu/CARBON/AIRSS/Generating-Clusters/AIREBO/with-SteepDescent/Higher-Symm/SD-CG/HFTN-CG
REM
REM
REM
REM
REM
REM ./C.cell (b20cbc046b6831c77cfcea5457e17084)
REM
REM compiler GCC version 9.2.1 20190827 (Red Hat 9.2.1-1)
REM options -cpp -mtune=generic -march=x86-64 -g -O0 -fpre-include=/usr/include/finclude/math-vector-fortran.h
REM seed -1435379206 -245079288 -1380983928 386309120 1840746259 -790921979 34585039 70871137 -836019219 -14014494 -1759897510 -1161831911 -349113469 -1974753342 -674313800 -867162222 -753341677 1088832981 609318907 338648534 1210391778 2081397449 -1147441021 -1731866243 -1744442466 -616555811 -1168569670 1615405605 -1732870530 776003789 1364760202 952575054 1189847646
REM
CELL 1.54180   50.00000   50.00000   50.00000   90.00000   90.00000   90.00000
LATT -1
SFAC C  
C      1  0.5436180000000  0.4574970000000  0.5228640000000 1.0
C      1  0.5723210000000  0.5286430000000  0.5345320000000 1.0
C      1  0.4883430000000  0.5761680000000  0.5221660000000 1.0
C      1  0.4274960000000  0.5024670000000  0.5174080000000 1.0
C      1  0.4690030000000  0.4433690000000  0.5237590000000 1.0
C      1  0.4560660000000  0.4537440000000  0.4794950000000 1.0
C      1  0.4432520000000  0.5292810000000  0.4777930000000 1.0
C      1  0.5164970000000  0.5696780000000  0.4817770000000 1.0
C      1  0.5730540000000  0.5175210000000  0.4641450000000 1.0
C      1  0.5315020000000  0.4358530000000  0.4726610000000 1.0
C      1  0.4808410000000  0.4862580000000  0.5210430000000 1.0
C      1  0.5109400000000  0.4794380000000  0.5135140000000 1.0
C      1  0.5274540000000  0.5024030000000  0.5246860000000 1.0
C      1  0.5121830000000  0.5301120000000  0.5176890000000 1.0
C      1  0.4838840000000  0.5147590000000  0.5111780000000 1.0
C      1  0.5266700000000  0.4883750000000  0.4780300000000 1.0
C      1  0.4947810000000  0.4824770000000  0.4837880000000 1.0
C      1  0.4734430000000  0.5021470000000  0.4748140000000 1.0
C      1  0.4950680000000  0.5276060000000  0.4816880000000 1.0
C      1  0.5246770000000  0.5185230000000  0.4798020000000 1.0
C      1  0.5007460000000  0.5224180000000  0.5465170000000 1.0
C      1  0.4716410000000  0.5135800000000  0.5617260000000 1.0
C      1  0.4845890000000  0.4860830000000  0.5501700000000 1.0
C      1  0.5135340000000  0.4725130000000  0.5617940000000 1.0
C      1  0.5238710000000  0.5024550000000  0.5567090000000 1.0
C      1  0.4928060000000  0.5253430000000  0.4486790000000 1.0
C      1  0.5206070000000  0.5101600000000  0.4360180000000 1.0
C      1  0.5164430000000  0.4811580000000  0.4495600000000 1.0
C      1  0.4836040000000  0.4734510000000  0.4452580000000 1.0
C      1  0.4688270000000  0.5040240000000  0.4433290000000 1.0
C      1  0.5295170000000  0.4896150000000  0.5939660000000 1.0
C      1  0.4995710000000  0.5305110000000  0.5927590000000 1.0
C      1  0.4833720000000  0.5118590000000  0.6059120000000 1.0
C      1  0.4722270000000  0.4836000000000  0.5917710000000 1.0
C      1  0.5045670000000  0.4784560000000  0.6010780000000 1.0
C      1  0.4773410000000  0.4868190000000  0.4083060000000 1.0
C      1  0.4837440000000  0.5201750000000  0.4101110000000 1.0
C      1  0.5122990000000  0.5144710000000  0.3925430000000 1.0
C      1  0.5242030000000  0.4908040000000  0.4013290000000 1.0
C      1  0.5029730000000  0.4728210000000  0.4057360000000 1.0
C      1  0.4139920000000  0.5220130000000  0.4842860000000 1.0
C      1  0.4462170000000  0.4225370000000  0.4869290000000 1.0
C      1  0.5549550000000  0.4224030000000  0.4912640000000 1.0
C      1  0.5954090000000  0.5305240000000  0.4864440000000 1.0
C      1  0.4970870000000  0.5949340000000  0.4868470000000 1.0
C      1  0.5980840000000  0.5272960000000  0.5124980000000 1.0
C      1  0.5462170000000  0.4264420000000  0.5175180000000 1.0
C      1  0.4461890000000  0.4231010000000  0.5152520000000 1.0
C      1  0.4086570000000  0.5269090000000  0.5133610000000 1.0
C      1  0.5031060000000  0.6058520000000  0.5146210000000 1.0
C      1  0.5632240000000  0.4433460000000  0.4678890000000 1.0
C      1  0.5821220000000  0.5502430000000  0.4659040000000 1.0
C      1  0.4719850000000  0.5933600000000  0.4737890000000 1.0
C      1  0.4034590000000  0.5021270000000  0.4674150000000 1.0
C      1  0.4607650000000  0.4190780000000  0.4604400000000 1.0
C      1  0.4231800000000  0.4326140000000  0.5276770000000 1.0
C      1  0.4258730000000  0.5373470000000  0.5367060000000 1.0
C      1  0.5175390000000  0.5848780000000  0.5372620000000 1.0
C      1  0.5955410000000  0.5039140000000  0.5330880000000 1.0
C      1  0.5268680000000  0.4104900000000  0.5303010000000 1.0
C      1  0.5707950000000  0.4918010000000  0.4502590000000 1.0
C      1  0.5330190000000  0.5710470000000  0.4554580000000 1.0
C      1  0.4483110000000  0.5497710000000  0.4555700000000 1.0
C      1  0.4368280000000  0.4653990000000  0.4562450000000 1.0
C      1  0.5088390000000  0.4303680000000  0.4552140000000 1.0
C      1  0.4245810000000  0.4851550000000  0.5451120000000 1.0
C      1  0.4685050000000  0.5644170000000  0.5445410000000 1.0
C      1  0.5566760000000  0.5495740000000  0.5484000000000 1.0
C      1  0.5643470000000  0.4665530000000  0.5439310000000 1.0
C      1  0.4839170000000  0.4339610000000  0.5488450000000 1.0
C      1  0.4325130000000  0.5168960000000  0.5543700000000 1.0
C      1  0.4711580000000  0.4281520000000  0.5803470000000 1.0
C      1  0.5720510000000  0.4515510000000  0.5734550000000 1.0
C      1  0.5475810000000  0.5426140000000  0.5737130000000 1.0
C      1  0.4971090000000  0.5764360000000  0.5608860000000 1.0
C      1  0.5792390000000  0.4888980000000  0.4176130000000 1.0
C      1  0.5275440000000  0.4348350000000  0.4165960000000 1.0
C      1  0.4524020000000  0.4387860000000  0.4419110000000 1.0
C      1  0.4330990000000  0.5507040000000  0.4251750000000 1.0
C      1  0.5235560000000  0.5644710000000  0.4309160000000 1.0
C      1  0.4883080000000  0.4174000000000  0.4686240000000 1.0
C      1  0.5739810000000  0.4685670000000  0.4704850000000 1.0
C      1  0.5564560000000  0.5650040000000  0.4754920000000 1.0
C      1  0.4508820000000  0.5744110000000  0.4750900000000 1.0
C      1  0.4107550000000  0.4748730000000  0.4688390000000 1.0
C      1  0.4992210000000  0.4149860000000  0.5263460000000 1.0
C      1  0.4220530000000  0.4632850000000  0.5204610000000 1.0
C      1  0.4426570000000  0.5588870000000  0.5305620000000 1.0
C      1  0.5417380000000  0.5682730000000  0.5286930000000 1.0
C      1  0.5864780000000  0.4788190000000  0.5266690000000 1.0
C      1  0.4854480000000  0.5450390000000  0.5667830000000 1.0
C      1  0.4491350000000  0.4903980000000  0.5680380000000 1.0
C      1  0.4844900000000  0.4584230000000  0.5724700000000 1.0
C      1  0.5455880000000  0.4724530000000  0.5718140000000 1.0
C      1  0.5274910000000  0.5206020000000  0.5838130000000 1.0
C      1  0.5086440000000  0.5390170000000  0.4235920000000 1.0
C      1  0.5464930000000  0.4928260000000  0.4258810000000 1.0
C      1  0.5067100000000  0.4528540000000  0.4311600000000 1.0
C      1  0.4552250000000  0.4698580000000  0.4279950000000 1.0
C      1  0.4594530000000  0.5328600000000  0.4279370000000 1.0
C      1  0.4886810000000  0.5573350000000  0.4969080000000 1.0
C      1  0.4490810000000  0.5003140000000  0.4946300000000 1.0
C      1  0.4865230000000  0.4519480000000  0.4959020000000 1.0
C      1  0.5477930000000  0.4805580000000  0.4982220000000 1.0
C      1  0.5527610000000  0.5332150000000  0.4869870000000 1.0
C      1  0.5296780000000  0.5503060000000  0.5052030000000 1.0
C      1  0.5562360000000  0.5105010000000  0.5120510000000 1.0
C      1  0.5206800000000  0.4507570000000  0.4986710000000 1.0
C      1  0.4534830000000  0.4699410000000  0.5092790000000 1.0
C      1  0.4627760000000  0.5366450000000  0.5033400000000 1.0
C      1  0.5803040000000  0.4744270000000  0.4993570000000 1.0
C      1  0.4914980000000  0.4184670000000  0.4991350000000 1.0
C      1  0.4050520000000  0.4638470000000  0.4933560000000 1.0
C      1  0.4464210000000  0.5647230000000  0.5011990000000 1.0
C      1  0.5577130000000  0.5807450000000  0.5028670000000 1.0
END
