TITL C-3289326-3776-220 -0.00373345936270594 125000 -599.336181378089 0 0 116 (C1) n - 1
REM
REM in /nfs/bkarasulu/CARBON/AIRSS/Generating-Clusters/AIREBO/with-SteepDescent/Higher-Symm/SD-CG/HFTN-CG
REM
REM
REM
REM
REM
REM ./C.cell (b20cbc046b6831c77cfcea5457e17084)
REM
REM compiler GCC version 9.2.1 20190827 (Red Hat 9.2.1-1)
REM options -cpp -mtune=generic -march=x86-64 -g -O0 -fpre-include=/usr/include/finclude/math-vector-fortran.h
REM seed 32082541 -1754220555 -1989477610 295549362 -1060987254 -1930235504 1842249761 -515334426 89472729 448477024 1421966495 1828185500 -343356222 1261207912 -1296350381 -2133352195 904578521 -1620992793 1164641433 -493487138 -1139431398 -556460402 -308327734 -796513545 -1603428926 -1047828824 -145963100 -7049506 -1560941379 -57369471 -2002003684 881807588 -1050526727
REM
CELL 1.54180   50.00000   50.00000   50.00000   90.00000   90.00000   90.00000
LATT -1
SFAC C  
C      1  0.5202800000000  0.5185870000000  0.4723190000000 1.0
C      1  0.5321650000000  0.5154180000000  0.5040260000000 1.0
C      1  0.5121350000000  0.5142140000000  0.5314870000000 1.0
C      1  0.4804060000000  0.5180410000000  0.5270920000000 1.0
C      1  0.4686190000000  0.5149990000000  0.4953240000000 1.0
C      1  0.4891970000000  0.5139820000000  0.4682670000000 1.0
C      1  0.5312250000000  0.4785450000000  0.4818110000000 1.0
C      1  0.5309040000000  0.4832250000000  0.5149590000000 1.0
C      1  0.5008970000000  0.4843210000000  0.5324200000000 1.0
C      1  0.4708480000000  0.4791440000000  0.5181840000000 1.0
C      1  0.4711150000000  0.4823760000000  0.4843970000000 1.0
C      1  0.5007480000000  0.4841280000000  0.4677750000000 1.0
C      1  0.4369120000000  0.5134190000000  0.5634790000000 1.0
C      1  0.4143260000000  0.5163440000000  0.4742640000000 1.0
C      1  0.4815310000000  0.5148940000000  0.4136990000000 1.0
C      1  0.5615790000000  0.5129880000000  0.4515930000000 1.0
C      1  0.5810580000000  0.5147710000000  0.5227790000000 1.0
C      1  0.5208710000000  0.5141750000000  0.5869950000000 1.0
C      1  0.4397550000000  0.4816780000000  0.5577190000000 1.0
C      1  0.4206360000000  0.4833930000000  0.4763320000000 1.0
C      1  0.4788440000000  0.4829220000000  0.4200300000000 1.0
C      1  0.5608390000000  0.4801400000000  0.4427910000000 1.0
C      1  0.5739830000000  0.4837300000000  0.5227630000000 1.0
C      1  0.5219630000000  0.4810540000000  0.5793050000000 1.0
C      1  0.5483750000000  0.4796740000000  0.5439150000000 1.0
C      1  0.4932490000000  0.4748480000000  0.5621850000000 1.0
C      1  0.4420060000000  0.4778580000000  0.5260070000000 1.0
C      1  0.4492330000000  0.4780610000000  0.4587270000000 1.0
C      1  0.5067900000000  0.4748050000000  0.4376150000000 1.0
C      1  0.5625580000000  0.4750130000000  0.4763620000000 1.0
C      1  0.5335400000000  0.5240080000000  0.5505990000000 1.0
C      1  0.4756590000000  0.5214420000000  0.5583790000000 1.0
C      1  0.4384550000000  0.5208090000000  0.5055640000000 1.0
C      1  0.4668080000000  0.5228250000000  0.4497920000000 1.0
C      1  0.5258590000000  0.5211240000000  0.4409700000000 1.0
C      1  0.5617460000000  0.5222820000000  0.4886610000000 1.0
C      1  0.5356050000000  0.4572480000000  0.4418870000000 1.0
C      1  0.5725400000000  0.4561400000000  0.5028430000000 1.0
C      1  0.5357290000000  0.4548210000000  0.5624400000000 1.0
C      1  0.4641510000000  0.4578510000000  0.5575580000000 1.0
C      1  0.4283380000000  0.4603870000000  0.5002100000000 1.0
C      1  0.4678490000000  0.4571450000000  0.4394070000000 1.0
C      1  0.5506780000000  0.5433640000000  0.4407480000000 1.0
C      1  0.5740700000000  0.5454370000000  0.5096980000000 1.0
C      1  0.5247710000000  0.5453090000000  0.5736690000000 1.0
C      1  0.4518870000000  0.5439880000000  0.5614380000000 1.0
C      1  0.4239100000000  0.5452700000000  0.4895530000000 1.0
C      1  0.4755510000000  0.5454900000000  0.4274920000000 1.0
C      1  0.5101090000000  0.4442450000000  0.4227250000000 1.0
C      1  0.5698410000000  0.4421010000000  0.4714790000000 1.0
C      1  0.5639120000000  0.4433100000000  0.5497850000000 1.0
C      1  0.4887020000000  0.4447070000000  0.5777930000000 1.0
C      1  0.4285670000000  0.4405180000000  0.5278500000000 1.0
C      1  0.4391120000000  0.4456920000000  0.4546130000000 1.0
C      1  0.5197840000000  0.5510870000000  0.4275590000000 1.0
C      1  0.5746420000000  0.5518110000000  0.4776910000000 1.0
C      1  0.5509200000000  0.5523590000000  0.5529610000000 1.0
C      1  0.4826300000000  0.5497850000000  0.5750880000000 1.0
C      1  0.4271180000000  0.5462710000000  0.5234060000000 1.0
C      1  0.4487290000000  0.5502700000000  0.4479790000000 1.0
C      1  0.4963160000000  0.5290800000000  0.5963430000000 1.0
C      1  0.4166190000000  0.5301650000000  0.5487360000000 1.0
C      1  0.4199680000000  0.5348900000000  0.4511580000000 1.0
C      1  0.5058620000000  0.5304920000000  0.4062210000000 1.0
C      1  0.5849640000000  0.5314010000000  0.4574950000000 1.0
C      1  0.5769330000000  0.5320810000000  0.5472100000000 1.0
C      1  0.5017410000000  0.4630180000000  0.5993750000000 1.0
C      1  0.4188970000000  0.4559160000000  0.5501430000000 1.0
C      1  0.4131080000000  0.4631820000000  0.4503480000000 1.0
C      1  0.4971020000000  0.4621170000000  0.4010080000000 1.0
C      1  0.5834320000000  0.4570500000000  0.4474920000000 1.0
C      1  0.5843810000000  0.4629060000000  0.5470940000000 1.0
C      1  0.5256700000000  0.5472180000000  0.5142140000000 1.0
C      1  0.5036520000000  0.5579170000000  0.5343080000000 1.0
C      1  0.4746080000000  0.5483370000000  0.5288270000000 1.0
C      1  0.4745390000000  0.5468650000000  0.4850000000000 1.0
C      1  0.4967230000000  0.5581480000000  0.4655830000000 1.0
C      1  0.5258830000000  0.5492240000000  0.4714030000000 1.0
C      1  0.5354560000000  0.4497030000000  0.5161470000000 1.0
C      1  0.5107850000000  0.4423970000000  0.5338070000000 1.0
C      1  0.4828250000000  0.4500850000000  0.5230810000000 1.0
C      1  0.4663070000000  0.4496640000000  0.4849040000000 1.0
C      1  0.4906390000000  0.4407870000000  0.4678090000000 1.0
C      1  0.5182530000000  0.4496300000000  0.4770530000000 1.0
C      1  0.4949850000000  0.5719220000000  0.4364560000000 1.0
C      1  0.5515160000000  0.5683300000000  0.4641230000000 1.0
C      1  0.5517930000000  0.5621460000000  0.5226070000000 1.0
C      1  0.5052040000000  0.5712630000000  0.5636780000000 1.0
C      1  0.4484470000000  0.5663070000000  0.5359940000000 1.0
C      1  0.4477920000000  0.5619050000000  0.4776940000000 1.0
C      1  0.4870070000000  0.4290000000000  0.4386490000000 1.0
C      1  0.5415230000000  0.4318500000000  0.4634070000000 1.0
C      1  0.5608090000000  0.4294830000000  0.5204470000000 1.0
C      1  0.5125660000000  0.4298860000000  0.5628730000000 1.0
C      1  0.4578100000000  0.4331810000000  0.5354620000000 1.0
C      1  0.4389390000000  0.4319430000000  0.4847030000000 1.0
C      1  0.5072630000000  0.4097310000000  0.5349850000000 1.0
C      1  0.4767050000000  0.4107390000000  0.5208830000000 1.0
C      1  0.4690860000000  0.4162540000000  0.4905920000000 1.0
C      1  0.4919400000000  0.4083420000000  0.4664130000000 1.0
C      1  0.5229450000000  0.4102200000000  0.4804580000000 1.0
C      1  0.5304590000000  0.4164790000000  0.5108780000000 1.0
C      1  0.5039250000000  0.5902760000000  0.5343580000000 1.0
C      1  0.4747990000000  0.5811840000000  0.5193410000000 1.0
C      1  0.4693830000000  0.5862400000000  0.4876490000000 1.0
C      1  0.4955170000000  0.5904820000000  0.4661100000000 1.0
C      1  0.5248150000000  0.5819890000000  0.4811420000000 1.0
C      1  0.5302920000000  0.5866990000000  0.5129720000000 1.0
C      1  0.4769360000000  0.4980840000000  0.5736740000000 1.0
C      1  0.5493440000000  0.5028560000000  0.5600850000000 1.0
C      1  0.5779370000000  0.4991300000000  0.4843010000000 1.0
C      1  0.4247050000000  0.4978460000000  0.5132810000000 1.0
C      1  0.4504570000000  0.5014680000000  0.4411620000000 1.0
C      1  0.5232860000000  0.4978310000000  0.4254120000000 1.0
C      1  0.5010180000000  0.4610920000000  0.5002420000000 1.0
C      1  0.5001850000000  0.5387340000000  0.4998550000000 1.0
END
