TITL C-3289327-5623-625 1.03213446046001e-07 125000 -31.2542591956414 0 0 6 (D(inf)h) n - 1
REM
REM in /nfs/bkarasulu/CARBON/AIRSS/Generating-Clusters/AIREBO/with-SteepDescent/Higher-Symm/SD-CG/HFTN-CG
REM
REM
REM
REM
REM
REM ./C.cell (b20cbc046b6831c77cfcea5457e17084)
REM
REM compiler GCC version 9.2.1 20190827 (Red Hat 9.2.1-1)
REM options -cpp -mtune=generic -march=x86-64 -g -O0 -fpre-include=/usr/include/finclude/math-vector-fortran.h
REM seed 2119616930 -318199123 749680017 -244712174 1856195492 -18880809 -566469713 -579739741 584091217 181198917 -2034048004 -310704181 -1046299888 -1389635749 2042781751 1836882801 1984783823 -568704311 565329587 -358660046 -1695171698 92341949 1004728734 1154410871 1314199193 -103528080 1248083014 -1519282940 669074148 1123099159 -900543945 -193406377 -1685342715
REM
CELL 1.54180   50.00000   50.00000   50.00000   90.00000   90.00000   90.00000
LATT -1
SFAC C  
C      1  0.5004080000000  0.5462010000000  0.4987890000000 1.0
C      1  0.5004080000000  0.4663100000000  0.4987890000000 1.0
C      1  0.5004080000000  0.5724080000000  0.4987890000000 1.0
C      1  0.5004080000000  0.4401030000000  0.4987890000000 1.0
C      1  0.5004080000000  0.5195710000000  0.4987890000000 1.0
C      1  0.5004080000000  0.4929400000000  0.4987890000000 1.0
END
