TITL C-3289333-7213-48 1.50365020953746e-07 125000 -55.1510191324413 0 0 13 (C1) n - 1
REM
REM in /nfs/bkarasulu/CARBON/AIRSS/Generating-Clusters/AIREBO/with-SteepDescent/Higher-Symm/SD-CG/HFTN-CG
REM
REM
REM
REM
REM
REM ./C.cell (b20cbc046b6831c77cfcea5457e17084)
REM
REM compiler GCC version 9.2.1 20190827 (Red Hat 9.2.1-1)
REM options -cpp -mtune=generic -march=x86-64 -g -O0 -fpre-include=/usr/include/finclude/math-vector-fortran.h
REM seed 1933852420 632614195 -1365269879 714110508 1050554385 -2085979289 -699891950 -652259999 -207810736 -1018933063 147573459 -1854488878 -2131187224 -1951448142 682645343 -910755777 -1157725082 469903007 -1358768405 -716477010 -1882785028 -1352303417 1142810601 -1551341430 -1582690030 54886930 -1030345021 1318224882 -703778540 1689921592 1397097330 832235775 805441600
REM
CELL 1.54180   50.00000   50.00000   50.00000   90.00000   90.00000   90.00000
LATT -1
SFAC C  
C      1  0.4849800000000  0.5305000000000  0.5043350000000 1.0
C      1  0.4713990000000  0.4849230000000  0.5089850000000 1.0
C      1  0.5171210000000  0.4725770000000  0.5062250000000 1.0
C      1  0.5058560000000  0.4519940000000  0.4920020000000 1.0
C      1  0.4623100000000  0.5312690000000  0.4889040000000 1.0
C      1  0.4522320000000  0.4926300000000  0.4909330000000 1.0
C      1  0.4684950000000  0.4643780000000  0.5269370000000 1.0
C      1  0.5424420000000  0.4724370000000  0.5167960000000 1.0
C      1  0.4976910000000  0.5525140000000  0.5146670000000 1.0
C      1  0.5079040000000  0.5067880000000  0.5376240000000 1.0
C      1  0.4994850000000  0.5009170000000  0.5088680000000 1.0
C      1  0.5310860000000  0.5154000000000  0.4605540000000 1.0
C      1  0.5176030000000  0.5091810000000  0.4813150000000 1.0
END
