TITL C-3289333-7213-234 -0.00113258272645208 125000 -908.659736047825 0 0 161 (C1) n - 1
REM
REM in /nfs/bkarasulu/CARBON/AIRSS/Generating-Clusters/AIREBO/with-SteepDescent/Higher-Symm/SD-CG/HFTN-CG
REM
REM
REM
REM
REM
REM ./C.cell (b20cbc046b6831c77cfcea5457e17084)
REM
REM compiler GCC version 9.2.1 20190827 (Red Hat 9.2.1-1)
REM options -cpp -mtune=generic -march=x86-64 -g -O0 -fpre-include=/usr/include/finclude/math-vector-fortran.h
REM seed 350445489 513322004 -1087871005 116494462 1606439923 -914471162 1743012302 -1199403391 296229478 -714492077 -1335038843 -1763310292 -69993009 -141787655 440294673 24776019 -492270331 -681027381 -152054745 1531111177 -127956266 324158596 -1997673364 -510236026 -482676498 1235468026 20906830 -1175086914 -271778016 -1972536717 -453662193 1732905263 -1367999235
REM
CELL 1.54180   50.00000   50.00000   50.00000   90.00000   90.00000   90.00000
LATT -1
SFAC C  
C      1  0.4283160000000  0.5883440000000  0.4641820000000 1.0
C      1  0.4232960000000  0.4934710000000  0.4207100000000 1.0
C      1  0.4329380000000  0.4235070000000  0.4802800000000 1.0
C      1  0.4309120000000  0.4492540000000  0.5656120000000 1.0
C      1  0.4249970000000  0.5490810000000  0.5572230000000 1.0
C      1  0.5641530000000  0.5273520000000  0.5717840000000 1.0
C      1  0.5682370000000  0.5736590000000  0.4930760000000 1.0
C      1  0.5648710000000  0.5207570000000  0.4226830000000 1.0
C      1  0.5754150000000  0.4431750000000  0.4641420000000 1.0
C      1  0.5690020000000  0.4427820000000  0.5519810000000 1.0
C      1  0.4545950000000  0.3655170000000  0.4939880000000 1.0
C      1  0.4720460000000  0.4504660000000  0.6220580000000 1.0
C      1  0.4614450000000  0.5915500000000  0.5760150000000 1.0
C      1  0.4805820000000  0.6074850000000  0.4376430000000 1.0
C      1  0.4615680000000  0.4650010000000  0.3902240000000 1.0
C      1  0.4705710000000  0.4829980000000  0.4144520000000 1.0
C      1  0.4725100000000  0.3897710000000  0.4902400000000 1.0
C      1  0.4705850000000  0.4620420000000  0.5932370000000 1.0
C      1  0.4763340000000  0.5659460000000  0.5671570000000 1.0
C      1  0.4805760000000  0.5835510000000  0.4594590000000 1.0
C      1  0.4421030000000  0.4266150000000  0.5272090000000 1.0
C      1  0.4435250000000  0.4937080000000  0.5815720000000 1.0
C      1  0.4467070000000  0.5766720000000  0.5259330000000 1.0
C      1  0.4408480000000  0.5488740000000  0.4403110000000 1.0
C      1  0.4510460000000  0.4574660000000  0.4382450000000 1.0
C      1  0.4568170000000  0.4981370000000  0.5383630000000 1.0
C      1  0.4640060000000  0.5268810000000  0.5210870000000 1.0
C      1  0.4610640000000  0.5319900000000  0.4875850000000 1.0
C      1  0.4516890000000  0.5061550000000  0.4675430000000 1.0
C      1  0.4714470000000  0.4598210000000  0.4969870000000 1.0
C      1  0.5871980000000  0.4687260000000  0.5398730000000 1.0
C      1  0.5751490000000  0.5258560000000  0.5396390000000 1.0
C      1  0.5814640000000  0.5429240000000  0.4844920000000 1.0
C      1  0.5791180000000  0.5019140000000  0.4491440000000 1.0
C      1  0.5835510000000  0.4475430000000  0.4919980000000 1.0
C      1  0.4459300000000  0.5039080000000  0.4059530000000 1.0
C      1  0.4611710000000  0.4153340000000  0.4724420000000 1.0
C      1  0.4555450000000  0.4399180000000  0.5760380000000 1.0
C      1  0.4469250000000  0.5396280000000  0.5707440000000 1.0
C      1  0.4526420000000  0.5981580000000  0.4722150000000 1.0
C      1  0.5364960000000  0.5188760000000  0.5139240000000 1.0
C      1  0.5471500000000  0.5226740000000  0.4818320000000 1.0
C      1  0.5281780000000  0.5078120000000  0.4612300000000 1.0
C      1  0.5216310000000  0.4679620000000  0.5121340000000 1.0
C      1  0.5409500000000  0.4878260000000  0.5257060000000 1.0
C      1  0.4276020000000  0.5603110000000  0.4622480000000 1.0
C      1  0.4285100000000  0.4762430000000  0.4431930000000 1.0
C      1  0.4309510000000  0.4386170000000  0.5027560000000 1.0
C      1  0.4304230000000  0.4770100000000  0.5595260000000 1.0
C      1  0.4241180000000  0.5604910000000  0.5314040000000 1.0
C      1  0.5080960000000  0.4759100000000  0.5963000000000 1.0
C      1  0.5166500000000  0.5790200000000  0.5561480000000 1.0
C      1  0.5094230000000  0.5701950000000  0.4337930000000 1.0
C      1  0.5222490000000  0.4653470000000  0.4004840000000 1.0
C      1  0.5178130000000  0.4036140000000  0.5055530000000 1.0
C      1  0.3991530000000  0.5224070000000  0.5081020000000 1.0
C      1  0.3873120000000  0.5182280000000  0.4808520000000 1.0
C      1  0.3974450000000  0.4903180000000  0.4810260000000 1.0
C      1  0.3866840000000  0.4754820000000  0.5054800000000 1.0
C      1  0.4031460000000  0.4968330000000  0.5200670000000 1.0
C      1  0.4884610000000  0.3890740000000  0.4616680000000 1.0
C      1  0.4995340000000  0.4265030000000  0.5701600000000 1.0
C      1  0.4854080000000  0.5523610000000  0.5975190000000 1.0
C      1  0.5004140000000  0.6025660000000  0.4799490000000 1.0
C      1  0.4860210000000  0.5272730000000  0.3814320000000 1.0
C      1  0.5911040000000  0.4680230000000  0.5082990000000 1.0
C      1  0.5721680000000  0.4969720000000  0.5281970000000 1.0
C      1  0.5708820000000  0.5483470000000  0.5158900000000 1.0
C      1  0.5770240000000  0.5127520000000  0.4773100000000 1.0
C      1  0.5698120000000  0.4687280000000  0.4498960000000 1.0
C      1  0.5168290000000  0.5330320000000  0.4464620000000 1.0
C      1  0.5201390000000  0.4659930000000  0.4652590000000 1.0
C      1  0.5237220000000  0.4393640000000  0.5265230000000 1.0
C      1  0.5260700000000  0.5096110000000  0.5675680000000 1.0
C      1  0.5230850000000  0.5504790000000  0.5123530000000 1.0
C      1  0.4817900000000  0.4402990000000  0.4749040000000 1.0
C      1  0.4831500000000  0.4551870000000  0.5476570000000 1.0
C      1  0.4795050000000  0.5322250000000  0.5640740000000 1.0
C      1  0.4820410000000  0.5582560000000  0.4821510000000 1.0
C      1  0.4889250000000  0.5095150000000  0.4134080000000 1.0
C      1  0.4698770000000  0.4806740000000  0.5644560000000 1.0
C      1  0.4706540000000  0.5571710000000  0.5347490000000 1.0
C      1  0.4606690000000  0.5295800000000  0.4479160000000 1.0
C      1  0.4669390000000  0.4855780000000  0.4485050000000 1.0
C      1  0.4681280000000  0.4443410000000  0.5220310000000 1.0
C      1  0.5261150000000  0.6047610000000  0.4873160000000 1.0
C      1  0.5181720000000  0.5269410000000  0.3925740000000 1.0
C      1  0.5098850000000  0.4138930000000  0.4536090000000 1.0
C      1  0.5253770000000  0.4149200000000  0.5729280000000 1.0
C      1  0.5127470000000  0.5350540000000  0.5951350000000 1.0
C      1  0.5452870000000  0.5683340000000  0.5175260000000 1.0
C      1  0.5466110000000  0.5412350000000  0.4343700000000 1.0
C      1  0.5391480000000  0.4675510000000  0.4432220000000 1.0
C      1  0.5549720000000  0.4284530000000  0.5289360000000 1.0
C      1  0.5562070000000  0.4982630000000  0.5785000000000 1.0
C      1  0.5452830000000  0.4070710000000  0.4853750000000 1.0
C      1  0.5330170000000  0.4547350000000  0.6006500000000 1.0
C      1  0.5386460000000  0.5737370000000  0.5795570000000 1.0
C      1  0.5370720000000  0.5884570000000  0.4415220000000 1.0
C      1  0.5465950000000  0.4847720000000  0.3868290000000 1.0
C      1  0.5352570000000  0.4213960000000  0.4396830000000 1.0
C      1  0.5331440000000  0.3943680000000  0.5555330000000 1.0
C      1  0.5174750000000  0.5068250000000  0.6065040000000 1.0
C      1  0.5323910000000  0.6122560000000  0.5140990000000 1.0
C      1  0.5215420000000  0.5542580000000  0.4062420000000 1.0
C      1  0.5567640000000  0.4347830000000  0.4985020000000 1.0
C      1  0.5627480000000  0.4756240000000  0.5619130000000 1.0
C      1  0.5589250000000  0.5532710000000  0.5518620000000 1.0
C      1  0.5775490000000  0.5589830000000  0.4574650000000 1.0
C      1  0.5663460000000  0.4869730000000  0.4214900000000 1.0
C      1  0.5454340000000  0.4997250000000  0.6080050000000 1.0
C      1  0.5354520000000  0.5918490000000  0.5319200000000 1.0
C      1  0.5465160000000  0.5693450000000  0.4196090000000 1.0
C      1  0.5332020000000  0.4449080000000  0.4239410000000 1.0
C      1  0.5377960000000  0.4021380000000  0.5300330000000 1.0
C      1  0.4268870000000  0.4850950000000  0.4741420000000 1.0
C      1  0.4388910000000  0.4692710000000  0.4997080000000 1.0
C      1  0.4304310000000  0.4852080000000  0.5270150000000 1.0
C      1  0.4163550000000  0.5445290000000  0.5096290000000 1.0
C      1  0.4326480000000  0.5471350000000  0.4867200000000 1.0
C      1  0.4634720000000  0.4089850000000  0.5398370000000 1.0
C      1  0.4552460000000  0.5100430000000  0.6040140000000 1.0
C      1  0.4703380000000  0.5940460000000  0.5192620000000 1.0
C      1  0.4533750000000  0.5524460000000  0.4122290000000 1.0
C      1  0.4703870000000  0.4396450000000  0.4274950000000 1.0
C      1  0.5105370000000  0.5461580000000  0.5630630000000 1.0
C      1  0.5107900000000  0.5581200000000  0.4655490000000 1.0
C      1  0.5160590000000  0.4973260000000  0.4091730000000 1.0
C      1  0.5103340000000  0.4262430000000  0.4832290000000 1.0
C      1  0.5066590000000  0.4588900000000  0.5695030000000 1.0
C      1  0.4961100000000  0.4293730000000  0.5296160000000 1.0
C      1  0.4941070000000  0.5035890000000  0.5711250000000 1.0
C      1  0.4938360000000  0.5627490000000  0.5108510000000 1.0
C      1  0.4886580000000  0.5303150000000  0.4343330000000 1.0
C      1  0.4902840000000  0.4622230000000  0.4536700000000 1.0
C      1  0.5453870000000  0.5864440000000  0.4723230000000 1.0
C      1  0.5492610000000  0.5124710000000  0.3936250000000 1.0
C      1  0.5559300000000  0.4216260000000  0.4601650000000 1.0
C      1  0.5434180000000  0.4404780000000  0.5743090000000 1.0
C      1  0.5419810000000  0.5473350000000  0.5875280000000 1.0
C      1  0.5452490000000  0.5529740000000  0.4662560000000 1.0
C      1  0.5351740000000  0.4959420000000  0.4318080000000 1.0
C      1  0.5306520000000  0.4492010000000  0.4884920000000 1.0
C      1  0.5341010000000  0.4620070000000  0.5496660000000 1.0
C      1  0.5342480000000  0.5312390000000  0.5455270000000 1.0
C      1  0.4847920000000  0.5000390000000  0.5230040000000 1.0
C      1  0.5030950000000  0.5239970000000  0.5138000000000 1.0
C      1  0.4900440000000  0.5161710000000  0.4870530000000 1.0
C      1  0.5056080000000  0.4925620000000  0.4754950000000 1.0
C      1  0.4937260000000  0.4796400000000  0.5033230000000 1.0
C      1  0.4952630000000  0.4603020000000  0.4200840000000 1.0
C      1  0.4863850000000  0.3995150000000  0.5165480000000 1.0
C      1  0.4805720000000  0.4934580000000  0.6006270000000 1.0
C      1  0.4960170000000  0.5874900000000  0.5333280000000 1.0
C      1  0.4776550000000  0.5624620000000  0.4329250000000 1.0
C      1  0.4592260000000  0.5374060000000  0.5980390000000 1.0
C      1  0.4731360000000  0.6040610000000  0.4929080000000 1.0
C      1  0.4582280000000  0.5287860000000  0.3965520000000 1.0
C      1  0.4783440000000  0.4160670000000  0.4432730000000 1.0
C      1  0.4725770000000  0.4205700000000  0.5646200000000 1.0
C      1  0.5875090000000  0.4954850000000  0.4984640000000 1.0
END
