TITL C-3289322-3858-562 0.000107594710388708 125000 -828.342037480361 0 0 142 (Ci) n - 1
REM
REM in /nfs/bkarasulu/CARBON/AIRSS/Generating-Clusters/AIREBO/with-SteepDescent/Higher-Symm/SD-CG/HFTN-CG
REM
REM
REM
REM
REM
REM ./C.cell (b20cbc046b6831c77cfcea5457e17084)
REM
REM compiler GCC version 9.2.1 20190827 (Red Hat 9.2.1-1)
REM options -cpp -mtune=generic -march=x86-64 -g -O0 -fpre-include=/usr/include/finclude/math-vector-fortran.h
REM seed -1405235263 1072101813 -1237020471 -2114520680 -423545609 -33779341 -1812814550 39763640 -2015393537 -175321567 37891834 1966323923 1590699252 971808316 1251932958 -860627872 -1080741253 -305781143 1082891017 859042530 571481204 -190261159 -990708857 -1621994306 -1432824335 2124448825 936312606 -130237957 217344336 -318888840 -975621836 -706754504 -129169105
REM
CELL 1.54180   50.00000   50.00000   50.00000   90.00000   90.00000   90.00000
LATT -1
SFAC C  
C      1  0.4451920000000  0.4532240000000  0.5005240000000 1.0
C      1  0.4301260000000  0.4946430000000  0.5018670000000 1.0
C      1  0.4395500000000  0.5334850000000  0.5004910000000 1.0
C      1  0.4719080000000  0.5631510000000  0.5002770000000 1.0
C      1  0.5132400000000  0.5687460000000  0.5002340000000 1.0
C      1  0.5542070000000  0.5472360000000  0.4994410000000 1.0
C      1  0.5688550000000  0.5065620000000  0.4977070000000 1.0
C      1  0.5591470000000  0.4678210000000  0.4994060000000 1.0
C      1  0.5266750000000  0.4380060000000  0.4995960000000 1.0
C      1  0.4858230000000  0.4320420000000  0.4996260000000 1.0
C      1  0.4836270000000  0.4708980000000  0.5645820000000 1.0
C      1  0.4699940000000  0.4846370000000  0.4363250000000 1.0
C      1  0.4649360000000  0.5061300000000  0.5621980000000 1.0
C      1  0.4774300000000  0.5228150000000  0.4442990000000 1.0
C      1  0.4943450000000  0.5350690000000  0.5618700000000 1.0
C      1  0.5158440000000  0.5294540000000  0.4356020000000 1.0
C      1  0.5293180000000  0.5158880000000  0.5637960000000 1.0
C      1  0.5344840000000  0.4941630000000  0.4380290000000 1.0
C      1  0.5222280000000  0.4774040000000  0.5566990000000 1.0
C      1  0.5048200000000  0.4652350000000  0.4381820000000 1.0
C      1  0.4602440000000  0.4353150000000  0.4085570000000 1.0
C      1  0.4284740000000  0.4695340000000  0.5924620000000 1.0
C      1  0.4244320000000  0.5183440000000  0.4076180000000 1.0
C      1  0.4484730000000  0.5593660000000  0.5928830000000 1.0
C      1  0.4927590000000  0.5760370000000  0.4078570000000 1.0
C      1  0.5387010000000  0.5653610000000  0.5915120000000 1.0
C      1  0.5704390000000  0.5310170000000  0.4074030000000 1.0
C      1  0.5743050000000  0.4818660000000  0.5923180000000 1.0
C      1  0.5508980000000  0.4411980000000  0.4069990000000 1.0
C      1  0.5069510000000  0.4244360000000  0.5920190000000 1.0
C      1  0.4459030000000  0.4765410000000  0.4508220000000 1.0
C      1  0.4345260000000  0.5142680000000  0.5555910000000 1.0
C      1  0.4558190000000  0.5457650000000  0.4475870000000 1.0
C      1  0.4909210000000  0.5660180000000  0.5550340000000 1.0
C      1  0.5293780000000  0.5508150000000  0.4504410000000 1.0
C      1  0.5534320000000  0.5240790000000  0.5493710000000 1.0
C      1  0.5648840000000  0.4863760000000  0.4443630000000 1.0
C      1  0.5433480000000  0.4547230000000  0.5512100000000 1.0
C      1  0.5084660000000  0.4343620000000  0.4447350000000 1.0
C      1  0.4699340000000  0.4495620000000  0.5497700000000 1.0
C      1  0.4725490000000  0.4551620000000  0.5195880000000 1.0
C      1  0.4510620000000  0.4795310000000  0.4809120000000 1.0
C      1  0.4459520000000  0.5127280000000  0.5254290000000 1.0
C      1  0.4647730000000  0.5383170000000  0.4788240000000 1.0
C      1  0.4935700000000  0.5549870000000  0.5243130000000 1.0
C      1  0.5266380000000  0.5453780000000  0.4806370000000 1.0
C      1  0.5481200000000  0.5211450000000  0.5193420000000 1.0
C      1  0.5529350000000  0.4883590000000  0.4742160000000 1.0
C      1  0.5339350000000  0.4628430000000  0.5212060000000 1.0
C      1  0.5050940000000  0.4457890000000  0.4752200000000 1.0
C      1  0.4158500000000  0.4901400000000  0.5512180000000 1.0
C      1  0.4263440000000  0.5384710000000  0.4505820000000 1.0
C      1  0.4624370000000  0.5765020000000  0.5504260000000 1.0
C      1  0.5147290000000  0.5780920000000  0.4504380000000 1.0
C      1  0.5581250000000  0.5547480000000  0.5490100000000 1.0
C      1  0.5835050000000  0.5105530000000  0.4485410000000 1.0
C      1  0.5727620000000  0.4620450000000  0.5490490000000 1.0
C      1  0.5369550000000  0.4241300000000  0.4494690000000 1.0
C      1  0.4846870000000  0.4223390000000  0.5495950000000 1.0
C      1  0.4411410000000  0.4458940000000  0.4511960000000 1.0
C      1  0.5495170000000  0.4781790000000  0.6029920000000 1.0
C      1  0.5304670000000  0.4541930000000  0.3944820000000 1.0
C      1  0.4977300000000  0.4452490000000  0.6070620000000 1.0
C      1  0.4660060000000  0.4577200000000  0.3940660000000 1.0
C      1  0.4459840000000  0.4856500000000  0.6058120000000 1.0
C      1  0.4493970000000  0.5228060000000  0.3976550000000 1.0
C      1  0.4687600000000  0.5460830000000  0.6053240000000 1.0
C      1  0.5018110000000  0.5550230000000  0.3929830000000 1.0
C      1  0.5326770000000  0.5430460000000  0.6060310000000 1.0
C      1  0.5529920000000  0.5146660000000  0.3942420000000 1.0
C      1  0.5173280000000  0.5815710000000  0.5508130000000 1.0
C      1  0.5601330000000  0.5534160000000  0.4494060000000 1.0
C      1  0.5803480000000  0.5099810000000  0.5533110000000 1.0
C      1  0.5729980000000  0.4567850000000  0.4472200000000 1.0
C      1  0.5328380000000  0.4259920000000  0.5503840000000 1.0
C      1  0.4818940000000  0.4189700000000  0.4490900000000 1.0
C      1  0.4391070000000  0.4471230000000  0.5506040000000 1.0
C      1  0.4188590000000  0.4904720000000  0.4468980000000 1.0
C      1  0.4264120000000  0.5439100000000  0.5526350000000 1.0
C      1  0.4665530000000  0.5745190000000  0.4492300000000 1.0
C      1  0.4815050000000  0.4817130000000  0.4059560000000 1.0
C      1  0.4721940000000  0.4959910000000  0.5932490000000 1.0
C      1  0.4757530000000  0.5144600000000  0.4109370000000 1.0
C      1  0.4863840000000  0.5243120000000  0.5923320000000 1.0
C      1  0.5039740000000  0.5270370000000  0.4052910000000 1.0
C      1  0.5175170000000  0.5189270000000  0.5940250000000 1.0
C      1  0.5268460000000  0.5041900000000  0.4069360000000 1.0
C      1  0.5230930000000  0.4865120000000  0.5897100000000 1.0
C      1  0.5126350000000  0.4758580000000  0.4073210000000 1.0
C      1  0.4951330000000  0.4733120000000  0.5950300000000 1.0
C      1  0.4789480000000  0.4877840000000  0.4858450000000 1.0
C      1  0.4749860000000  0.5060010000000  0.5302390000000 1.0
C      1  0.4859340000000  0.5158170000000  0.4764640000000 1.0
C      1  0.4979190000000  0.5255370000000  0.5302530000000 1.0
C      1  0.5147140000000  0.5188260000000  0.4855560000000 1.0
C      1  0.5201440000000  0.5130220000000  0.5147350000000 1.0
C      1  0.5238190000000  0.4949230000000  0.4699250000000 1.0
C      1  0.5129230000000  0.4851780000000  0.5248740000000 1.0
C      1  0.5008470000000  0.4753740000000  0.4698200000000 1.0
C      1  0.4842890000000  0.4818480000000  0.5150130000000 1.0
C      1  0.5150740000000  0.5971180000000  0.5283100000000 1.0
C      1  0.5681180000000  0.5700720000000  0.4697780000000 1.0
C      1  0.5981770000000  0.5218620000000  0.5359450000000 1.0
C      1  0.5881110000000  0.4542030000000  0.4700320000000 1.0
C      1  0.5428160000000  0.4143780000000  0.5275430000000 1.0
C      1  0.4841200000000  0.4035440000000  0.4716600000000 1.0
C      1  0.4311040000000  0.4305250000000  0.5302030000000 1.0
C      1  0.4011050000000  0.4785390000000  0.4642880000000 1.0
C      1  0.4111580000000  0.5466270000000  0.5299670000000 1.0
C      1  0.4561780000000  0.5863070000000  0.4717300000000 1.0
C      1  0.4165620000000  0.5509620000000  0.4729040000000 1.0
C      1  0.4618100000000  0.5909930000000  0.5271450000000 1.0
C      1  0.5240060000000  0.5936300000000  0.4708720000000 1.0
C      1  0.5766970000000  0.5602590000000  0.5296870000000 1.0
C      1  0.5985660000000  0.5062590000000  0.4710240000000 1.0
C      1  0.5825200000000  0.4499530000000  0.5264290000000 1.0
C      1  0.5375250000000  0.4099350000000  0.4729500000000 1.0
C      1  0.4755770000000  0.4069300000000  0.5289830000000 1.0
C      1  0.4224070000000  0.4404670000000  0.4703780000000 1.0
C      1  0.4006760000000  0.4945670000000  0.5288440000000 1.0
C      1  0.5099710000000  0.4096250000000  0.4911190000000 1.0
C      1  0.4546140000000  0.4214590000000  0.5081780000000 1.0
C      1  0.4150200000000  0.4660960000000  0.4914680000000 1.0
C      1  0.4097680000000  0.5204460000000  0.5105910000000 1.0
C      1  0.4392460000000  0.5662520000000  0.4913310000000 1.0
C      1  0.4891780000000  0.5912680000000  0.5086150000000 1.0
C      1  0.5446500000000  0.5790230000000  0.4920460000000 1.0
C      1  0.5842750000000  0.5344240000000  0.5089200000000 1.0
C      1  0.5890370000000  0.4805410000000  0.4892290000000 1.0
C      1  0.5594120000000  0.4349830000000  0.5082830000000 1.0
C      1  0.4243170000000  0.4667890000000  0.5646750000000 1.0
C      1  0.4186600000000  0.5161950000000  0.4351590000000 1.0
C      1  0.4427210000000  0.5630090000000  0.5654870000000 1.0
C      1  0.4907110000000  0.5797450000000  0.4356820000000 1.0
C      1  0.5399130000000  0.5705470000000  0.5637850000000 1.0
C      1  0.5748730000000  0.5338520000000  0.4351410000000 1.0
C      1  0.5802410000000  0.4841410000000  0.5648310000000 1.0
C      1  0.5566630000000  0.4376540000000  0.4344100000000 1.0
C      1  0.5088280000000  0.4207680000000  0.5641800000000 1.0
C      1  0.4592650000000  0.4300990000000  0.4362880000000 1.0
C      1  0.5008060000000  0.4990090000000  0.4376590000000 1.0
C      1  0.4986220000000  0.5013230000000  0.5619820000000 1.0
END
