TITL C-3289327-5623-23 0.00185689761685802 125000 -324.728709729984 0 0 57 (C1) n - 1
REM
REM in /nfs/bkarasulu/CARBON/AIRSS/Generating-Clusters/AIREBO/with-SteepDescent/Higher-Symm/SD-CG/HFTN-CG
REM
REM
REM
REM
REM
REM ./C.cell (b20cbc046b6831c77cfcea5457e17084)
REM
REM compiler GCC version 9.2.1 20190827 (Red Hat 9.2.1-1)
REM options -cpp -mtune=generic -march=x86-64 -g -O0 -fpre-include=/usr/include/finclude/math-vector-fortran.h
REM seed 615617072 -1066022643 -645385745 -898967770 -857659106 1093768487 1354029848 -127025652 1586564258 -1103623687 513236470 1178833959 1154510596 -710980146 975679868 -762219737 -1317096757 -1258098422 1800949695 -69776549 -1741158638 -1303464325 -1530769153 1532502622 -653990144 -1072905929 -1328521653 -1284850829 -2015244256 -1522225476 -1514012379 -640006475 1552021285
REM
CELL 1.54180   50.00000   50.00000   50.00000   90.00000   90.00000   90.00000
LATT -1
SFAC C  
C      1  0.5081860000000  0.5246300000000  0.4432470000000 1.0
C      1  0.5152010000000  0.5688460000000  0.5017460000000 1.0
C      1  0.5195060000000  0.5200960000000  0.5693060000000 1.0
C      1  0.5154280000000  0.4422200000000  0.5408910000000 1.0
C      1  0.5094180000000  0.4386430000000  0.4607560000000 1.0
C      1  0.4816780000000  0.4690880000000  0.4282950000000 1.0
C      1  0.4914790000000  0.4353790000000  0.4863190000000 1.0
C      1  0.4833070000000  0.4841210000000  0.5677640000000 1.0
C      1  0.4854820000000  0.5605390000000  0.5423190000000 1.0
C      1  0.4839290000000  0.5527410000000  0.4575060000000 1.0
C      1  0.5499300000000  0.4591950000000  0.4785300000000 1.0
C      1  0.5465700000000  0.5039630000000  0.4547840000000 1.0
C      1  0.5535530000000  0.5389370000000  0.4952460000000 1.0
C      1  0.5588630000000  0.5200410000000  0.5412550000000 1.0
C      1  0.5580520000000  0.4651170000000  0.5345210000000 1.0
C      1  0.4448360000000  0.5371780000000  0.4779180000000 1.0
C      1  0.4437250000000  0.4913990000000  0.4423140000000 1.0
C      1  0.4556940000000  0.4739590000000  0.4873740000000 1.0
C      1  0.4453230000000  0.4782100000000  0.5402510000000 1.0
C      1  0.4438200000000  0.5368770000000  0.5290130000000 1.0
C      1  0.4210300000000  0.5150400000000  0.4801920000000 1.0
C      1  0.4290190000000  0.5312220000000  0.5070680000000 1.0
C      1  0.4228600000000  0.4719070000000  0.5251760000000 1.0
C      1  0.4248200000000  0.4724250000000  0.4984670000000 1.0
C      1  0.4313550000000  0.4881910000000  0.4696240000000 1.0
C      1  0.5744190000000  0.4727640000000  0.4756790000000 1.0
C      1  0.5805310000000  0.4802970000000  0.5279550000000 1.0
C      1  0.5757640000000  0.5076490000000  0.5218710000000 1.0
C      1  0.5719510000000  0.5177990000000  0.4952010000000 1.0
C      1  0.5698830000000  0.5005370000000  0.4718810000000 1.0
C      1  0.5295700000000  0.4826840000000  0.5395170000000 1.0
C      1  0.5320210000000  0.4690100000000  0.5020580000000 1.0
C      1  0.5263880000000  0.4832310000000  0.4466470000000 1.0
C      1  0.5223340000000  0.5278510000000  0.4903290000000 1.0
C      1  0.5285500000000  0.5303820000000  0.5297580000000 1.0
C      1  0.4718080000000  0.5198350000000  0.5370920000000 1.0
C      1  0.4707000000000  0.5363210000000  0.4994680000000 1.0
C      1  0.4646730000000  0.5107490000000  0.4425280000000 1.0
C      1  0.4860340000000  0.4868360000000  0.4796450000000 1.0
C      1  0.4753010000000  0.4750940000000  0.5246830000000 1.0
C      1  0.4660210000000  0.5572280000000  0.5241920000000 1.0
C      1  0.4625990000000  0.4970590000000  0.5555460000000 1.0
C      1  0.4726660000000  0.4510030000000  0.5027800000000 1.0
C      1  0.4536000000000  0.4689110000000  0.4279430000000 1.0
C      1  0.4625510000000  0.5359660000000  0.4536210000000 1.0
C      1  0.5364410000000  0.4464390000000  0.5243180000000 1.0
C      1  0.5393220000000  0.5049310000000  0.5585660000000 1.0
C      1  0.5363160000000  0.5567190000000  0.5139770000000 1.0
C      1  0.5300470000000  0.5263170000000  0.4598190000000 1.0
C      1  0.5318550000000  0.4574390000000  0.4564780000000 1.0
C      1  0.4967350000000  0.5483350000000  0.4858450000000 1.0
C      1  0.5008750000000  0.5339290000000  0.5478150000000 1.0
C      1  0.5006140000000  0.4693060000000  0.5463800000000 1.0
C      1  0.5061300000000  0.4649270000000  0.4861640000000 1.0
C      1  0.4940430000000  0.4943280000000  0.4474380000000 1.0
C      1  0.5286770000000  0.5016750000000  0.5113640000000 1.0
C      1  0.4763130000000  0.5043230000000  0.5071500000000 1.0
END
