TITL C-3289324-3781-771 -0.00116258558636966 125000 -384.268593275485 0 0 74 (C1) n - 1
REM
REM in /nfs/bkarasulu/CARBON/AIRSS/Generating-Clusters/AIREBO/with-SteepDescent/Higher-Symm/SD-CG/HFTN-CG
REM
REM
REM
REM
REM
REM ./C.cell (b20cbc046b6831c77cfcea5457e17084)
REM
REM compiler GCC version 9.2.1 20190827 (Red Hat 9.2.1-1)
REM options -cpp -mtune=generic -march=x86-64 -g -O0 -fpre-include=/usr/include/finclude/math-vector-fortran.h
REM seed -697017079 -959841088 277052152 -70130455 681029740 1741653761 1661295790 1187049626 1240884922 -745795935 -1534038295 -544080422 22368000 -702893779 -1665660096 -1222878657 2111815408 850702959 1106356017 125589176 427619019 -137858688 -669820586 -99131465 -2051501533 -392301123 786630414 -1587866276 1621728487 -653128823 1002196944 1026019178 842926167
REM
CELL 1.54180   50.00000   50.00000   50.00000   90.00000   90.00000   90.00000
LATT -1
SFAC C  
C      1  0.5642290000000  0.4650340000000  0.4760050000000 1.0
C      1  0.5109790000000  0.5301810000000  0.4913130000000 1.0
C      1  0.4852140000000  0.4713800000000  0.4937430000000 1.0
C      1  0.4419650000000  0.4422700000000  0.4674820000000 1.0
C      1  0.5370680000000  0.5673310000000  0.4657400000000 1.0
C      1  0.4849420000000  0.4614550000000  0.4480410000000 1.0
C      1  0.4499280000000  0.4901790000000  0.5569280000000 1.0
C      1  0.5663560000000  0.5018610000000  0.5058210000000 1.0
C      1  0.5412490000000  0.5445300000000  0.4335320000000 1.0
C      1  0.5634980000000  0.4796390000000  0.4525920000000 1.0
C      1  0.5009750000000  0.5046430000000  0.4532220000000 1.0
C      1  0.5728070000000  0.5321090000000  0.4914830000000 1.0
C      1  0.5561230000000  0.5391650000000  0.4636370000000 1.0
C      1  0.4193400000000  0.4399290000000  0.5003440000000 1.0
C      1  0.4457510000000  0.4897990000000  0.4848740000000 1.0
C      1  0.5114390000000  0.4418820000000  0.4485540000000 1.0
C      1  0.4852660000000  0.5252010000000  0.5649070000000 1.0
C      1  0.5336900000000  0.5554700000000  0.4921410000000 1.0
C      1  0.5674110000000  0.4753960000000  0.5273050000000 1.0
C      1  0.5155300000000  0.4461440000000  0.5543920000000 1.0
C      1  0.4544620000000  0.4954910000000  0.4384850000000 1.0
C      1  0.4692560000000  0.4392200000000  0.4657040000000 1.0
C      1  0.4807190000000  0.5694230000000  0.5309150000000 1.0
C      1  0.4537300000000  0.5208070000000  0.5593650000000 1.0
C      1  0.4531140000000  0.4855520000000  0.5239210000000 1.0
C      1  0.5058100000000  0.4464990000000  0.5265200000000 1.0
C      1  0.5499740000000  0.4504360000000  0.5199630000000 1.0
C      1  0.5157420000000  0.4350080000000  0.4759270000000 1.0
C      1  0.4403130000000  0.5089030000000  0.4605710000000 1.0
C      1  0.5533160000000  0.5103140000000  0.4462680000000 1.0
C      1  0.4818790000000  0.5562770000000  0.4832950000000 1.0
C      1  0.4280220000000  0.5225210000000  0.5097300000000 1.0
C      1  0.5162620000000  0.5496400000000  0.4365150000000 1.0
C      1  0.5049610000000  0.5492780000000  0.5188200000000 1.0
C      1  0.4476490000000  0.5345130000000  0.4657250000000 1.0
C      1  0.5263460000000  0.5581930000000  0.5432260000000 1.0
C      1  0.4979680000000  0.5367350000000  0.4605630000000 1.0
C      1  0.4823190000000  0.5355600000000  0.5360740000000 1.0
C      1  0.5389160000000  0.5192380000000  0.5078060000000 1.0
C      1  0.4915890000000  0.4924520000000  0.5316760000000 1.0
C      1  0.4225970000000  0.4835210000000  0.5375350000000 1.0
C      1  0.4384780000000  0.4368580000000  0.5166350000000 1.0
C      1  0.5271650000000  0.4930540000000  0.5636830000000 1.0
C      1  0.5345620000000  0.4590810000000  0.4908890000000 1.0
C      1  0.5332280000000  0.4965300000000  0.5304070000000 1.0
C      1  0.5815000000000  0.4742970000000  0.4969930000000 1.0
C      1  0.4558870000000  0.5389970000000  0.4981470000000 1.0
C      1  0.4740220000000  0.4883240000000  0.4660190000000 1.0
C      1  0.4617930000000  0.4578980000000  0.5143800000000 1.0
C      1  0.5448680000000  0.5505940000000  0.5195380000000 1.0
C      1  0.5006780000000  0.4830260000000  0.4269790000000 1.0
C      1  0.5117390000000  0.5204620000000  0.5733310000000 1.0
C      1  0.5412450000000  0.4364020000000  0.5417960000000 1.0
C      1  0.5185150000000  0.4821230000000  0.4717050000000 1.0
C      1  0.5074220000000  0.5744900000000  0.4691200000000 1.0
C      1  0.4225310000000  0.4659970000000  0.4823110000000 1.0
C      1  0.5591820000000  0.4834820000000  0.5573740000000 1.0
C      1  0.5334380000000  0.5368520000000  0.5613790000000 1.0
C      1  0.4423560000000  0.5341950000000  0.5354610000000 1.0
C      1  0.5517370000000  0.5208730000000  0.5453930000000 1.0
C      1  0.4889520000000  0.4297520000000  0.4855270000000 1.0
C      1  0.4792490000000  0.5882370000000  0.4719940000000 1.0
C      1  0.4188100000000  0.4915920000000  0.5047220000000 1.0
C      1  0.4894760000000  0.5050240000000  0.4913070000000 1.0
C      1  0.5068010000000  0.4698440000000  0.5674550000000 1.0
C      1  0.4705070000000  0.5134540000000  0.5152140000000 1.0
C      1  0.4533560000000  0.5604950000000  0.5243690000000 1.0
C      1  0.4818910000000  0.4805410000000  0.5563360000000 1.0
C      1  0.4669540000000  0.5437450000000  0.4485080000000 1.0
C      1  0.5136450000000  0.4757920000000  0.5118710000000 1.0
C      1  0.5727010000000  0.5351850000000  0.5253790000000 1.0
C      1  0.4843900000000  0.4361410000000  0.5123710000000 1.0
C      1  0.5319200000000  0.4829080000000  0.4404000000000 1.0
C      1  0.5323010000000  0.4505760000000  0.4323500000000 1.0
END
