TITL C-3289330-4660-576 5.8703788204173e-05 125000 -407.605379746036 0 0 68 (C1) n - 1
REM
REM in /nfs/bkarasulu/CARBON/AIRSS/Generating-Clusters/AIREBO/with-SteepDescent/Higher-Symm/SD-CG/HFTN-CG
REM
REM
REM
REM
REM
REM ./C.cell (b20cbc046b6831c77cfcea5457e17084)
REM
REM compiler GCC version 9.2.1 20190827 (Red Hat 9.2.1-1)
REM options -cpp -mtune=generic -march=x86-64 -g -O0 -fpre-include=/usr/include/finclude/math-vector-fortran.h
REM seed 374658089 388260927 -1519341219 1836697150 53067435 1197862187 984564534 -1219155495 -953663411 -108217708 -1723087466 -119535005 -2015106957 -1853255342 -1904903053 125867658 714878321 -1894993412 -877774040 -912893860 340595332 -1683455866 -1532198042 713501722 -542849711 -464193719 759540426 1889186958 -1223289490 114916701 -593391852 -1496048720 1996131450
REM
CELL 1.54180   50.00000   50.00000   50.00000   90.00000   90.00000   90.00000
LATT -1
SFAC C  
C      1  0.4905910000000  0.5159990000000  0.5377990000000 1.0
C      1  0.4678450000000  0.5278060000000  0.5249190000000 1.0
C      1  0.4591820000000  0.5155020000000  0.5015420000000 1.0
C      1  0.4700020000000  0.5042440000000  0.4782930000000 1.0
C      1  0.4827570000000  0.5218020000000  0.4607710000000 1.0
C      1  0.5034890000000  0.5376240000000  0.4537370000000 1.0
C      1  0.5224340000000  0.5560050000000  0.4631550000000 1.0
C      1  0.5439870000000  0.5458030000000  0.4781610000000 1.0
C      1  0.5476460000000  0.5393040000000  0.5042300000000 1.0
C      1  0.5367040000000  0.5297840000000  0.5271370000000 1.0
C      1  0.5128200000000  0.5336980000000  0.5413790000000 1.0
C      1  0.5264020000000  0.4902140000000  0.5893750000000 1.0
C      1  0.4738950000000  0.4904370000000  0.5927810000000 1.0
C      1  0.4293450000000  0.4911800000000  0.5644620000000 1.0
C      1  0.4069530000000  0.4932160000000  0.5165300000000 1.0
C      1  0.4098480000000  0.4950490000000  0.4637390000000 1.0
C      1  0.4434460000000  0.4954170000000  0.4236010000000 1.0
C      1  0.4950520000000  0.4926060000000  0.4151970000000 1.0
C      1  0.5447020000000  0.4836110000000  0.4292170000000 1.0
C      1  0.5776110000000  0.4593840000000  0.4623740000000 1.0
C      1  0.5866220000000  0.4836810000000  0.5075330000000 1.0
C      1  0.5661260000000  0.4893850000000  0.5551960000000 1.0
C      1  0.5329710000000  0.4684790000000  0.5046100000000 1.0
C      1  0.5161200000000  0.4297060000000  0.5623080000000 1.0
C      1  0.4895070000000  0.4885470000000  0.5424000000000 1.0
C      1  0.4420450000000  0.4514720000000  0.5385260000000 1.0
C      1  0.4629920000000  0.4085010000000  0.5005880000000 1.0
C      1  0.4702830000000  0.4765550000000  0.4767690000000 1.0
C      1  0.4633930000000  0.4250540000000  0.4371570000000 1.0
C      1  0.5222020000000  0.4436030000000  0.4294170000000 1.0
C      1  0.5165710000000  0.3849810000000  0.4657040000000 1.0
C      1  0.5674970000000  0.4338990000000  0.4683430000000 1.0
C      1  0.5526370000000  0.4023140000000  0.5248840000000 1.0
C      1  0.4686960000000  0.4974660000000  0.4145890000000 1.0
C      1  0.5216620000000  0.4900580000000  0.4171140000000 1.0
C      1  0.5665130000000  0.4724900000000  0.4403090000000 1.0
C      1  0.5906870000000  0.4727480000000  0.4832440000000 1.0
C      1  0.5819270000000  0.4883040000000  0.5335550000000 1.0
C      1  0.5495240000000  0.4928550000000  0.5759420000000 1.0
C      1  0.5004530000000  0.4934610000000  0.5954610000000 1.0
C      1  0.4495230000000  0.4936650000000  0.5819860000000 1.0
C      1  0.4150850000000  0.4947970000000  0.5420250000000 1.0
C      1  0.4049430000000  0.4969720000000  0.4900580000000 1.0
C      1  0.4228300000000  0.4989210000000  0.4405070000000 1.0
C      1  0.5227090000000  0.5811690000000  0.5395240000000 1.0
C      1  0.5062270000000  0.5604070000000  0.5487350000000 1.0
C      1  0.4784200000000  0.5647970000000  0.5521810000000 1.0
C      1  0.4611420000000  0.5540450000000  0.5324770000000 1.0
C      1  0.4468660000000  0.5701110000000  0.5146680000000 1.0
C      1  0.4490430000000  0.5811150000000  0.4900670000000 1.0
C      1  0.4654780000000  0.5939550000000  0.4729200000000 1.0
C      1  0.4897050000000  0.5920530000000  0.4608680000000 1.0
C      1  0.5151660000000  0.5828200000000  0.4681040000000 1.0
C      1  0.5283470000000  0.5955890000000  0.4894930000000 1.0
C      1  0.5321720000000  0.5899910000000  0.5157410000000 1.0
C      1  0.5303430000000  0.4447220000000  0.5186700000000 1.0
C      1  0.5123190000000  0.4446120000000  0.5401870000000 1.0
C      1  0.4892360000000  0.4611710000000  0.5369850000000 1.0
C      1  0.4658350000000  0.4493350000000  0.5258790000000 1.0
C      1  0.4677800000000  0.4351030000000  0.5011390000000 1.0
C      1  0.4740600000000  0.4490640000000  0.4775400000000 1.0
C      1  0.4820810000000  0.4343480000000  0.4543550000000 1.0
C      1  0.5098260000000  0.4298970000000  0.4491590000000 1.0
C      1  0.5241810000000  0.4108630000000  0.4647730000000 1.0
C      1  0.5461380000000  0.4203320000000  0.4802310000000 1.0
C      1  0.5431900000000  0.4217160000000  0.5087350000000 1.0
C      1  0.5308590000000  0.4893550000000  0.4883050000000 1.0
C      1  0.5306310000000  0.5088230000000  0.4708440000000 1.0
END
