TITL C-3289327-5623-660 -0.000208202071876732 125000 -450.788136189945 0 0 103 (C1) n - 1
REM
REM in /nfs/bkarasulu/CARBON/AIRSS/Generating-Clusters/AIREBO/with-SteepDescent/Higher-Symm/SD-CG/HFTN-CG
REM
REM
REM
REM
REM
REM ./C.cell (b20cbc046b6831c77cfcea5457e17084)
REM
REM compiler GCC version 9.2.1 20190827 (Red Hat 9.2.1-1)
REM options -cpp -mtune=generic -march=x86-64 -g -O0 -fpre-include=/usr/include/finclude/math-vector-fortran.h
REM seed -2097710314 -1564912605 136087627 808570182 1710132139 2057670260 297852167 1079597459 -1119135756 1987817571 -781391155 -2072480433 -646985763 465532356 -1990748648 832833394 -411578237 585050323 -28397571 2081340978 1453214229 1737980884 -2024679908 479253493 1779917842 -1720238775 -2010025525 185584391 -755478985 1852588574 1042430075 1393193861 -1384262149
REM
CELL 1.54180   50.00000   50.00000   50.00000   90.00000   90.00000   90.00000
LATT -1
SFAC C  
C      1  0.4244630000000  0.5651930000000  0.5024910000000 1.0
C      1  0.4775560000000  0.5967490000000  0.4986690000000 1.0
C      1  0.5390100000000  0.5922780000000  0.5043360000000 1.0
C      1  0.5850900000000  0.5518110000000  0.5001400000000 1.0
C      1  0.5993170000000  0.4924140000000  0.4995100000000 1.0
C      1  0.5769990000000  0.4367840000000  0.4966570000000 1.0
C      1  0.5235920000000  0.4056180000000  0.5071140000000 1.0
C      1  0.4609630000000  0.4072730000000  0.4989060000000 1.0
C      1  0.4151890000000  0.4468250000000  0.4976730000000 1.0
C      1  0.4031790000000  0.5069200000000  0.4929550000000 1.0
C      1  0.5510730000000  0.4864610000000  0.5356410000000 1.0
C      1  0.5327770000000  0.4577760000000  0.4666900000000 1.0
C      1  0.5040520000000  0.4472000000000  0.5340550000000 1.0
C      1  0.4740030000000  0.4575840000000  0.4626340000000 1.0
C      1  0.4488090000000  0.4788850000000  0.5334680000000 1.0
C      1  0.4492900000000  0.5142240000000  0.4642680000000 1.0
C      1  0.4681610000000  0.5390610000000  0.5345000000000 1.0
C      1  0.4967750000000  0.5543690000000  0.4652740000000 1.0
C      1  0.5275020000000  0.5424530000000  0.5371180000000 1.0
C      1  0.5484260000000  0.5225700000000  0.4645470000000 1.0
C      1  0.4549740000000  0.4875740000000  0.5936350000000 1.0
C      1  0.4470310000000  0.5115210000000  0.3961680000000 1.0
C      1  0.4703480000000  0.5443270000000  0.5906330000000 1.0
C      1  0.5019850000000  0.5542520000000  0.4149570000000 1.0
C      1  0.5273650000000  0.5386200000000  0.6161110000000 1.0
C      1  0.5453530000000  0.5083760000000  0.4006500000000 1.0
C      1  0.5558470000000  0.4849440000000  0.6014980000000 1.0
C      1  0.5283320000000  0.4541280000000  0.4043330000000 1.0
C      1  0.4998220000000  0.4536720000000  0.6053120000000 1.0
C      1  0.4666820000000  0.4547300000000  0.3917410000000 1.0
C      1  0.5000140000000  0.5330360000000  0.4424280000000 1.0
C      1  0.5228650000000  0.5196770000000  0.5586320000000 1.0
C      1  0.5254130000000  0.5124290000000  0.4493140000000 1.0
C      1  0.5280020000000  0.4879590000000  0.5547850000000 1.0
C      1  0.5102370000000  0.4704070000000  0.4515670000000 1.0
C      1  0.5004490000000  0.4707590000000  0.5516400000000 1.0
C      1  0.4796870000000  0.4821070000000  0.4422870000000 1.0
C      1  0.4747740000000  0.4891340000000  0.5450370000000 1.0
C      1  0.4732920000000  0.5123580000000  0.4462740000000 1.0
C      1  0.4925960000000  0.5248200000000  0.5453620000000 1.0
C      1  0.4003220000000  0.4977870000000  0.5389360000000 1.0
C      1  0.4190860000000  0.5549210000000  0.4574210000000 1.0
C      1  0.4649430000000  0.5898950000000  0.5437860000000 1.0
C      1  0.5264870000000  0.5957660000000  0.4605850000000 1.0
C      1  0.5750230000000  0.5597850000000  0.5442890000000 1.0
C      1  0.5953250000000  0.5048910000000  0.4571870000000 1.0
C      1  0.5818000000000  0.4461010000000  0.5418110000000 1.0
C      1  0.5339040000000  0.4048930000000  0.4601380000000 1.0
C      1  0.4738240000000  0.4072600000000  0.5425790000000 1.0
C      1  0.4266740000000  0.4400880000000  0.4549850000000 1.0
C      1  0.4417820000000  0.5453450000000  0.4758690000000 1.0
C      1  0.4784130000000  0.5700220000000  0.5248720000000 1.0
C      1  0.5243280000000  0.5701080000000  0.4779240000000 1.0
C      1  0.5593250000000  0.5410650000000  0.5251170000000 1.0
C      1  0.5709240000000  0.4997500000000  0.4761340000000 1.0
C      1  0.5589920000000  0.4556300000000  0.5235870000000 1.0
C      1  0.5216850000000  0.4271790000000  0.4765710000000 1.0
C      1  0.4756460000000  0.4317160000000  0.5232120000000 1.0
C      1  0.4420890000000  0.4590660000000  0.4745760000000 1.0
C      1  0.4256280000000  0.5011670000000  0.5223800000000 1.0
C      1  0.4958270000000  0.5216200000000  0.4106510000000 1.0
C      1  0.5194410000000  0.5241870000000  0.5913970000000 1.0
C      1  0.5212260000000  0.5038910000000  0.4186320000000 1.0
C      1  0.5305480000000  0.4938440000000  0.5879750000000 1.0
C      1  0.5112160000000  0.4743340000000  0.4191990000000 1.0
C      1  0.5049550000000  0.4747850000000  0.5845330000000 1.0
C      1  0.4798250000000  0.4738430000000  0.4102680000000 1.0
C      1  0.4795210000000  0.4937680000000  0.5765650000000 1.0
C      1  0.4705290000000  0.5043170000000  0.4103210000000 1.0
C      1  0.4891740000000  0.5235170000000  0.5792480000000 1.0
C      1  0.4562430000000  0.5650640000000  0.4995430000000 1.0
C      1  0.5033800000000  0.5785380000000  0.5033700000000 1.0
C      1  0.5482920000000  0.5620410000000  0.5007100000000 1.0
C      1  0.5748510000000  0.5216620000000  0.5018610000000 1.0
C      1  0.5729100000000  0.4746950000000  0.4990830000000 1.0
C      1  0.5453840000000  0.4360110000000  0.4993330000000 1.0
C      1  0.4966410000000  0.4208960000000  0.4987310000000 1.0
C      1  0.4523230000000  0.4379610000000  0.4992220000000 1.0
C      1  0.4258480000000  0.4767170000000  0.4987230000000 1.0
C      1  0.4268480000000  0.5271310000000  0.5004180000000 1.0
C      1  0.4886720000000  0.4524130000000  0.4916910000000 1.0
C      1  0.4639790000000  0.4682440000000  0.5065910000000 1.0
C      1  0.4513660000000  0.4965940000000  0.4923340000000 1.0
C      1  0.4592280000000  0.5258030000000  0.5059240000000 1.0
C      1  0.4826210000000  0.5459810000000  0.4933030000000 1.0
C      1  0.5121730000000  0.5467290000000  0.5078580000000 1.0
C      1  0.5372320000000  0.5316680000000  0.4932740000000 1.0
C      1  0.5473860000000  0.5040670000000  0.5080760000000 1.0
C      1  0.5406040000000  0.4752190000000  0.4941340000000 1.0
C      1  0.5176810000000  0.4541980000000  0.5055670000000 1.0
C      1  0.4947280000000  0.4340160000000  0.4569850000000 1.0
C      1  0.4499770000000  0.4483070000000  0.5381370000000 1.0
C      1  0.4317480000000  0.4875400000000  0.4591040000000 1.0
C      1  0.4419030000000  0.5239160000000  0.5417310000000 1.0
C      1  0.4667700000000  0.5630330000000  0.4610450000000 1.0
C      1  0.5077600000000  0.5668640000000  0.5417820000000 1.0
C      1  0.5489690000000  0.5531210000000  0.4617620000000 1.0
C      1  0.5690970000000  0.5122260000000  0.5402860000000 1.0
C      1  0.5607620000000  0.4714920000000  0.4601520000000 1.0
C      1  0.5338590000000  0.4377660000000  0.5379500000000 1.0
C      1  0.4941950000000  0.5015160000000  0.5215070000000 1.0
C      1  0.5068330000000  0.4971900000000  0.4697930000000 1.0
C      1  0.4994670000000  0.4999530000000  0.4950840000000 1.0
END
