TITL C-3289324-3781-621 0.00117897277598835 125000 -935.099604323266 0 0 174 (C1) n - 1
REM
REM in /nfs/bkarasulu/CARBON/AIRSS/Generating-Clusters/AIREBO/with-SteepDescent/Higher-Symm/SD-CG/HFTN-CG
REM
REM
REM
REM
REM
REM ./C.cell (b20cbc046b6831c77cfcea5457e17084)
REM
REM compiler GCC version 9.2.1 20190827 (Red Hat 9.2.1-1)
REM options -cpp -mtune=generic -march=x86-64 -g -O0 -fpre-include=/usr/include/finclude/math-vector-fortran.h
REM seed -830806313 -1836210561 157478010 1344557083 -130886142 -2060967610 1591774570 -1617470743 1160421591 -1646673789 -498151408 1219574694 -2033800631 -782659115 -2037777079 -929101550 -2087075043 1081969880 -991850729 -1250044667 -608643743 -1148191005 -314938877 109360172 212595029 -1192354439 -742707274 -1804534283 2120467198 2070842881 1400150469 610433448 1624511892
REM
CELL 1.54180   50.00000   50.00000   50.00000   90.00000   90.00000   90.00000
LATT -1
SFAC C  
C      1  0.4945670000000  0.4618420000000  0.4313830000000 1.0
C      1  0.4990130000000  0.5426380000000  0.4191860000000 1.0
C      1  0.5741160000000  0.5602480000000  0.4511080000000 1.0
C      1  0.5736430000000  0.4502020000000  0.4573920000000 1.0
C      1  0.5189260000000  0.4843450000000  0.4349090000000 1.0
C      1  0.5192740000000  0.5151770000000  0.4212080000000 1.0
C      1  0.5278520000000  0.5141480000000  0.5025150000000 1.0
C      1  0.5225950000000  0.4831820000000  0.4968490000000 1.0
C      1  0.4484960000000  0.4795890000000  0.4812730000000 1.0
C      1  0.4416090000000  0.5103880000000  0.4752430000000 1.0
C      1  0.5979920000000  0.4638640000000  0.4768230000000 1.0
C      1  0.5938250000000  0.5401910000000  0.4702240000000 1.0
C      1  0.5992530000000  0.4889600000000  0.4615510000000 1.0
C      1  0.6056170000000  0.5164470000000  0.4646510000000 1.0
C      1  0.5668690000000  0.4172270000000  0.5062220000000 1.0
C      1  0.5689360000000  0.5748400000000  0.5010400000000 1.0
C      1  0.4675300000000  0.4451900000000  0.4192260000000 1.0
C      1  0.4693500000000  0.5570010000000  0.4147950000000 1.0
C      1  0.4666920000000  0.3993300000000  0.5144030000000 1.0
C      1  0.4740630000000  0.6022710000000  0.5151100000000 1.0
C      1  0.4357860000000  0.5501170000000  0.5787400000000 1.0
C      1  0.4432680000000  0.4335340000000  0.5678120000000 1.0
C      1  0.5725870000000  0.5394880000000  0.4169660000000 1.0
C      1  0.5774750000000  0.4585270000000  0.4231330000000 1.0
C      1  0.4770500000000  0.5178840000000  0.5983130000000 1.0
C      1  0.4835170000000  0.4848840000000  0.6000510000000 1.0
C      1  0.4193920000000  0.5475180000000  0.5190950000000 1.0
C      1  0.4127020000000  0.4483580000000  0.5192180000000 1.0
C      1  0.5653120000000  0.5223970000000  0.5325130000000 1.0
C      1  0.5703750000000  0.4888040000000  0.5339890000000 1.0
C      1  0.4257470000000  0.4802080000000  0.5806730000000 1.0
C      1  0.4314140000000  0.5108990000000  0.5725670000000 1.0
C      1  0.6078680000000  0.4821640000000  0.5219000000000 1.0
C      1  0.6021050000000  0.5107240000000  0.5222310000000 1.0
C      1  0.5943570000000  0.5245120000000  0.5505760000000 1.0
C      1  0.5982990000000  0.4789750000000  0.5507260000000 1.0
C      1  0.4885910000000  0.5610400000000  0.5279210000000 1.0
C      1  0.4949600000000  0.4413860000000  0.5277770000000 1.0
C      1  0.4929200000000  0.4805980000000  0.3831460000000 1.0
C      1  0.4910520000000  0.5145220000000  0.3862370000000 1.0
C      1  0.4313640000000  0.5218820000000  0.5015390000000 1.0
C      1  0.4199920000000  0.4670340000000  0.4950320000000 1.0
C      1  0.4878750000000  0.4904530000000  0.5149270000000 1.0
C      1  0.4834920000000  0.5196220000000  0.5260320000000 1.0
C      1  0.5586370000000  0.5308230000000  0.4538620000000 1.0
C      1  0.5610570000000  0.4796430000000  0.4688510000000 1.0
C      1  0.5680470000000  0.4873870000000  0.5000910000000 1.0
C      1  0.5774170000000  0.5201160000000  0.5008200000000 1.0
C      1  0.4935030000000  0.5955680000000  0.4642640000000 1.0
C      1  0.4784140000000  0.4035530000000  0.4573180000000 1.0
C      1  0.4731720000000  0.6006400000000  0.4880990000000 1.0
C      1  0.4621420000000  0.4007300000000  0.4863090000000 1.0
C      1  0.5635660000000  0.5626890000000  0.5551860000000 1.0
C      1  0.5665850000000  0.4356920000000  0.5505650000000 1.0
C      1  0.5688820000000  0.4217450000000  0.4742160000000 1.0
C      1  0.5643870000000  0.5817560000000  0.4720250000000 1.0
C      1  0.5494970000000  0.5587110000000  0.4270960000000 1.0
C      1  0.5474990000000  0.4484690000000  0.4356570000000 1.0
C      1  0.4901980000000  0.4113770000000  0.5603970000000 1.0
C      1  0.4801900000000  0.5773220000000  0.5633820000000 1.0
C      1  0.5064530000000  0.5649340000000  0.4571040000000 1.0
C      1  0.5037190000000  0.4188420000000  0.4604000000000 1.0
C      1  0.5424030000000  0.5162910000000  0.5647100000000 1.0
C      1  0.5480060000000  0.4821120000000  0.5591130000000 1.0
C      1  0.4760920000000  0.4512790000000  0.6041410000000 1.0
C      1  0.4762350000000  0.5753980000000  0.6030560000000 1.0
C      1  0.5297690000000  0.5803000000000  0.4386240000000 1.0
C      1  0.5307760000000  0.4216060000000  0.4415150000000 1.0
C      1  0.5821290000000  0.4397510000000  0.5219650000000 1.0
C      1  0.5726810000000  0.5553730000000  0.5286640000000 1.0
C      1  0.5207560000000  0.4480290000000  0.4146510000000 1.0
C      1  0.5260140000000  0.5561610000000  0.4056200000000 1.0
C      1  0.5500210000000  0.5274880000000  0.4854820000000 1.0
C      1  0.5578710000000  0.4592280000000  0.5102600000000 1.0
C      1  0.4955940000000  0.5557220000000  0.4975060000000 1.0
C      1  0.4973040000000  0.4347650000000  0.4964640000000 1.0
C      1  0.5403100000000  0.4494190000000  0.5531790000000 1.0
C      1  0.5378410000000  0.5501730000000  0.5619900000000 1.0
C      1  0.5251060000000  0.4115830000000  0.5431770000000 1.0
C      1  0.5278130000000  0.5923780000000  0.5449310000000 1.0
C      1  0.5915460000000  0.5510400000000  0.5003980000000 1.0
C      1  0.5985150000000  0.4618820000000  0.5045910000000 1.0
C      1  0.4954630000000  0.4073960000000  0.5270590000000 1.0
C      1  0.4972670000000  0.5914590000000  0.5376020000000 1.0
C      1  0.3974340000000  0.4887590000000  0.4881800000000 1.0
C      1  0.3988450000000  0.5186420000000  0.5008010000000 1.0
C      1  0.5783250000000  0.4864210000000  0.5738970000000 1.0
C      1  0.5744310000000  0.5181370000000  0.5759850000000 1.0
C      1  0.4641640000000  0.5182650000000  0.4067330000000 1.0
C      1  0.4693150000000  0.4871620000000  0.4055290000000 1.0
C      1  0.4224800000000  0.4274570000000  0.4988980000000 1.0
C      1  0.4160710000000  0.5680550000000  0.4947810000000 1.0
C      1  0.5190390000000  0.4548650000000  0.4833970000000 1.0
C      1  0.4997530000000  0.5254450000000  0.4998020000000 1.0
C      1  0.4802710000000  0.5467160000000  0.3843250000000 1.0
C      1  0.4746690000000  0.4522240000000  0.3873990000000 1.0
C      1  0.4459320000000  0.4692550000000  0.4500230000000 1.0
C      1  0.4556480000000  0.5375440000000  0.4642280000000 1.0
C      1  0.4172530000000  0.4341620000000  0.4701360000000 1.0
C      1  0.4336450000000  0.5634010000000  0.4660990000000 1.0
C      1  0.5371900000000  0.5883260000000  0.4672640000000 1.0
C      1  0.5416050000000  0.4087590000000  0.4665400000000 1.0
C      1  0.5137290000000  0.5724940000000  0.5686810000000 1.0
C      1  0.5160960000000  0.4315990000000  0.5691830000000 1.0
C      1  0.5133890000000  0.4931700000000  0.6131200000000 1.0
C      1  0.5235660000000  0.5191820000000  0.6114620000000 1.0
C      1  0.4698790000000  0.5612900000000  0.4823660000000 1.0
C      1  0.4688440000000  0.4399880000000  0.4849160000000 1.0
C      1  0.4786320000000  0.4704820000000  0.5696290000000 1.0
C      1  0.4775650000000  0.5241260000000  0.5660670000000 1.0
C      1  0.4438520000000  0.4695230000000  0.4171090000000 1.0
C      1  0.4458900000000  0.5334630000000  0.4222580000000 1.0
C      1  0.5479330000000  0.5220180000000  0.5977730000000 1.0
C      1  0.5531350000000  0.4714210000000  0.5911160000000 1.0
C      1  0.4726900000000  0.4868190000000  0.4387520000000 1.0
C      1  0.4771600000000  0.5124930000000  0.4570810000000 1.0
C      1  0.4979450000000  0.4500820000000  0.4596410000000 1.0
C      1  0.4991690000000  0.5326470000000  0.4500800000000 1.0
C      1  0.4842670000000  0.5019130000000  0.4836780000000 1.0
C      1  0.4810000000000  0.4696220000000  0.4802890000000 1.0
C      1  0.5217560000000  0.4741800000000  0.5899830000000 1.0
C      1  0.5022900000000  0.5361580000000  0.6053740000000 1.0
C      1  0.5211060000000  0.5303850000000  0.3850260000000 1.0
C      1  0.5206030000000  0.4674490000000  0.3897300000000 1.0
C      1  0.5384470000000  0.4832000000000  0.4084670000000 1.0
C      1  0.5461530000000  0.5140240000000  0.4012120000000 1.0
C      1  0.5301100000000  0.5501780000000  0.4765730000000 1.0
C      1  0.5461220000000  0.4440140000000  0.4856530000000 1.0
C      1  0.5193620000000  0.4104040000000  0.4894830000000 1.0
C      1  0.5213820000000  0.5763400000000  0.4932110000000 1.0
C      1  0.4164970000000  0.4651830000000  0.4621200000000 1.0
C      1  0.4025770000000  0.5528580000000  0.4681290000000 1.0
C      1  0.5275590000000  0.4492700000000  0.5220460000000 1.0
C      1  0.5204090000000  0.5550060000000  0.5334090000000 1.0
C      1  0.5370740000000  0.4175450000000  0.5143430000000 1.0
C      1  0.5410040000000  0.5780640000000  0.5192140000000 1.0
C      1  0.5669900000000  0.5109070000000  0.4279530000000 1.0
C      1  0.5772900000000  0.4858400000000  0.4396250000000 1.0
C      1  0.3976870000000  0.4909940000000  0.4542520000000 1.0
C      1  0.4026790000000  0.5221280000000  0.4670000000000 1.0
C      1  0.4600280000000  0.4209720000000  0.4369020000000 1.0
C      1  0.4781920000000  0.5741240000000  0.4405680000000 1.0
C      1  0.4673410000000  0.5533630000000  0.5787320000000 1.0
C      1  0.4766530000000  0.4367420000000  0.5734030000000 1.0
C      1  0.5085180000000  0.4472050000000  0.5943660000000 1.0
C      1  0.5016750000000  0.5626180000000  0.5969080000000 1.0
C      1  0.4490840000000  0.4372590000000  0.5072210000000 1.0
C      1  0.4477270000000  0.5698200000000  0.5028830000000 1.0
C      1  0.4141000000000  0.4837690000000  0.5492640000000 1.0
C      1  0.4097650000000  0.5176390000000  0.5472060000000 1.0
C      1  0.4579380000000  0.5919220000000  0.5419040000000 1.0
C      1  0.4605560000000  0.4150530000000  0.5441350000000 1.0
C      1  0.5320860000000  0.4877090000000  0.4647810000000 1.0
C      1  0.5291410000000  0.5180410000000  0.4529250000000 1.0
C      1  0.5313140000000  0.5230960000000  0.5332900000000 1.0
C      1  0.5124320000000  0.4789110000000  0.5290380000000 1.0
C      1  0.4297470000000  0.4539520000000  0.5442180000000 1.0
C      1  0.4288320000000  0.5458180000000  0.5500520000000 1.0
C      1  0.4556530000000  0.5855330000000  0.4631670000000 1.0
C      1  0.4465580000000  0.4241580000000  0.4671430000000 1.0
C      1  0.4278340000000  0.5166420000000  0.4447610000000 1.0
C      1  0.4197410000000  0.4897070000000  0.4282960000000 1.0
C      1  0.4489220000000  0.4622030000000  0.5852020000000 1.0
C      1  0.4459350000000  0.5252480000000  0.5972290000000 1.0
C      1  0.4621810000000  0.4479930000000  0.5358520000000 1.0
C      1  0.4550040000000  0.5592490000000  0.5329550000000 1.0
C      1  0.3891090000000  0.5229700000000  0.5274130000000 1.0
C      1  0.3951750000000  0.4841030000000  0.5209860000000 1.0
C      1  0.5081680000000  0.4824950000000  0.5606050000000 1.0
C      1  0.5040420000000  0.5128290000000  0.5508250000000 1.0
C      1  0.4540380000000  0.5094570000000  0.5508450000000 1.0
C      1  0.4620920000000  0.4810150000000  0.5440010000000 1.0
C      1  0.4533100000000  0.5272930000000  0.5244100000000 1.0
C      1  0.4585990000000  0.4795990000000  0.5119240000000 1.0
END
