TITL C-3289325-7307-345 -0.00101152122178645 125000 -290.619246803784 0 0 53 (C1) n - 1
REM
REM in /nfs/bkarasulu/CARBON/AIRSS/Generating-Clusters/AIREBO/with-SteepDescent/Higher-Symm/SD-CG/HFTN-CG
REM
REM
REM
REM
REM
REM ./C.cell (b20cbc046b6831c77cfcea5457e17084)
REM
REM compiler GCC version 9.2.1 20190827 (Red Hat 9.2.1-1)
REM options -cpp -mtune=generic -march=x86-64 -g -O0 -fpre-include=/usr/include/finclude/math-vector-fortran.h
REM seed -934376220 -1237259284 1953655527 -1099503401 -1885698045 1932564925 -20970435 -1558498288 -1448762811 1488838117 -1497698562 -1106975867 1385239972 1810822043 1760179437 905790663 -1035561183 1156015577 1548837741 -2065980177 -1016587660 -1752868961 -1100997671 -1957785206 -1585803406 -1987909539 1746108695 1828752834 -742222909 583067070 1489409935 -1815934715 -696505324
REM
CELL 1.54180   50.00000   50.00000   50.00000   90.00000   90.00000   90.00000
LATT -1
SFAC C  
C      1  0.4542720000000  0.5274490000000  0.5421690000000 1.0
C      1  0.5454940000000  0.5163800000000  0.4387720000000 1.0
C      1  0.4620560000000  0.4686860000000  0.5569840000000 1.0
C      1  0.5459640000000  0.4836080000000  0.4485490000000 1.0
C      1  0.4517890000000  0.5239270000000  0.4362310000000 1.0
C      1  0.5432880000000  0.5160110000000  0.5578320000000 1.0
C      1  0.4526240000000  0.4910090000000  0.4449960000000 1.0
C      1  0.5488710000000  0.4843080000000  0.5476760000000 1.0
C      1  0.4733080000000  0.4423080000000  0.5531060000000 1.0
C      1  0.5407330000000  0.4501710000000  0.4449180000000 1.0
C      1  0.4607030000000  0.5550910000000  0.5372700000000 1.0
C      1  0.5339270000000  0.5435130000000  0.4414490000000 1.0
C      1  0.4583250000000  0.4574630000000  0.4451740000000 1.0
C      1  0.5281290000000  0.4659260000000  0.5551140000000 1.0
C      1  0.4613190000000  0.5506270000000  0.4435190000000 1.0
C      1  0.5371750000000  0.5480780000000  0.5545520000000 1.0
C      1  0.4795140000000  0.4861660000000  0.5706330000000 1.0
C      1  0.5151120000000  0.4770360000000  0.4358520000000 1.0
C      1  0.4747520000000  0.5167340000000  0.5648220000000 1.0
C      1  0.5150200000000  0.5084130000000  0.4438490000000 1.0
C      1  0.4839620000000  0.4855510000000  0.4336990000000 1.0
C      1  0.5086060000000  0.4792970000000  0.5711790000000 1.0
C      1  0.4828140000000  0.5169260000000  0.4426810000000 1.0
C      1  0.5100240000000  0.5106840000000  0.5624770000000 1.0
C      1  0.4524710000000  0.5116210000000  0.4941010000000 1.0
C      1  0.5492010000000  0.5166100000000  0.5248930000000 1.0
C      1  0.4516700000000  0.4891130000000  0.4762780000000 1.0
C      1  0.5567460000000  0.4850380000000  0.5146050000000 1.0
C      1  0.4484910000000  0.5068120000000  0.5225400000000 1.0
C      1  0.5533810000000  0.5167960000000  0.4911470000000 1.0
C      1  0.4521280000000  0.4794390000000  0.5309400000000 1.0
C      1  0.5498860000000  0.4863420000000  0.4807540000000 1.0
C      1  0.5105600000000  0.4430270000000  0.4563340000000 1.0
C      1  0.4918180000000  0.4434920000000  0.5306320000000 1.0
C      1  0.5104840000000  0.5544120000000  0.4588320000000 1.0
C      1  0.4894410000000  0.5647730000000  0.5321260000000 1.0
C      1  0.5187750000000  0.4507770000000  0.5324160000000 1.0
C      1  0.4817840000000  0.4428080000000  0.4577760000000 1.0
C      1  0.5186280000000  0.5534620000000  0.5351640000000 1.0
C      1  0.4822010000000  0.5524970000000  0.4629180000000 1.0
C      1  0.4746470000000  0.4626730000000  0.5117470000000 1.0
C      1  0.5236350000000  0.4656970000000  0.4770130000000 1.0
C      1  0.4884860000000  0.5377010000000  0.5144060000000 1.0
C      1  0.5285670000000  0.5350750000000  0.4800640000000 1.0
C      1  0.4710340000000  0.4646410000000  0.4823470000000 1.0
C      1  0.5296560000000  0.4656030000000  0.5079380000000 1.0
C      1  0.4749710000000  0.5316070000000  0.4883790000000 1.0
C      1  0.5208060000000  0.5275490000000  0.5115160000000 1.0
C      1  0.5001880000000  0.5182230000000  0.4718830000000 1.0
C      1  0.4913610000000  0.5147430000000  0.5352850000000 1.0
C      1  0.4897570000000  0.4881750000000  0.5214400000000 1.0
C      1  0.4959280000000  0.4791570000000  0.4648800000000 1.0
C      1  0.5158350000000  0.4940370000000  0.5113670000000 1.0
END
