TITL C-3289329-2751-425 0.00121410737332066 125000 -1032.48531458806 0 0 195 (C1) n - 1
REM
REM in /nfs/bkarasulu/CARBON/AIRSS/Generating-Clusters/AIREBO/with-SteepDescent/Higher-Symm/SD-CG/HFTN-CG
REM
REM
REM
REM
REM
REM ./C.cell (b20cbc046b6831c77cfcea5457e17084)
REM
REM compiler GCC version 9.2.1 20190827 (Red Hat 9.2.1-1)
REM options -cpp -mtune=generic -march=x86-64 -g -O0 -fpre-include=/usr/include/finclude/math-vector-fortran.h
REM seed -1961303696 763358838 50243719 -2078558947 1248622316 -1680695911 -1895399232 -1084413110 1747203597 -1970842735 605774062 1544114154 696929020 -163504639 -1121500087 -1646444883 2089243131 -1413432322 435556388 -939306597 1464366831 585608938 -74943107 -426166678 -1623983255 1129492489 649207813 -332323807 1742236173 -1608023689 -1287297717 -2006731732 302123537
REM
CELL 1.54180   50.00000   50.00000   50.00000   90.00000   90.00000   90.00000
LATT -1
SFAC C  
C      1  0.5175030000000  0.4620190000000  0.5147660000000 1.0
C      1  0.4785110000000  0.4730760000000  0.4845800000000 1.0
C      1  0.5238350000000  0.5290560000000  0.5180800000000 1.0
C      1  0.4817740000000  0.5325400000000  0.4876400000000 1.0
C      1  0.4871750000000  0.4652610000000  0.5145240000000 1.0
C      1  0.5276610000000  0.4630460000000  0.4865480000000 1.0
C      1  0.4854930000000  0.5402780000000  0.5186240000000 1.0
C      1  0.5158150000000  0.5306140000000  0.4884430000000 1.0
C      1  0.4438930000000  0.5062290000000  0.6046140000000 1.0
C      1  0.5410110000000  0.5138110000000  0.3937370000000 1.0
C      1  0.4501320000000  0.4735680000000  0.6014000000000 1.0
C      1  0.5446290000000  0.4806630000000  0.3914490000000 1.0
C      1  0.5289730000000  0.5228180000000  0.6112050000000 1.0
C      1  0.4618730000000  0.5154760000000  0.4021310000000 1.0
C      1  0.5317750000000  0.4897070000000  0.6037420000000 1.0
C      1  0.4579830000000  0.4817310000000  0.3998240000000 1.0
C      1  0.5303000000000  0.4595770000000  0.6040680000000 1.0
C      1  0.4611020000000  0.4524640000000  0.4028590000000 1.0
C      1  0.5312450000000  0.5539220000000  0.6009690000000 1.0
C      1  0.4680710000000  0.5492440000000  0.4021800000000 1.0
C      1  0.4551170000000  0.4461780000000  0.5982750000000 1.0
C      1  0.5391440000000  0.4520780000000  0.3994550000000 1.0
C      1  0.4425540000000  0.5357580000000  0.6041480000000 1.0
C      1  0.5344470000000  0.5475360000000  0.3943290000000 1.0
C      1  0.4781510000000  0.4770940000000  0.4339210000000 1.0
C      1  0.5185090000000  0.4782700000000  0.5677920000000 1.0
C      1  0.4851350000000  0.5348920000000  0.4280200000000 1.0
C      1  0.5204150000000  0.5251230000000  0.5723190000000 1.0
C      1  0.5113060000000  0.4804250000000  0.4261990000000 1.0
C      1  0.4674470000000  0.4748890000000  0.5610700000000 1.0
C      1  0.5184000000000  0.5329310000000  0.4205110000000 1.0
C      1  0.4885650000000  0.5188150000000  0.5670900000000 1.0
C      1  0.5217930000000  0.4894670000000  0.4571630000000 1.0
C      1  0.4767350000000  0.4881190000000  0.5332610000000 1.0
C      1  0.5153180000000  0.5191280000000  0.4501850000000 1.0
C      1  0.4891590000000  0.5151210000000  0.5343970000000 1.0
C      1  0.4899750000000  0.4896160000000  0.4587330000000 1.0
C      1  0.5299230000000  0.4814310000000  0.5368110000000 1.0
C      1  0.4850860000000  0.5200220000000  0.4585960000000 1.0
C      1  0.5196100000000  0.5098730000000  0.5435100000000 1.0
C      1  0.5562430000000  0.5614480000000  0.5791780000000 1.0
C      1  0.4463300000000  0.5685250000000  0.4198340000000 1.0
C      1  0.5538610000000  0.4468010000000  0.5851410000000 1.0
C      1  0.4455360000000  0.4387360000000  0.4298020000000 1.0
C      1  0.4428020000000  0.5555730000000  0.5786860000000 1.0
C      1  0.5527630000000  0.5586580000000  0.4209380000000 1.0
C      1  0.4343370000000  0.4330390000000  0.5843950000000 1.0
C      1  0.5499110000000  0.4391150000000  0.4290280000000 1.0
C      1  0.5489490000000  0.4246210000000  0.5234920000000 1.0
C      1  0.4696110000000  0.4168040000000  0.4795930000000 1.0
C      1  0.5402820000000  0.5747740000000  0.5221040000000 1.0
C      1  0.4562970000000  0.5873280000000  0.4688030000000 1.0
C      1  0.4726000000000  0.4229910000000  0.5128950000000 1.0
C      1  0.5430200000000  0.4203310000000  0.4639350000000 1.0
C      1  0.4597810000000  0.5819190000000  0.5275160000000 1.0
C      1  0.5336920000000  0.5782170000000  0.4770280000000 1.0
C      1  0.5193960000000  0.5545740000000  0.5337900000000 1.0
C      1  0.4793380000000  0.5624760000000  0.4717000000000 1.0
C      1  0.5223770000000  0.4395700000000  0.5385500000000 1.0
C      1  0.4851530000000  0.4442550000000  0.4682900000000 1.0
C      1  0.4893870000000  0.5671080000000  0.5353080000000 1.0
C      1  0.5121700000000  0.5554490000000  0.4696090000000 1.0
C      1  0.4903690000000  0.4409190000000  0.5352020000000 1.0
C      1  0.5176430000000  0.4429460000000  0.4652570000000 1.0
C      1  0.5511500000000  0.5226210000000  0.5866470000000 1.0
C      1  0.4537270000000  0.5232980000000  0.4340200000000 1.0
C      1  0.5453410000000  0.4940800000000  0.5730780000000 1.0
C      1  0.4496370000000  0.4911130000000  0.4309200000000 1.0
C      1  0.4559680000000  0.5125840000000  0.5744840000000 1.0
C      1  0.5490560000000  0.5192420000000  0.4259160000000 1.0
C      1  0.4380710000000  0.4846270000000  0.5721490000000 1.0
C      1  0.5443430000000  0.4882670000000  0.4241580000000 1.0
C      1  0.5618060000000  0.3977470000000  0.4810640000000 1.0
C      1  0.4542820000000  0.3971790000000  0.5253130000000 1.0
C      1  0.5588150000000  0.6000070000000  0.4841410000000 1.0
C      1  0.4422740000000  0.6074540000000  0.5144310000000 1.0
C      1  0.4581930000000  0.3893440000000  0.4969060000000 1.0
C      1  0.5652580000000  0.4003330000000  0.5061600000000 1.0
C      1  0.4417750000000  0.6095240000000  0.4892810000000 1.0
C      1  0.5620150000000  0.5985420000000  0.5111810000000 1.0
C      1  0.3973330000000  0.5441610000000  0.5608410000000 1.0
C      1  0.5995530000000  0.5436580000000  0.4521500000000 1.0
C      1  0.4126980000000  0.4600130000000  0.5573290000000 1.0
C      1  0.6004490000000  0.4485220000000  0.4452290000000 1.0
C      1  0.6017950000000  0.5444590000000  0.5444160000000 1.0
C      1  0.3990450000000  0.5352330000000  0.4413050000000 1.0
C      1  0.5962070000000  0.4531350000000  0.5577810000000 1.0
C      1  0.3937050000000  0.4492530000000  0.4544630000000 1.0
C      1  0.4496040000000  0.4776320000000  0.5193660000000 1.0
C      1  0.5450150000000  0.4867650000000  0.4758140000000 1.0
C      1  0.4341410000000  0.5292800000000  0.5166550000000 1.0
C      1  0.5462380000000  0.5148820000000  0.4882750000000 1.0
C      1  0.5589010000000  0.4800470000000  0.5226440000000 1.0
C      1  0.4482070000000  0.4864400000000  0.4896110000000 1.0
C      1  0.5537940000000  0.5136820000000  0.5205070000000 1.0
C      1  0.4501000000000  0.5204270000000  0.4903550000000 1.0
C      1  0.5599600000000  0.5579190000000  0.4844090000000 1.0
C      1  0.4326010000000  0.5612800000000  0.5271790000000 1.0
C      1  0.5623150000000  0.4431550000000  0.4801600000000 1.0
C      1  0.4508830000000  0.4474710000000  0.5221350000000 1.0
C      1  0.4286050000000  0.5702400000000  0.4638290000000 1.0
C      1  0.5594470000000  0.5471770000000  0.5168440000000 1.0
C      1  0.4280990000000  0.4605110000000  0.4827960000000 1.0
C      1  0.5698660000000  0.4492590000000  0.5128240000000 1.0
C      1  0.5000220000000  0.4047230000000  0.5213060000000 1.0
C      1  0.5202400000000  0.4046300000000  0.4807310000000 1.0
C      1  0.4842200000000  0.5966000000000  0.5089500000000 1.0
C      1  0.5133660000000  0.5983940000000  0.4912230000000 1.0
C      1  0.5232000000000  0.4086140000000  0.5080560000000 1.0
C      1  0.4966410000000  0.4007060000000  0.4666970000000 1.0
C      1  0.5142600000000  0.5966300000000  0.5248880000000 1.0
C      1  0.4852750000000  0.6042140000000  0.4750980000000 1.0
C      1  0.3882030000000  0.5074590000000  0.4524830000000 1.0
C      1  0.5997780000000  0.5106150000000  0.5473960000000 1.0
C      1  0.3908150000000  0.4767240000000  0.4540390000000 1.0
C      1  0.5939560000000  0.4804560000000  0.5619840000000 1.0
C      1  0.5904800000000  0.5107510000000  0.4590770000000 1.0
C      1  0.3940420000000  0.5197580000000  0.5499520000000 1.0
C      1  0.5932230000000  0.4815630000000  0.4530240000000 1.0
C      1  0.4084130000000  0.4919020000000  0.5463380000000 1.0
C      1  0.4147000000000  0.4346360000000  0.4975660000000 1.0
C      1  0.5956330000000  0.4270640000000  0.5125140000000 1.0
C      1  0.4088000000000  0.5632970000000  0.4810120000000 1.0
C      1  0.5915000000000  0.5576080000000  0.5154570000000 1.0
C      1  0.6098160000000  0.4187540000000  0.4899760000000 1.0
C      1  0.4129380000000  0.4356790000000  0.5257840000000 1.0
C      1  0.5922650000000  0.5684830000000  0.4833800000000 1.0
C      1  0.4072770000000  0.5655910000000  0.5084900000000 1.0
C      1  0.4784090000000  0.4090080000000  0.4414910000000 1.0
C      1  0.5346590000000  0.4117170000000  0.5740010000000 1.0
C      1  0.4833850000000  0.5984490000000  0.4416430000000 1.0
C      1  0.5311900000000  0.5963100000000  0.5543750000000 1.0
C      1  0.5278610000000  0.4017670000000  0.4120450000000 1.0
C      1  0.4677740000000  0.4039470000000  0.5723980000000 1.0
C      1  0.5349290000000  0.5940150000000  0.4254170000000 1.0
C      1  0.4714330000000  0.5999240000000  0.5759270000000 1.0
C      1  0.4093290000000  0.4887890000000  0.4806750000000 1.0
C      1  0.5968320000000  0.4697350000000  0.5078290000000 1.0
C      1  0.3894890000000  0.5160250000000  0.4852490000000 1.0
C      1  0.5966410000000  0.4997760000000  0.5151670000000 1.0
C      1  0.6072640000000  0.4663990000000  0.4794700000000 1.0
C      1  0.4019460000000  0.4841560000000  0.5138630000000 1.0
C      1  0.5801480000000  0.5157700000000  0.4908230000000 1.0
C      1  0.4018960000000  0.5180280000000  0.5168410000000 1.0
C      1  0.5133660000000  0.4328890000000  0.5900360000000 1.0
C      1  0.4837430000000  0.4295490000000  0.4149650000000 1.0
C      1  0.5195330000000  0.5769590000000  0.5783200000000 1.0
C      1  0.4867740000000  0.5752540000000  0.4163030000000 1.0
C      1  0.4825070000000  0.4311500000000  0.5864720000000 1.0
C      1  0.5139760000000  0.4298350000000  0.4062800000000 1.0
C      1  0.4903000000000  0.5739530000000  0.5681150000000 1.0
C      1  0.5168000000000  0.5718490000000  0.4114710000000 1.0
C      1  0.4705220000000  0.5608260000000  0.4424530000000 1.0
C      1  0.5296910000000  0.5514340000000  0.5612960000000 1.0
C      1  0.4747980000000  0.4487050000000  0.4400860000000 1.0
C      1  0.5272630000000  0.4499560000000  0.5656550000000 1.0
C      1  0.5256920000000  0.5586570000000  0.4415220000000 1.0
C      1  0.4713080000000  0.5480410000000  0.5649660000000 1.0
C      1  0.5189870000000  0.4496120000000  0.4334820000000 1.0
C      1  0.4680520000000  0.4447250000000  0.5588410000000 1.0
C      1  0.5703890000000  0.5226690000000  0.5606730000000 1.0
C      1  0.4381090000000  0.5313790000000  0.4616140000000 1.0
C      1  0.5659290000000  0.4905140000000  0.5516130000000 1.0
C      1  0.4306260000000  0.5001470000000  0.4567040000000 1.0
C      1  0.4474420000000  0.5305030000000  0.5479450000000 1.0
C      1  0.5716190000000  0.5289300000000  0.4395450000000 1.0
C      1  0.4390460000000  0.4982130000000  0.5413300000000 1.0
C      1  0.5602370000000  0.4801530000000  0.4490550000000 1.0
C      1  0.4264430000000  0.5522230000000  0.4374110000000 1.0
C      1  0.5693190000000  0.5544320000000  0.5485710000000 1.0
C      1  0.4253790000000  0.4406320000000  0.4559560000000 1.0
C      1  0.5760670000000  0.4361030000000  0.5688120000000 1.0
C      1  0.5678760000000  0.5606120000000  0.4513460000000 1.0
C      1  0.4204510000000  0.5585560000000  0.5569940000000 1.0
C      1  0.5689870000000  0.4501990000000  0.4491150000000 1.0
C      1  0.4362540000000  0.4358500000000  0.5505520000000 1.0
C      1  0.4475240000000  0.4149020000000  0.4536650000000 1.0
C      1  0.5554940000000  0.4181340000000  0.5562970000000 1.0
C      1  0.4526700000000  0.5957830000000  0.4360650000000 1.0
C      1  0.5624240000000  0.5878150000000  0.5443720000000 1.0
C      1  0.5467230000000  0.4079370000000  0.4324570000000 1.0
C      1  0.4495960000000  0.4048870000000  0.5515310000000 1.0
C      1  0.5509460000000  0.5900840000000  0.4502390000000 1.0
C      1  0.4521650000000  0.5828750000000  0.5606580000000 1.0
C      1  0.6145770000000  0.4382270000000  0.4704020000000 1.0
C      1  0.3937990000000  0.4584100000000  0.5312080000000 1.0
C      1  0.6046400000000  0.5379940000000  0.4837770000000 1.0
C      1  0.3872840000000  0.5487030000000  0.5181390000000 1.0
C      1  0.3937770000000  0.4296070000000  0.4777660000000 1.0
C      1  0.6048380000000  0.4479880000000  0.5321550000000 1.0
C      1  0.3924830000000  0.5430110000000  0.4699130000000 1.0
C      1  0.6122470000000  0.5303050000000  0.5153070000000 1.0
C      1  0.4919500000000  0.4877760000000  0.5742020000000 1.0
C      1  0.5055550000000  0.5046830000000  0.4065980000000 1.0
C      1  0.4903620000000  0.5010160000000  0.4970500000000 1.0
END
