TITL C-3289333-7213-151 0.00148550344405933 125000 -1029.15607095949 0 0 187 (C1) n - 1
REM
REM in /nfs/bkarasulu/CARBON/AIRSS/Generating-Clusters/AIREBO/with-SteepDescent/Higher-Symm/SD-CG/HFTN-CG
REM
REM
REM
REM
REM
REM ./C.cell (b20cbc046b6831c77cfcea5457e17084)
REM
REM compiler GCC version 9.2.1 20190827 (Red Hat 9.2.1-1)
REM options -cpp -mtune=generic -march=x86-64 -g -O0 -fpre-include=/usr/include/finclude/math-vector-fortran.h
REM seed 1831372911 -1833394036 -2126706032 525262178 -1810006152 1183894432 -508007950 1783328412 -203992438 -1871500205 213968596 175661172 196265814 1782590203 -514379271 -1228654129 1688358083 1435206037 1144921754 -401421236 1938786471 984166184 -2013728355 -1633035286 278865731 1559037688 -194879674 -647474238 1553122782 -1372087573 2069940760 587471143 -1567674540
REM
CELL 1.54180   50.00000   50.00000   50.00000   90.00000   90.00000   90.00000
LATT -1
SFAC C  
C      1  0.5821020000000  0.5237650000000  0.4376670000000 1.0
C      1  0.4110550000000  0.5230680000000  0.4421030000000 1.0
C      1  0.4971610000000  0.5177490000000  0.5964050000000 1.0
C      1  0.5086760000000  0.4284190000000  0.5750640000000 1.0
C      1  0.5609890000000  0.4310050000000  0.4499280000000 1.0
C      1  0.4303950000000  0.4260550000000  0.4745660000000 1.0
C      1  0.4722120000000  0.4447820000000  0.6024980000000 1.0
C      1  0.6021580000000  0.4432030000000  0.4721990000000 1.0
C      1  0.4237790000000  0.4318590000000  0.4174580000000 1.0
C      1  0.5456310000000  0.4816770000000  0.4415180000000 1.0
C      1  0.4311400000000  0.4727850000000  0.4784880000000 1.0
C      1  0.5223450000000  0.4814140000000  0.5677370000000 1.0
C      1  0.4352240000000  0.4914230000000  0.4313560000000 1.0
C      1  0.4710560000000  0.5207550000000  0.5795070000000 1.0
C      1  0.5861310000000  0.5045500000000  0.4813660000000 1.0
C      1  0.4500010000000  0.5197370000000  0.4976190000000 1.0
C      1  0.5296900000000  0.5122100000000  0.5437710000000 1.0
C      1  0.5225990000000  0.5164250000000  0.4585650000000 1.0
C      1  0.4760960000000  0.5573460000000  0.4871170000000 1.0
C      1  0.5002640000000  0.5503360000000  0.5328910000000 1.0
C      1  0.5268500000000  0.5523160000000  0.4924510000000 1.0
C      1  0.4914280000000  0.4479280000000  0.5396810000000 1.0
C      1  0.5401340000000  0.4485960000000  0.4867620000000 1.0
C      1  0.4731620000000  0.4355330000000  0.4748910000000 1.0
C      1  0.5202850000000  0.5334220000000  0.5828310000000 1.0
C      1  0.5553320000000  0.5391730000000  0.4463710000000 1.0
C      1  0.4200450000000  0.5340160000000  0.4701490000000 1.0
C      1  0.4452110000000  0.5546200000000  0.5377840000000 1.0
C      1  0.5583900000000  0.5537980000000  0.5372110000000 1.0
C      1  0.5041340000000  0.5545340000000  0.4417850000000 1.0
C      1  0.5573340000000  0.4872560000000  0.4911710000000 1.0
C      1  0.4563570000000  0.5098880000000  0.4491930000000 1.0
C      1  0.4791730000000  0.5089030000000  0.5484600000000 1.0
C      1  0.5787220000000  0.5695200000000  0.4904310000000 1.0
C      1  0.4478310000000  0.5758020000000  0.4403660000000 1.0
C      1  0.4934760000000  0.5767640000000  0.5903650000000 1.0
C      1  0.5229580000000  0.4832640000000  0.4161820000000 1.0
C      1  0.4249680000000  0.4911130000000  0.5240500000000 1.0
C      1  0.5486900000000  0.4839730000000  0.5463710000000 1.0
C      1  0.5309720000000  0.5992720000000  0.5606380000000 1.0
C      1  0.5443010000000  0.5933710000000  0.4561070000000 1.0
C      1  0.4400300000000  0.5931940000000  0.4892190000000 1.0
C      1  0.4877960000000  0.4165150000000  0.4375650000000 1.0
C      1  0.4468530000000  0.4201430000000  0.5401940000000 1.0
C      1  0.5635820000000  0.4138190000000  0.5194020000000 1.0
C      1  0.3973570000000  0.5336780000000  0.4915380000000 1.0
C      1  0.5449520000000  0.5468900000000  0.5676810000000 1.0
C      1  0.5331740000000  0.5517150000000  0.4295880000000 1.0
C      1  0.4718350000000  0.5547730000000  0.5789820000000 1.0
C      1  0.5797260000000  0.5356550000000  0.4935380000000 1.0
C      1  0.4537080000000  0.5428160000000  0.4446490000000 1.0
C      1  0.4176880000000  0.4714240000000  0.4487030000000 1.0
C      1  0.5121510000000  0.4729920000000  0.5951420000000 1.0
C      1  0.5757380000000  0.4769300000000  0.4421760000000 1.0
C      1  0.5635970000000  0.4747100000000  0.4040670000000 1.0
C      1  0.3985100000000  0.4662140000000  0.4912250000000 1.0
C      1  0.5657870000000  0.4767180000000  0.6000420000000 1.0
C      1  0.4333230000000  0.4612100000000  0.5208870000000 1.0
C      1  0.5491280000000  0.4535240000000  0.5588120000000 1.0
C      1  0.5214460000000  0.4526810000000  0.4288160000000 1.0
C      1  0.4373510000000  0.5907560000000  0.4615110000000 1.0
C      1  0.5102590000000  0.5948510000000  0.5791290000000 1.0
C      1  0.5674940000000  0.5857260000000  0.4716210000000 1.0
C      1  0.4017560000000  0.4592370000000  0.5177970000000 1.0
C      1  0.5700700000000  0.4561850000000  0.5813530000000 1.0
C      1  0.5447230000000  0.4529610000000  0.4031320000000 1.0
C      1  0.5530930000000  0.4168000000000  0.4871870000000 1.0
C      1  0.4628690000000  0.4116150000000  0.4563350000000 1.0
C      1  0.4795060000000  0.4184610000000  0.5495880000000 1.0
C      1  0.5531220000000  0.5433670000000  0.4752450000000 1.0
C      1  0.4453770000000  0.5534040000000  0.4732150000000 1.0
C      1  0.4991750000000  0.5474200000000  0.5640560000000 1.0
C      1  0.5778020000000  0.5452530000000  0.5763040000000 1.0
C      1  0.5302230000000  0.5415230000000  0.3987450000000 1.0
C      1  0.3977700000000  0.5500470000000  0.5206650000000 1.0
C      1  0.4207420000000  0.5595230000000  0.5750110000000 1.0
C      1  0.6099040000000  0.5617750000000  0.5218030000000 1.0
C      1  0.4583170000000  0.5615430000000  0.3969890000000 1.0
C      1  0.5803350000000  0.6014320000000  0.5290580000000 1.0
C      1  0.4854200000000  0.5959440000000  0.4172170000000 1.0
C      1  0.4526000000000  0.5998780000000  0.5640730000000 1.0
C      1  0.4727750000000  0.5597670000000  0.5208750000000 1.0
C      1  0.5286790000000  0.5638810000000  0.5235130000000 1.0
C      1  0.5049410000000  0.5654800000000  0.4729380000000 1.0
C      1  0.4585960000000  0.5349340000000  0.4129150000000 1.0
C      1  0.4233620000000  0.5318550000000  0.5752370000000 1.0
C      1  0.6115200000000  0.5416250000000  0.5040150000000 1.0
C      1  0.5805010000000  0.5743350000000  0.5215080000000 1.0
C      1  0.4603410000000  0.5832600000000  0.4156830000000 1.0
C      1  0.4493190000000  0.5697950000000  0.5653090000000 1.0
C      1  0.4025770000000  0.4998740000000  0.5481320000000 1.0
C      1  0.5979320000000  0.5059820000000  0.5572990000000 1.0
C      1  0.4919400000000  0.5053250000000  0.4047030000000 1.0
C      1  0.4892360000000  0.5098950000000  0.4578980000000 1.0
C      1  0.4553860000000  0.5036760000000  0.5250470000000 1.0
C      1  0.5414560000000  0.5046110000000  0.5127890000000 1.0
C      1  0.4876770000000  0.5283380000000  0.4293690000000 1.0
C      1  0.4376670000000  0.5226700000000  0.5469960000000 1.0
C      1  0.5675130000000  0.5239040000000  0.5230620000000 1.0
C      1  0.5085740000000  0.5828590000000  0.4254100000000 1.0
C      1  0.4205610000000  0.5676060000000  0.5246480000000 1.0
C      1  0.5722990000000  0.5746350000000  0.5604280000000 1.0
C      1  0.5255220000000  0.4170610000000  0.5063860000000 1.0
C      1  0.4997030000000  0.4259310000000  0.4913940000000 1.0
C      1  0.4788910000000  0.4180480000000  0.5155940000000 1.0
C      1  0.5924750000000  0.4632230000000  0.5410090000000 1.0
C      1  0.4905060000000  0.4565390000000  0.3921120000000 1.0
C      1  0.4145130000000  0.4648510000000  0.5630310000000 1.0
C      1  0.4577320000000  0.4896140000000  0.5826110000000 1.0
C      1  0.5960520000000  0.4834210000000  0.5050810000000 1.0
C      1  0.4495150000000  0.4745740000000  0.4105990000000 1.0
C      1  0.5074400000000  0.3990990000000  0.5483040000000 1.0
C      1  0.5307500000000  0.3965360000000  0.4714490000000 1.0
C      1  0.4591650000000  0.3998240000000  0.4861160000000 1.0
C      1  0.5152640000000  0.3802150000000  0.4882750000000 1.0
C      1  0.4843110000000  0.3883950000000  0.4998520000000 1.0
C      1  0.5114800000000  0.3917720000000  0.5189400000000 1.0
C      1  0.5562200000000  0.5011490000000  0.4044380000000 1.0
C      1  0.3960950000000  0.4916510000000  0.4754060000000 1.0
C      1  0.5643770000000  0.5026570000000  0.5893870000000 1.0
C      1  0.5119380000000  0.6113590000000  0.5181270000000 1.0
C      1  0.5105150000000  0.6140460000000  0.4865690000000 1.0
C      1  0.4840600000000  0.6104420000000  0.5037140000000 1.0
C      1  0.5356970000000  0.4768190000000  0.4696560000000 1.0
C      1  0.4616820000000  0.4831240000000  0.4689070000000 1.0
C      1  0.4977410000000  0.4804350000000  0.5472870000000 1.0
C      1  0.5246040000000  0.5117400000000  0.3977290000000 1.0
C      1  0.4040100000000  0.5176880000000  0.5208030000000 1.0
C      1  0.5853320000000  0.5174620000000  0.5785250000000 1.0
C      1  0.5899010000000  0.4343630000000  0.5268820000000 1.0
C      1  0.4834820000000  0.4291940000000  0.4060890000000 1.0
C      1  0.4268740000000  0.4357230000000  0.5632040000000 1.0
C      1  0.5300870000000  0.4395250000000  0.4555590000000 1.0
C      1  0.4478890000000  0.4476580000000  0.4941520000000 1.0
C      1  0.5229710000000  0.4365170000000  0.5452900000000 1.0
C      1  0.4310510000000  0.5210740000000  0.4203200000000 1.0
C      1  0.4409570000000  0.5234380000000  0.5951070000000 1.0
C      1  0.6166030000000  0.5181880000000  0.4880710000000 1.0
C      1  0.5586830000000  0.4452010000000  0.5295960000000 1.0
C      1  0.4900200000000  0.4498280000000  0.4315090000000 1.0
C      1  0.4486190000000  0.4532800000000  0.5456870000000 1.0
C      1  0.3727270000000  0.5546050000000  0.4978370000000 1.0
C      1  0.5560470000000  0.5635390000000  0.5951720000000 1.0
C      1  0.5435200000000  0.5713350000000  0.4040640000000 1.0
C      1  0.4702010000000  0.4834600000000  0.5020330000000 1.0
C      1  0.5174870000000  0.4803690000000  0.5196040000000 1.0
C      1  0.5042830000000  0.4834460000000  0.4748640000000 1.0
C      1  0.5029340000000  0.4950500000000  0.6098310000000 1.0
C      1  0.5876470000000  0.5006190000000  0.4511290000000 1.0
C      1  0.3974270000000  0.4983180000000  0.4462140000000 1.0
C      1  0.5178040000000  0.4617780000000  0.3903330000000 1.0
C      1  0.3925900000000  0.4685380000000  0.5425900000000 1.0
C      1  0.5952390000000  0.4581910000000  0.5688110000000 1.0
C      1  0.5427440000000  0.5131210000000  0.4332750000000 1.0
C      1  0.4248990000000  0.5053850000000  0.4858700000000 1.0
C      1  0.5386850000000  0.5084410000000  0.5760660000000 1.0
C      1  0.5024980000000  0.5195880000000  0.5315070000000 1.0
C      1  0.5238950000000  0.5212380000000  0.4899360000000 1.0
C      1  0.4785110000000  0.5250870000000  0.4863650000000 1.0
C      1  0.5155630000000  0.4110550000000  0.4517930000000 1.0
C      1  0.4399210000000  0.4171650000000  0.5069550000000 1.0
C      1  0.5398650000000  0.4074460000000  0.5421400000000 1.0
C      1  0.5819010000000  0.4172590000000  0.4710250000000 1.0
C      1  0.4349210000000  0.4135870000000  0.4429120000000 1.0
C      1  0.4769250000000  0.4195840000000  0.5828390000000 1.0
C      1  0.5030430000000  0.4518910000000  0.4720570000000 1.0
C      1  0.4771410000000  0.4523940000000  0.5108440000000 1.0
C      1  0.5218800000000  0.4499870000000  0.5140610000000 1.0
C      1  0.5585790000000  0.5969170000000  0.5667450000000 1.0
C      1  0.5375140000000  0.5913320000000  0.4282080000000 1.0
C      1  0.4219070000000  0.5904630000000  0.5103030000000 1.0
C      1  0.5705590000000  0.4631950000000  0.5075460000000 1.0
C      1  0.4686650000000  0.4708080000000  0.4378090000000 1.0
C      1  0.4666060000000  0.4724550000000  0.5584030000000 1.0
C      1  0.6145550000000  0.4619450000000  0.4892450000000 1.0
C      1  0.4325160000000  0.4510320000000  0.4001550000000 1.0
C      1  0.4571420000000  0.4684080000000  0.6057420000000 1.0
C      1  0.5784920000000  0.4930760000000  0.5325690000000 1.0
C      1  0.4770900000000  0.4810400000000  0.3987750000000 1.0
C      1  0.4317890000000  0.4940950000000  0.5645580000000 1.0
C      1  0.5827580000000  0.4515570000000  0.4506770000000 1.0
C      1  0.4152040000000  0.4410060000000  0.4480680000000 1.0
C      1  0.5015810000000  0.4477170000000  0.5965220000000 1.0
C      1  0.5198000000000  0.5934890000000  0.4710410000000 1.0
C      1  0.4673100000000  0.5881140000000  0.4986210000000 1.0
C      1  0.5251830000000  0.5936150000000  0.5335380000000 1.0
C      1  0.4983410000000  0.5025620000000  0.5023580000000 1.0
END
