TITL C-3289325-7307-460 -0.000536092257116763 125000 -764.43354466198 0 0 143 (C1) n - 1
REM
REM in /nfs/bkarasulu/CARBON/AIRSS/Generating-Clusters/AIREBO/with-SteepDescent/Higher-Symm/SD-CG/HFTN-CG
REM
REM
REM
REM
REM
REM ./C.cell (b20cbc046b6831c77cfcea5457e17084)
REM
REM compiler GCC version 9.2.1 20190827 (Red Hat 9.2.1-1)
REM options -cpp -mtune=generic -march=x86-64 -g -O0 -fpre-include=/usr/include/finclude/math-vector-fortran.h
REM seed -300712732 182243449 -1560439698 -790877156 733033986 403625883 -684869739 -2081869470 -2023075370 1336948050 1566762965 -2056160761 761755815 767930817 1189442056 -118835018 1454661119 618386190 -1272648480 -653931334 597781061 -100237776 -1292200452 713140834 -1477159239 1445659063 -15833503 -698968250 1013436220 -908562078 217020697 2110432282 2078392014
REM
CELL 1.54180   50.00000   50.00000   50.00000   90.00000   90.00000   90.00000
LATT -1
SFAC C  
C      1  0.4734780000000  0.4185600000000  0.5492550000000 1.0
C      1  0.5267840000000  0.4207300000000  0.4413890000000 1.0
C      1  0.5382290000000  0.5895760000000  0.5562340000000 1.0
C      1  0.4584380000000  0.5958710000000  0.4654990000000 1.0
C      1  0.5494440000000  0.4261920000000  0.4662760000000 1.0
C      1  0.4505780000000  0.4211020000000  0.5306350000000 1.0
C      1  0.5616020000000  0.5815520000000  0.5445090000000 1.0
C      1  0.4451880000000  0.5820570000000  0.4854120000000 1.0
C      1  0.5104380000000  0.5367510000000  0.5832080000000 1.0
C      1  0.4895690000000  0.5283620000000  0.4123500000000 1.0
C      1  0.4902070000000  0.4722760000000  0.5844300000000 1.0
C      1  0.5126870000000  0.4596520000000  0.4140420000000 1.0
C      1  0.5869430000000  0.5244640000000  0.5086290000000 1.0
C      1  0.4103300000000  0.5257550000000  0.4878860000000 1.0
C      1  0.5842890000000  0.4638970000000  0.4926520000000 1.0
C      1  0.4154790000000  0.4667200000000  0.5114070000000 1.0
C      1  0.5648880000000  0.5608070000000  0.4764210000000 1.0
C      1  0.4344320000000  0.5609590000000  0.5185780000000 1.0
C      1  0.4330840000000  0.4272870000000  0.4772830000000 1.0
C      1  0.5637290000000  0.4315870000000  0.5193100000000 1.0
C      1  0.4722450000000  0.5697170000000  0.5685830000000 1.0
C      1  0.5230730000000  0.5631050000000  0.4301170000000 1.0
C      1  0.4742010000000  0.4320050000000  0.4195780000000 1.0
C      1  0.5208240000000  0.4348680000000  0.5685210000000 1.0
C      1  0.4026350000000  0.5098970000000  0.5487570000000 1.0
C      1  0.5898460000000  0.5096850000000  0.4518260000000 1.0
C      1  0.5967500000000  0.4864050000000  0.5518370000000 1.0
C      1  0.4010160000000  0.4773210000000  0.4486290000000 1.0
C      1  0.5489410000000  0.5044200000000  0.3943390000000 1.0
C      1  0.4541680000000  0.5143300000000  0.6003240000000 1.0
C      1  0.5459630000000  0.5096360000000  0.6079570000000 1.0
C      1  0.4569580000000  0.4904180000000  0.4045220000000 1.0
C      1  0.4333280000000  0.5241780000000  0.5522010000000 1.0
C      1  0.5682060000000  0.5265440000000  0.4504100000000 1.0
C      1  0.5650980000000  0.4745560000000  0.5555840000000 1.0
C      1  0.4337690000000  0.4684110000000  0.4451660000000 1.0
C      1  0.5477170000000  0.5183830000000  0.4253500000000 1.0
C      1  0.4578040000000  0.5326920000000  0.5719400000000 1.0
C      1  0.5355610000000  0.4630280000000  0.5643440000000 1.0
C      1  0.4614190000000  0.4632550000000  0.4245450000000 1.0
C      1  0.5065090000000  0.5381510000000  0.4685470000000 1.0
C      1  0.4994520000000  0.5178330000000  0.5403870000000 1.0
C      1  0.4956620000000  0.4784990000000  0.4684470000000 1.0
C      1  0.5008450000000  0.4762590000000  0.5184700000000 1.0
C      1  0.4695090000000  0.5220070000000  0.5070980000000 1.0
C      1  0.5265810000000  0.5186960000000  0.4965430000000 1.0
C      1  0.4561430000000  0.4769010000000  0.4980920000000 1.0
C      1  0.5407740000000  0.4780940000000  0.5050040000000 1.0
C      1  0.4499180000000  0.4955150000000  0.4703210000000 1.0
C      1  0.5489740000000  0.5001400000000  0.5295560000000 1.0
C      1  0.5417740000000  0.4965490000000  0.4774670000000 1.0
C      1  0.4509990000000  0.4986710000000  0.5235100000000 1.0
C      1  0.4746060000000  0.4988070000000  0.4511130000000 1.0
C      1  0.5255540000000  0.5079260000000  0.5529720000000 1.0
C      1  0.4717840000000  0.5025730000000  0.5503610000000 1.0
C      1  0.5130870000000  0.5055720000000  0.4613660000000 1.0
C      1  0.4781460000000  0.4116050000000  0.4804740000000 1.0
C      1  0.5243350000000  0.4097690000000  0.5073030000000 1.0
C      1  0.5304840000000  0.5911300000000  0.4908930000000 1.0
C      1  0.4611210000000  0.6046490000000  0.5141180000000 1.0
C      1  0.4881740000000  0.4118120000000  0.4510420000000 1.0
C      1  0.5103490000000  0.3966490000000  0.5337220000000 1.0
C      1  0.4875110000000  0.5976570000000  0.5316170000000 1.0
C      1  0.5116440000000  0.5933080000000  0.4656180000000 1.0
C      1  0.3947720000000  0.4892430000000  0.5269010000000 1.0
C      1  0.5998180000000  0.4866540000000  0.4727050000000 1.0
C      1  0.6057820000000  0.5026060000000  0.5266500000000 1.0
C      1  0.3937040000000  0.5010580000000  0.4701670000000 1.0
C      1  0.5219410000000  0.4900350000000  0.4059970000000 1.0
C      1  0.4803070000000  0.4956430000000  0.6045660000000 1.0
C      1  0.5211060000000  0.5080770000000  0.5967400000000 1.0
C      1  0.4783320000000  0.5041080000000  0.3927970000000 1.0
C      1  0.4294350000000  0.5520050000000  0.4876880000000 1.0
C      1  0.5775750000000  0.5537070000000  0.5017430000000 1.0
C      1  0.5716770000000  0.4324790000000  0.4912410000000 1.0
C      1  0.4292710000000  0.4371290000000  0.5075830000000 1.0
C      1  0.4951360000000  0.5564340000000  0.4262940000000 1.0
C      1  0.5008380000000  0.5635470000000  0.5743760000000 1.0
C      1  0.4897770000000  0.4426620000000  0.5690040000000 1.0
C      1  0.5034480000000  0.4310540000000  0.4188710000000 1.0
C      1  0.4867110000000  0.5157990000000  0.5779440000000 1.0
C      1  0.5077870000000  0.5076920000000  0.4288690000000 1.0
C      1  0.5174200000000  0.4851450000000  0.5757200000000 1.0
C      1  0.4911900000000  0.4791300000000  0.4288060000000 1.0
C      1  0.5731100000000  0.5018140000000  0.4871820000000 1.0
C      1  0.4196840000000  0.5064490000000  0.5127820000000 1.0
C      1  0.5776760000000  0.4868620000000  0.5168400000000 1.0
C      1  0.4202030000000  0.4873290000000  0.4847510000000 1.0
C      1  0.4814600000000  0.4561640000000  0.5389110000000 1.0
C      1  0.5237790000000  0.4529900000000  0.4517060000000 1.0
C      1  0.5157030000000  0.5737120000000  0.5524020000000 1.0
C      1  0.4801120000000  0.5518740000000  0.4564560000000 1.0
C      1  0.5419790000000  0.4564540000000  0.4798990000000 1.0
C      1  0.4609500000000  0.4482460000000  0.5129740000000 1.0
C      1  0.5562100000000  0.5596130000000  0.5237080000000 1.0
C      1  0.4634090000000  0.5468160000000  0.4856960000000 1.0
C      1  0.4397810000000  0.5857820000000  0.5301550000000 1.0
C      1  0.5505170000000  0.5845860000000  0.4683490000000 1.0
C      1  0.5468270000000  0.4109310000000  0.5280400000000 1.0
C      1  0.4511470000000  0.4092860000000  0.4654870000000 1.0
C      1  0.5316210000000  0.5861830000000  0.4431510000000 1.0
C      1  0.4635840000000  0.5907260000000  0.5512260000000 1.0
C      1  0.5307800000000  0.4123050000000  0.5553530000000 1.0
C      1  0.4601220000000  0.4092350000000  0.4344480000000 1.0
C      1  0.5210630000000  0.4557760000000  0.5344630000000 1.0
C      1  0.4708140000000  0.4594860000000  0.4570060000000 1.0
C      1  0.4788300000000  0.5439850000000  0.5473420000000 1.0
C      1  0.5307110000000  0.5371770000000  0.4446560000000 1.0
C      1  0.5534610000000  0.4579530000000  0.5292840000000 1.0
C      1  0.4436480000000  0.4564390000000  0.4739570000000 1.0
C      1  0.5458410000000  0.5358450000000  0.4742990000000 1.0
C      1  0.4501640000000  0.5380400000000  0.5300500000000 1.0
C      1  0.4282920000000  0.4941450000000  0.5618890000000 1.0
C      1  0.5817730000000  0.4820600000000  0.4402200000000 1.0
C      1  0.5727800000000  0.5073630000000  0.5607640000000 1.0
C      1  0.4240140000000  0.4991390000000  0.4400710000000 1.0
C      1  0.5586080000000  0.4865540000000  0.4213960000000 1.0
C      1  0.4452230000000  0.4883890000000  0.5869780000000 1.0
C      1  0.5657580000000  0.5181820000000  0.5894370000000 1.0
C      1  0.4424460000000  0.5102890000000  0.4193060000000 1.0
C      1  0.5214600000000  0.4331840000000  0.4938300000000 1.0
C      1  0.4818130000000  0.4352210000000  0.4939980000000 1.0
C      1  0.4701320000000  0.5729580000000  0.5057100000000 1.0
C      1  0.5312380000000  0.5692500000000  0.5085770000000 1.0
C      1  0.5017740000000  0.4293680000000  0.5337870000000 1.0
C      1  0.4955860000000  0.4403220000000  0.4568050000000 1.0
C      1  0.4845400000000  0.5853510000000  0.4604440000000 1.0
C      1  0.4957860000000  0.5647090000000  0.5263500000000 1.0
C      1  0.4334820000000  0.4731820000000  0.5376540000000 1.0
C      1  0.5711740000000  0.4606230000000  0.4629620000000 1.0
C      1  0.5662480000000  0.5288880000000  0.5352450000000 1.0
C      1  0.4280530000000  0.5198630000000  0.4628790000000 1.0
C      1  0.5424590000000  0.4610990000000  0.4244740000000 1.0
C      1  0.4643470000000  0.4736560000000  0.5630110000000 1.0
C      1  0.5406430000000  0.5302310000000  0.5699400000000 1.0
C      1  0.4656630000000  0.5281980000000  0.4365250000000 1.0
C      1  0.4385650000000  0.5440020000000  0.4496420000000 1.0
C      1  0.4358090000000  0.4552180000000  0.5645660000000 1.0
C      1  0.5661090000000  0.4457240000000  0.4356780000000 1.0
C      1  0.5693060000000  0.5473130000000  0.5636630000000 1.0
C      1  0.5021850000000  0.4602040000000  0.4916840000000 1.0
C      1  0.5107010000000  0.5475000000000  0.5010010000000 1.0
C      1  0.4999520000000  0.5077130000000  0.5111180000000 1.0
END
