TITL C-3289325-7307-628 0.00327544831588745 125000 -989.2399600595 0 0 181 (C1) n - 1
REM
REM in /nfs/bkarasulu/CARBON/AIRSS/Generating-Clusters/AIREBO/with-SteepDescent/Higher-Symm/SD-CG/HFTN-CG
REM
REM
REM
REM
REM
REM ./C.cell (b20cbc046b6831c77cfcea5457e17084)
REM
REM compiler GCC version 9.2.1 20190827 (Red Hat 9.2.1-1)
REM options -cpp -mtune=generic -march=x86-64 -g -O0 -fpre-include=/usr/include/finclude/math-vector-fortran.h
REM seed 1211933131 1763944904 -1483068682 -480184188 -242808434 -2018355608 -1598051376 1160373510 -1226428153 -1852015034 -300671073 1811201710 1425890855 -1810364766 -1147740636 951245697 875746520 46191445 1691714505 1695249558 -973192675 526362077 -1046303473 -451023216 -719124568 397168733 -535628112 -916214988 -999226370 -311157679 -1366385721 1176731204 -697358225
REM
CELL 1.54180   50.00000   50.00000   50.00000   90.00000   90.00000   90.00000
LATT -1
SFAC C  
C      1  0.4183660000000  0.4536130000000  0.5534840000000 1.0
C      1  0.4832000000000  0.4186550000000  0.5638040000000 1.0
C      1  0.5381900000000  0.4123550000000  0.5512630000000 1.0
C      1  0.6108580000000  0.4480900000000  0.5612160000000 1.0
C      1  0.5932200000000  0.5248870000000  0.5592660000000 1.0
C      1  0.5603530000000  0.5748400000000  0.5583300000000 1.0
C      1  0.4889090000000  0.5936290000000  0.5537540000000 1.0
C      1  0.4390750000000  0.5660950000000  0.5506520000000 1.0
C      1  0.4053600000000  0.5133410000000  0.5505590000000 1.0
C      1  0.5354280000000  0.4820290000000  0.4582430000000 1.0
C      1  0.5389120000000  0.5107290000000  0.4519170000000 1.0
C      1  0.5185600000000  0.5355190000000  0.4488890000000 1.0
C      1  0.4905470000000  0.5445900000000  0.4534200000000 1.0
C      1  0.4692920000000  0.5315700000000  0.4385820000000 1.0
C      1  0.4623680000000  0.5055490000000  0.4319460000000 1.0
C      1  0.4612750000000  0.4856310000000  0.4558850000000 1.0
C      1  0.4826100000000  0.4616390000000  0.4488470000000 1.0
C      1  0.5166070000000  0.4614670000000  0.4479050000000 1.0
C      1  0.5649570000000  0.5354510000000  0.5154890000000 1.0
C      1  0.5232400000000  0.5696850000000  0.5105420000000 1.0
C      1  0.4739750000000  0.5767550000000  0.5133650000000 1.0
C      1  0.4413230000000  0.5404620000000  0.5012310000000 1.0
C      1  0.4294100000000  0.4888260000000  0.5054100000000 1.0
C      1  0.4481130000000  0.4413110000000  0.5123880000000 1.0
C      1  0.4953890000000  0.4217610000000  0.5120680000000 1.0
C      1  0.5455870000000  0.4418290000000  0.5114450000000 1.0
C      1  0.5762120000000  0.4871380000000  0.5193160000000 1.0
C      1  0.5048710000000  0.5345230000000  0.5079450000000 1.0
C      1  0.4811480000000  0.5420860000000  0.4910580000000 1.0
C      1  0.4652400000000  0.5189660000000  0.4776010000000 1.0
C      1  0.4676830000000  0.4947910000000  0.4954560000000 1.0
C      1  0.4714360000000  0.4654220000000  0.4910720000000 1.0
C      1  0.5005620000000  0.4541600000000  0.4833660000000 1.0
C      1  0.5165220000000  0.4743880000000  0.4992770000000 1.0
C      1  0.5396030000000  0.4927840000000  0.4962690000000 1.0
C      1  0.5310360000000  0.5247520000000  0.4884190000000 1.0
C      1  0.4830190000000  0.5710750000000  0.4733760000000 1.0
C      1  0.4519500000000  0.5469040000000  0.4634840000000 1.0
C      1  0.4367630000000  0.5083370000000  0.4624390000000 1.0
C      1  0.4453120000000  0.4592840000000  0.4701650000000 1.0
C      1  0.4782380000000  0.4336520000000  0.4679550000000 1.0
C      1  0.5200990000000  0.4333510000000  0.4667920000000 1.0
C      1  0.5591890000000  0.4718750000000  0.4778810000000 1.0
C      1  0.5619710000000  0.5185220000000  0.4756750000000 1.0
C      1  0.5405400000000  0.5513440000000  0.4694590000000 1.0
C      1  0.4283820000000  0.4857870000000  0.4214580000000 1.0
C      1  0.4534210000000  0.4412070000000  0.4218110000000 1.0
C      1  0.5028240000000  0.4232890000000  0.4218090000000 1.0
C      1  0.5489950000000  0.4483400000000  0.4286630000000 1.0
C      1  0.5865370000000  0.4894010000000  0.4404650000000 1.0
C      1  0.5602430000000  0.5354200000000  0.4283970000000 1.0
C      1  0.5170170000000  0.5695860000000  0.4280920000000 1.0
C      1  0.4634550000000  0.5810230000000  0.4277230000000 1.0
C      1  0.4189150000000  0.5410460000000  0.4271620000000 1.0
C      1  0.4870050000000  0.5363930000000  0.6113850000000 1.0
C      1  0.4656290000000  0.5162380000000  0.6061500000000 1.0
C      1  0.4665660000000  0.4893300000000  0.6118310000000 1.0
C      1  0.4802880000000  0.4691150000000  0.6029760000000 1.0
C      1  0.5104700000000  0.4599830000000  0.5948930000000 1.0
C      1  0.5383350000000  0.4782370000000  0.6017630000000 1.0
C      1  0.5517690000000  0.5016880000000  0.5985440000000 1.0
C      1  0.5428260000000  0.5226170000000  0.6153160000000 1.0
C      1  0.5182980000000  0.5338600000000  0.6108590000000 1.0
C      1  0.4519100000000  0.5701120000000  0.4883480000000 1.0
C      1  0.4194240000000  0.5167330000000  0.4902700000000 1.0
C      1  0.4239380000000  0.4564860000000  0.4964590000000 1.0
C      1  0.4659080000000  0.4180460000000  0.4955420000000 1.0
C      1  0.5255440000000  0.4187280000000  0.4965600000000 1.0
C      1  0.5744760000000  0.4580560000000  0.5037900000000 1.0
C      1  0.5849780000000  0.5131830000000  0.4993860000000 1.0
C      1  0.5534050000000  0.5624890000000  0.4983340000000 1.0
C      1  0.5001710000000  0.5897650000000  0.4960270000000 1.0
C      1  0.5045470000000  0.5364990000000  0.5812880000000 1.0
C      1  0.4716110000000  0.5293980000000  0.5753750000000 1.0
C      1  0.4532280000000  0.5014710000000  0.5690330000000 1.0
C      1  0.4662790000000  0.4702360000000  0.5655350000000 1.0
C      1  0.4838310000000  0.4447160000000  0.5795610000000 1.0
C      1  0.5302960000000  0.4545520000000  0.5715490000000 1.0
C      1  0.5548670000000  0.4707420000000  0.5614780000000 1.0
C      1  0.5666440000000  0.5114380000000  0.5739300000000 1.0
C      1  0.5229740000000  0.5440340000000  0.5591440000000 1.0
C      1  0.5222330000000  0.4356550000000  0.5526000000000 1.0
C      1  0.5595670000000  0.4446590000000  0.5416790000000 1.0
C      1  0.5775950000000  0.4891870000000  0.5505340000000 1.0
C      1  0.5567640000000  0.5420240000000  0.5623810000000 1.0
C      1  0.5099630000000  0.5697210000000  0.5418480000000 1.0
C      1  0.4639190000000  0.5529480000000  0.5569250000000 1.0
C      1  0.4365310000000  0.5233690000000  0.5495760000000 1.0
C      1  0.4325160000000  0.4836320000000  0.5487900000000 1.0
C      1  0.4587750000000  0.4483370000000  0.5419640000000 1.0
C      1  0.3655410000000  0.5243070000000  0.4271110000000 1.0
C      1  0.3832180000000  0.4522150000000  0.4181190000000 1.0
C      1  0.4377000000000  0.3872820000000  0.4175500000000 1.0
C      1  0.5329530000000  0.3782510000000  0.4070740000000 1.0
C      1  0.5986640000000  0.4229370000000  0.4244680000000 1.0
C      1  0.6336940000000  0.5190140000000  0.4340950000000 1.0
C      1  0.5874280000000  0.5796820000000  0.4063460000000 1.0
C      1  0.5189610000000  0.6250890000000  0.4191540000000 1.0
C      1  0.4174630000000  0.6123360000000  0.4271460000000 1.0
C      1  0.4929780000000  0.3794250000000  0.5097030000000 1.0
C      1  0.5735860000000  0.4060270000000  0.5123630000000 1.0
C      1  0.6201810000000  0.4730930000000  0.5221880000000 1.0
C      1  0.6018210000000  0.5564600000000  0.5133880000000 1.0
C      1  0.5448370000000  0.6080280000000  0.5150100000000 1.0
C      1  0.4702750000000  0.6254720000000  0.5129920000000 1.0
C      1  0.4064170000000  0.5615950000000  0.5074680000000 1.0
C      1  0.3836940000000  0.4861240000000  0.5088820000000 1.0
C      1  0.4225180000000  0.4109830000000  0.5197930000000 1.0
C      1  0.6120340000000  0.5086260000000  0.5459850000000 1.0
C      1  0.5774800000000  0.5876050000000  0.5390370000000 1.0
C      1  0.5122030000000  0.6093160000000  0.5470260000000 1.0
C      1  0.4396840000000  0.5909120000000  0.5385570000000 1.0
C      1  0.3876090000000  0.5325840000000  0.5364460000000 1.0
C      1  0.3913210000000  0.4527780000000  0.5404410000000 1.0
C      1  0.4579930000000  0.4073260000000  0.5524850000000 1.0
C      1  0.5243380000000  0.3908460000000  0.5413540000000 1.0
C      1  0.5969120000000  0.4314790000000  0.5461490000000 1.0
C      1  0.4577650000000  0.5301530000000  0.5248120000000 1.0
C      1  0.4549380000000  0.4963130000000  0.5265860000000 1.0
C      1  0.4816200000000  0.4810440000000  0.5392370000000 1.0
C      1  0.4854430000000  0.4531190000000  0.5202190000000 1.0
C      1  0.5188250000000  0.4557910000000  0.5262520000000 1.0
C      1  0.5347090000000  0.4832950000000  0.5384270000000 1.0
C      1  0.5449930000000  0.5114780000000  0.5233330000000 1.0
C      1  0.5204350000000  0.5265830000000  0.5334620000000 1.0
C      1  0.4844850000000  0.5505670000000  0.5299460000000 1.0
C      1  0.3932590000000  0.4584890000000  0.5109840000000 1.0
C      1  0.4518550000000  0.4028180000000  0.5225160000000 1.0
C      1  0.5212480000000  0.3883950000000  0.5113300000000 1.0
C      1  0.5895600000000  0.4305830000000  0.5169780000000 1.0
C      1  0.6127320000000  0.5122490000000  0.5190300000000 1.0
C      1  0.5806080000000  0.5760740000000  0.5135740000000 1.0
C      1  0.5157430000000  0.6110080000000  0.5175470000000 1.0
C      1  0.4375910000000  0.5926820000000  0.5094130000000 1.0
C      1  0.3959960000000  0.5342550000000  0.5076110000000 1.0
C      1  0.4058190000000  0.4617820000000  0.4243250000000 1.0
C      1  0.4502010000000  0.4084850000000  0.4233330000000 1.0
C      1  0.5252670000000  0.3997820000000  0.4178830000000 1.0
C      1  0.5802340000000  0.4390340000000  0.4309470000000 1.0
C      1  0.6085890000000  0.5118660000000  0.4389920000000 1.0
C      1  0.5710680000000  0.5655040000000  0.4194620000000 1.0
C      1  0.5117460000000  0.6021100000000  0.4269450000000 1.0
C      1  0.4339290000000  0.5915320000000  0.4286740000000 1.0
C      1  0.3920310000000  0.5248630000000  0.4289950000000 1.0
C      1  0.4747010000000  0.3859230000000  0.4905210000000 1.0
C      1  0.5550150000000  0.4020760000000  0.4932780000000 1.0
C      1  0.6077070000000  0.4649780000000  0.5017250000000 1.0
C      1  0.6045760000000  0.5398570000000  0.4916000000000 1.0
C      1  0.5536580000000  0.5959210000000  0.4921230000000 1.0
C      1  0.4835200000000  0.6191210000000  0.4918850000000 1.0
C      1  0.4181600000000  0.5693780000000  0.4842050000000 1.0
C      1  0.3896260000000  0.5006900000000  0.4869680000000 1.0
C      1  0.4129150000000  0.4243550000000  0.4980390000000 1.0
C      1  0.5822780000000  0.5466730000000  0.5403860000000 1.0
C      1  0.5377800000000  0.5896350000000  0.5431370000000 1.0
C      1  0.4677190000000  0.6020580000000  0.5338190000000 1.0
C      1  0.4173500000000  0.5490070000000  0.5378370000000 1.0
C      1  0.3998090000000  0.4856860000000  0.5393350000000 1.0
C      1  0.4334350000000  0.4281070000000  0.5471180000000 1.0
C      1  0.4944040000000  0.4020990000000  0.5373410000000 1.0
C      1  0.5686030000000  0.4126620000000  0.5456050000000 1.0
C      1  0.6095580000000  0.4779620000000  0.5534410000000 1.0
C      1  0.4923560000000  0.4539890000000  0.4175580000000 1.0
C      1  0.5242950000000  0.4656900000000  0.4150550000000 1.0
C      1  0.5311530000000  0.4917550000000  0.4055500000000 1.0
C      1  0.5364460000000  0.5165080000000  0.4188400000000 1.0
C      1  0.5133500000000  0.5393050000000  0.4153150000000 1.0
C      1  0.4875010000000  0.5276580000000  0.4034470000000 1.0
C      1  0.4728670000000  0.5126780000000  0.3902110000000 1.0
C      1  0.4554370000000  0.4894350000000  0.4039330000000 1.0
C      1  0.4667640000000  0.4611480000000  0.4010260000000 1.0
C      1  0.5309630000000  0.4254070000000  0.4386930000000 1.0
C      1  0.5706230000000  0.4659630000000  0.4482540000000 1.0
C      1  0.5773390000000  0.5202990000000  0.4476250000000 1.0
C      1  0.5452350000000  0.5637070000000  0.4401690000000 1.0
C      1  0.4891800000000  0.5832400000000  0.4422250000000 1.0
C      1  0.4395840000000  0.5592870000000  0.4367050000000 1.0
C      1  0.4208300000000  0.5095250000000  0.4372380000000 1.0
C      1  0.4351450000000  0.4576170000000  0.4395500000000 1.0
C      1  0.4758800000000  0.4237880000000  0.4379620000000 1.0
C      1  0.5069000000000  0.4909500000000  0.5454550000000 1.0
END
