TITL C-3289326-3776-16 128.364073076403 125000 -890.887197542779 0 0 173 (C1) n - 1
REM
REM in /nfs/bkarasulu/CARBON/AIRSS/Generating-Clusters/AIREBO/with-SteepDescent/Higher-Symm/SD-CG/HFTN-CG
REM
REM
REM
REM
REM
REM ./C.cell (b20cbc046b6831c77cfcea5457e17084)
REM
REM compiler GCC version 9.2.1 20190827 (Red Hat 9.2.1-1)
REM options -cpp -mtune=generic -march=x86-64 -g -O0 -fpre-include=/usr/include/finclude/math-vector-fortran.h
REM seed -595978174 1652681332 820382570 -217749050 834272108 -761364855 -1113726378 -992241611 -2097028370 -520470472 1470786643 469799902 -880225483 23824785 -316091221 1324525539 -127222168 -482595852 -329286458 -975570869 -674995611 -616548307 2014412352 -1196108130 391229547 -140484217 1588014295 -1346052623 -1298729397 -1453120057 -1425462257 -909615143 1302887970
REM
CELL 1.54180   50.00000   50.00000   50.00000   90.00000   90.00000   90.00000
LATT -1
SFAC C  
C      1  0.4823230000000  0.5094920000000  0.5279870000000 1.0
C      1  0.5282320000000  0.5059720000000  0.5203260000000 1.0
C      1  0.5284790000000  0.5080190000000  0.4865850000000 1.0
C      1  0.4956010000000  0.5081200000000  0.4639690000000 1.0
C      1  0.4654510000000  0.5044290000000  0.4923710000000 1.0
C      1  0.5392640000000  0.5458150000000  0.4392880000000 1.0
C      1  0.4556850000000  0.5487800000000  0.4420520000000 1.0
C      1  0.4348670000000  0.5427570000000  0.5236790000000 1.0
C      1  0.5037170000000  0.5470090000000  0.5651750000000 1.0
C      1  0.5663240000000  0.5485390000000  0.5177030000000 1.0
C      1  0.4347610000000  0.4815650000000  0.5520660000000 1.0
C      1  0.5283210000000  0.4801540000000  0.5780110000000 1.0
C      1  0.5812350000000  0.4793200000000  0.4989680000000 1.0
C      1  0.5235590000000  0.4773320000000  0.4216550000000 1.0
C      1  0.4311170000000  0.4843330000000  0.4542120000000 1.0
C      1  0.5660620000000  0.4476660000000  0.5696120000000 1.0
C      1  0.5908990000000  0.4549900000000  0.4509630000000 1.0
C      1  0.4815240000000  0.4527860000000  0.4027530000000 1.0
C      1  0.4024910000000  0.4488540000000  0.4811750000000 1.0
C      1  0.4576420000000  0.4493340000000  0.5933870000000 1.0
C      1  0.4553110000000  0.4759050000000  0.5996760000000 1.0
C      1  0.5626250000000  0.4788400000000  0.5767800000000 1.0
C      1  0.5960450000000  0.4821090000000  0.4504390000000 1.0
C      1  0.4827060000000  0.4782440000000  0.3924370000000 1.0
C      1  0.4016810000000  0.4794860000000  0.4708700000000 1.0
C      1  0.4882330000000  0.5207720000000  0.6082040000000 1.0
C      1  0.5892180000000  0.5256460000000  0.5499030000000 1.0
C      1  0.5725220000000  0.5252040000000  0.4301540000000 1.0
C      1  0.4610900000000  0.5227050000000  0.4026160000000 1.0
C      1  0.3992430000000  0.5146410000000  0.5118040000000 1.0
C      1  0.4758950000000  0.4758940000000  0.5076600000000 1.0
C      1  0.4995910000000  0.4716120000000  0.5282280000000 1.0
C      1  0.5252730000000  0.4744850000000  0.5077810000000 1.0
C      1  0.5191480000000  0.4639100000000  0.4775820000000 1.0
C      1  0.4856450000000  0.4697850000000  0.4777590000000 1.0
C      1  0.5003870000000  0.3973270000000  0.4698410000000 1.0
C      1  0.4741050000000  0.4006100000000  0.4892730000000 1.0
C      1  0.4839960000000  0.3999220000000  0.5201860000000 1.0
C      1  0.5163040000000  0.3973520000000  0.5203350000000 1.0
C      1  0.5264580000000  0.3973280000000  0.4892440000000 1.0
C      1  0.5591040000000  0.5732840000000  0.5398740000000 1.0
C      1  0.5584520000000  0.5688560000000  0.4553340000000 1.0
C      1  0.4769700000000  0.5689770000000  0.4248640000000 1.0
C      1  0.4244540000000  0.5650480000000  0.5002090000000 1.0
C      1  0.4788630000000  0.5700570000000  0.5679010000000 1.0
C      1  0.4966050000000  0.4822880000000  0.4417950000000 1.0
C      1  0.4371320000000  0.4874560000000  0.4875610000000 1.0
C      1  0.4682670000000  0.4859980000000  0.5481910000000 1.0
C      1  0.5356230000000  0.4837690000000  0.5450010000000 1.0
C      1  0.5529120000000  0.4850190000000  0.4810100000000 1.0
C      1  0.4578430000000  0.4211930000000  0.5199760000000 1.0
C      1  0.5081540000000  0.4160980000000  0.5475950000000 1.0
C      1  0.5461840000000  0.4195110000000  0.5057220000000 1.0
C      1  0.5213350000000  0.4134500000000  0.4484460000000 1.0
C      1  0.4632300000000  0.4232790000000  0.4663140000000 1.0
C      1  0.3923190000000  0.4889940000000  0.5020270000000 1.0
C      1  0.4784070000000  0.4882400000000  0.6097980000000 1.0
C      1  0.5893080000000  0.4937360000000  0.5618290000000 1.0
C      1  0.5860060000000  0.4945130000000  0.4273400000000 1.0
C      1  0.4589310000000  0.4920130000000  0.3939150000000 1.0
C      1  0.5242480000000  0.5053790000000  0.6001620000000 1.0
C      1  0.6027640000000  0.5022020000000  0.5119740000000 1.0
C      1  0.5408710000000  0.5004110000000  0.4036540000000 1.0
C      1  0.4209740000000  0.5096820000000  0.4339380000000 1.0
C      1  0.4136070000000  0.5131820000000  0.5697590000000 1.0
C      1  0.4449890000000  0.5194010000000  0.5459210000000 1.0
C      1  0.5188240000000  0.5177680000000  0.5573500000000 1.0
C      1  0.5627150000000  0.5194300000000  0.5024880000000 1.0
C      1  0.5204090000000  0.5179130000000  0.4440370000000 1.0
C      1  0.4520650000000  0.5185990000000  0.4572890000000 1.0
C      1  0.5239080000000  0.5579980000000  0.4796700000000 1.0
C      1  0.4916070000000  0.5620150000000  0.4743050000000 1.0
C      1  0.4691410000000  0.5577660000000  0.4974500000000 1.0
C      1  0.4878630000000  0.5600920000000  0.5225160000000 1.0
C      1  0.5263520000000  0.5616920000000  0.5118850000000 1.0
C      1  0.4915860000000  0.4392720000000  0.5350220000000 1.0
C      1  0.5261250000000  0.4413340000000  0.5152880000000 1.0
C      1  0.5295580000000  0.4344040000000  0.4729360000000 1.0
C      1  0.4898860000000  0.4375380000000  0.4710770000000 1.0
C      1  0.4628040000000  0.4461470000000  0.5004330000000 1.0
C      1  0.5081470000000  0.5576920000000  0.4323950000000 1.0
C      1  0.4394810000000  0.5572410000000  0.4707240000000 1.0
C      1  0.4561520000000  0.5568930000000  0.5461280000000 1.0
C      1  0.5305460000000  0.5589640000000  0.5515160000000 1.0
C      1  0.5631630000000  0.5584340000000  0.4871160000000 1.0
C      1  0.4293070000000  0.5780640000000  0.4487790000000 1.0
C      1  0.4271510000000  0.5605290000000  0.5606170000000 1.0
C      1  0.5364460000000  0.5853870000000  0.5702190000000 1.0
C      1  0.5829590000000  0.5837260000000  0.4829760000000 1.0
C      1  0.5329750000000  0.5755150000000  0.4209560000000 1.0
C      1  0.4632680000000  0.4526390000000  0.5438850000000 1.0
C      1  0.5280180000000  0.4506810000000  0.5468280000000 1.0
C      1  0.5567180000000  0.4513820000000  0.4842710000000 1.0
C      1  0.5051980000000  0.4494080000000  0.4431670000000 1.0
C      1  0.4418940000000  0.4548850000000  0.4790040000000 1.0
C      1  0.4873310000000  0.5389520000000  0.4516780000000 1.0
C      1  0.4490020000000  0.5342130000000  0.4939580000000 1.0
C      1  0.4829440000000  0.5366730000000  0.5406770000000 1.0
C      1  0.5358990000000  0.5362610000000  0.5267750000000 1.0
C      1  0.5433560000000  0.5355650000000  0.4715780000000 1.0
C      1  0.5062240000000  0.6107870000000  0.5251300000000 1.0
C      1  0.5274180000000  0.6095680000000  0.4978120000000 1.0
C      1  0.5076080000000  0.6057790000000  0.4704220000000 1.0
C      1  0.4749150000000  0.6031130000000  0.4800600000000 1.0
C      1  0.4736840000000  0.6065160000000  0.5138740000000 1.0
C      1  0.5954220000000  0.5284190000000  0.4814100000000 1.0
C      1  0.5121730000000  0.5277970000000  0.4001640000000 1.0
C      1  0.3962560000000  0.5307180000000  0.4695200000000 1.0
C      1  0.4453000000000  0.5256060000000  0.5903410000000 1.0
C      1  0.5470290000000  0.5321990000000  0.5813510000000 1.0
C      1  0.5351480000000  0.4795410000000  0.4535440000000 1.0
C      1  0.4649850000000  0.4811550000000  0.4542570000000 1.0
C      1  0.4295510000000  0.4896850000000  0.5194380000000 1.0
C      1  0.4987590000000  0.4777390000000  0.5611870000000 1.0
C      1  0.5594550000000  0.4759940000000  0.5248640000000 1.0
C      1  0.5156490000000  0.5375410000000  0.5947610000000 1.0
C      1  0.5973220000000  0.5347600000000  0.5153440000000 1.0
C      1  0.5453570000000  0.5326060000000  0.4085520000000 1.0
C      1  0.4358770000000  0.5300720000000  0.4217080000000 1.0
C      1  0.4202150000000  0.5415300000000  0.5788250000000 1.0
C      1  0.5484160000000  0.5045730000000  0.4365840000000 1.0
C      1  0.4656140000000  0.5052040000000  0.4314140000000 1.0
C      1  0.4130790000000  0.5122930000000  0.5387700000000 1.0
C      1  0.4974540000000  0.5055540000000  0.5792230000000 1.0
C      1  0.5727800000000  0.5057380000000  0.5277830000000 1.0
C      1  0.4689480000000  0.4096890000000  0.5493340000000 1.0
C      1  0.5395730000000  0.4065470000000  0.5427820000000 1.0
C      1  0.5541550000000  0.4109450000000  0.4737970000000 1.0
C      1  0.4899770000000  0.4097940000000  0.4398600000000 1.0
C      1  0.4411060000000  0.4082450000000  0.4862980000000 1.0
C      1  0.5707420000000  0.4413000000000  0.5135640000000 1.0
C      1  0.5368580000000  0.4402980000000  0.4344510000000 1.0
C      1  0.4478670000000  0.4452150000000  0.4471960000000 1.0
C      1  0.4346890000000  0.4427890000000  0.5295000000000 1.0
C      1  0.5076110000000  0.4401980000000  0.5715800000000 1.0
C      1  0.4374290000000  0.4762340000000  0.4036900000000 1.0
C      1  0.3919550000000  0.4693650000000  0.5225780000000 1.0
C      1  0.4986650000000  0.4690230000000  0.6160290000000 1.0
C      1  0.6020010000000  0.4747180000000  0.5454310000000 1.0
C      1  0.5732820000000  0.4756270000000  0.4101120000000 1.0
C      1  0.4763890000000  0.4367990000000  0.4310920000000 1.0
C      1  0.4253390000000  0.4327790000000  0.4987660000000 1.0
C      1  0.4742210000000  0.4346350000000  0.5704800000000 1.0
C      1  0.5559840000000  0.4331130000000  0.5419900000000 1.0
C      1  0.5643880000000  0.4369300000000  0.4543840000000 1.0
C      1  0.5144660000000  0.4570600000000  0.5973130000000 1.0
C      1  0.5961890000000  0.4603220000000  0.5228850000000 1.0
C      1  0.5514030000000  0.4600320000000  0.4133070000000 1.0
C      1  0.4320250000000  0.4638800000000  0.4271410000000 1.0
C      1  0.4114700000000  0.4604600000000  0.5390940000000 1.0
C      1  0.4857010000000  0.5878860000000  0.5396520000000 1.0
C      1  0.5335360000000  0.5905170000000  0.5253050000000 1.0
C      1  0.5360560000000  0.5873460000000  0.4731960000000 1.0
C      1  0.4861270000000  0.5862060000000  0.4527620000000 1.0
C      1  0.4525100000000  0.5846930000000  0.4978280000000 1.0
C      1  0.4267520000000  0.5176310000000  0.4758050000000 1.0
C      1  0.4669270000000  0.5132010000000  0.5685440000000 1.0
C      1  0.5518520000000  0.5121650000000  0.5542900000000 1.0
C      1  0.5673960000000  0.5133470000000  0.4715890000000 1.0
C      1  0.4936550000000  0.5183430000000  0.4253840000000 1.0
C      1  0.4020190000000  0.5394800000000  0.4980680000000 1.0
C      1  0.4727720000000  0.5456420000000  0.5907860000000 1.0
C      1  0.5686690000000  0.5476870000000  0.5601790000000 1.0
C      1  0.5827910000000  0.5450720000000  0.4544870000000 1.0
C      1  0.4834590000000  0.5466440000000  0.3999510000000 1.0
C      1  0.4364170000000  0.4930760000000  0.5840210000000 1.0
C      1  0.5561370000000  0.5030570000000  0.5955720000000 1.0
C      1  0.6023020000000  0.4952820000000  0.4775670000000 1.0
C      1  0.5074720000000  0.4942250000000  0.3969120000000 1.0
C      1  0.3974300000000  0.5057490000000  0.4518590000000 1.0
C      1  0.4965580000000  0.5083520000000  0.4971210000000 1.0
C      1  0.5008160000000  0.5811100000000  0.5009300000000 1.0
C      1  0.4944520000000  0.4407510000000  0.5036290000000 1.0
END
