TITL C-3289323-3850-643 0.0057584194856599 125000 -374.607038824964 0 0 71 (C1) n - 1
REM
REM in /nfs/bkarasulu/CARBON/AIRSS/Generating-Clusters/AIREBO/with-SteepDescent/Higher-Symm/SD-CG/HFTN-CG
REM
REM
REM
REM
REM
REM ./C.cell (b20cbc046b6831c77cfcea5457e17084)
REM
REM compiler GCC version 9.2.1 20190827 (Red Hat 9.2.1-1)
REM options -cpp -mtune=generic -march=x86-64 -g -O0 -fpre-include=/usr/include/finclude/math-vector-fortran.h
REM seed -2076089096 -173072942 1657864586 -2079372995 1260781024 1895965982 815956942 2113196922 -952621441 -1590940380 807947573 -916429511 491831206 890736153 1370099565 -1984960664 1099196201 -1289543062 -1764892008 -327910830 810850581 -1156974789 1787131671 632373634 1379987562 -709016800 1582573837 -196513121 -460506934 537080908 488660572 -787622123 -957726548
REM
CELL 1.54180   50.00000   50.00000   50.00000   90.00000   90.00000   90.00000
LATT -1
SFAC C  
C      1  0.5395560000000  0.5314140000000  0.4582250000000 1.0
C      1  0.5601200000000  0.5309010000000  0.5079510000000 1.0
C      1  0.5145930000000  0.5533110000000  0.5486030000000 1.0
C      1  0.4716480000000  0.5356200000000  0.5467100000000 1.0
C      1  0.4233830000000  0.5400070000000  0.5172330000000 1.0
C      1  0.4532720000000  0.5374310000000  0.4748000000000 1.0
C      1  0.4931850000000  0.5376980000000  0.4487010000000 1.0
C      1  0.4939340000000  0.4601250000000  0.5419000000000 1.0
C      1  0.4673770000000  0.4491870000000  0.5266190000000 1.0
C      1  0.4707800000000  0.4370840000000  0.4983370000000 1.0
C      1  0.4778410000000  0.4562170000000  0.4711200000000 1.0
C      1  0.5049290000000  0.4638030000000  0.4519900000000 1.0
C      1  0.5342270000000  0.4629620000000  0.4994200000000 1.0
C      1  0.5273290000000  0.4603090000000  0.5327740000000 1.0
C      1  0.4501660000000  0.4990530000000  0.4429100000000 1.0
C      1  0.5103460000000  0.5029410000000  0.4164020000000 1.0
C      1  0.5573190000000  0.4949530000000  0.4601290000000 1.0
C      1  0.5823870000000  0.4861740000000  0.5248470000000 1.0
C      1  0.5324860000000  0.5057380000000  0.5685430000000 1.0
C      1  0.4557420000000  0.5025770000000  0.5614930000000 1.0
C      1  0.4243940000000  0.4894160000000  0.5115760000000 1.0
C      1  0.4890590000000  0.5579860000000  0.5375920000000 1.0
C      1  0.4802470000000  0.5681960000000  0.5130800000000 1.0
C      1  0.4767600000000  0.5591180000000  0.4868330000000 1.0
C      1  0.4997410000000  0.5603330000000  0.4701950000000 1.0
C      1  0.5270710000000  0.5563260000000  0.4777380000000 1.0
C      1  0.5398670000000  0.5581850000000  0.5023480000000 1.0
C      1  0.5381800000000  0.5532600000000  0.5327710000000 1.0
C      1  0.5612020000000  0.5354310000000  0.5416310000000 1.0
C      1  0.5119930000000  0.5318650000000  0.5704590000000 1.0
C      1  0.4412080000000  0.5357830000000  0.5427940000000 1.0
C      1  0.4279000000000  0.5486510000000  0.4927530000000 1.0
C      1  0.4600630000000  0.5396120000000  0.4415470000000 1.0
C      1  0.5216910000000  0.5431980000000  0.4317980000000 1.0
C      1  0.5672640000000  0.5274060000000  0.4748910000000 1.0
C      1  0.4361070000000  0.4888660000000  0.5493540000000 1.0
C      1  0.4269130000000  0.4919090000000  0.4845000000000 1.0
C      1  0.4661620000000  0.4881080000000  0.4217860000000 1.0
C      1  0.5372220000000  0.5065450000000  0.4126640000000 1.0
C      1  0.5813030000000  0.4930150000000  0.4807460000000 1.0
C      1  0.5731210000000  0.4871560000000  0.5508350000000 1.0
C      1  0.5044070000000  0.4984510000000  0.5807810000000 1.0
C      1  0.5611010000000  0.5140840000000  0.5591580000000 1.0
C      1  0.4800940000000  0.5207450000000  0.5761150000000 1.0
C      1  0.4174120000000  0.5120310000000  0.5345840000000 1.0
C      1  0.4334730000000  0.5118920000000  0.4641970000000 1.0
C      1  0.4810190000000  0.5187530000000  0.4232080000000 1.0
C      1  0.5528990000000  0.5115200000000  0.4340940000000 1.0
C      1  0.5877420000000  0.5110830000000  0.5073290000000 1.0
C      1  0.5291570000000  0.4780820000000  0.4693720000000 1.0
C      1  0.5571280000000  0.4859720000000  0.5036460000000 1.0
C      1  0.5433860000000  0.4791440000000  0.5524150000000 1.0
C      1  0.4865180000000  0.4867480000000  0.5563820000000 1.0
C      1  0.4489770000000  0.4725080000000  0.5242150000000 1.0
C      1  0.4578980000000  0.4812510000000  0.4708350000000 1.0
C      1  0.4944710000000  0.4814900000000  0.4283780000000 1.0
C      1  0.5317040000000  0.4283190000000  0.5434470000000 1.0
C      1  0.5078690000000  0.4344080000000  0.5559510000000 1.0
C      1  0.4543080000000  0.4277640000000  0.5448110000000 1.0
C      1  0.4720230000000  0.4109270000000  0.4955690000000 1.0
C      1  0.4648760000000  0.4363130000000  0.4518740000000 1.0
C      1  0.5161860000000  0.4371040000000  0.4409020000000 1.0
C      1  0.5483230000000  0.4354290000000  0.4925370000000 1.0
C      1  0.5229740000000  0.5085670000000  0.4749840000000 1.0
C      1  0.5342040000000  0.5092550000000  0.5039440000000 1.0
C      1  0.5099720000000  0.5097180000000  0.5184490000000 1.0
C      1  0.4834460000000  0.5091420000000  0.5335650000000 1.0
C      1  0.4641500000000  0.4987530000000  0.5131550000000 1.0
C      1  0.4682730000000  0.5085510000000  0.4846890000000 1.0
C      1  0.4947820000000  0.5157090000000  0.4715460000000 1.0
C      1  0.5016090000000  0.4615880000000  0.4948370000000 1.0
END
