TITL C-3289330-4660-488 40.0230954746498 125000 -978.109485338755 0 0 187 (C1) n - 1
REM
REM in /nfs/bkarasulu/CARBON/AIRSS/Generating-Clusters/AIREBO/with-SteepDescent/Higher-Symm/SD-CG/HFTN-CG
REM
REM
REM
REM
REM
REM ./C.cell (b20cbc046b6831c77cfcea5457e17084)
REM
REM compiler GCC version 9.2.1 20190827 (Red Hat 9.2.1-1)
REM options -cpp -mtune=generic -march=x86-64 -g -O0 -fpre-include=/usr/include/finclude/math-vector-fortran.h
REM seed -1929431167 -857113960 386660318 -1096351244 -1631961556 -1982988653 -107751417 -583910320 -1686534980 948449245 -288400864 -148081288 584130013 2071217080 -390665158 -1321890838 1390301080 1561667308 -1283139339 -1102482103 823028708 -802239974 257468153 -173535571 -50948126 1551801929 -260343045 1400476619 -1572774110 677794783 309681945 60999248 -1278731020
REM
CELL 1.54180   50.00000   50.00000   50.00000   90.00000   90.00000   90.00000
LATT -1
SFAC C  
C      1  0.5132460000000  0.4725270000000  0.5346490000000 1.0
C      1  0.5198250000000  0.5016860000000  0.5322370000000 1.0
C      1  0.5137300000000  0.5083700000000  0.4932970000000 1.0
C      1  0.5241810000000  0.5315650000000  0.4747060000000 1.0
C      1  0.5192640000000  0.4933500000000  0.4643770000000 1.0
C      1  0.5157740000000  0.4642610000000  0.4804360000000 1.0
C      1  0.5240360000000  0.4576770000000  0.5086640000000 1.0
C      1  0.4734680000000  0.5844410000000  0.5697030000000 1.0
C      1  0.4777650000000  0.6022070000000  0.4898880000000 1.0
C      1  0.4754150000000  0.5511100000000  0.3952000000000 1.0
C      1  0.4707250000000  0.4648630000000  0.3950380000000 1.0
C      1  0.4678620000000  0.3948990000000  0.4714210000000 1.0
C      1  0.4813350000000  0.4095810000000  0.5659320000000 1.0
C      1  0.4796880000000  0.4867950000000  0.6031310000000 1.0
C      1  0.5486160000000  0.4328610000000  0.4816030000000 1.0
C      1  0.5445890000000  0.4487490000000  0.5415310000000 1.0
C      1  0.5382450000000  0.5052770000000  0.5698720000000 1.0
C      1  0.5280900000000  0.5632580000000  0.5434770000000 1.0
C      1  0.5304770000000  0.5629200000000  0.5017570000000 1.0
C      1  0.5519180000000  0.5283100000000  0.4486170000000 1.0
C      1  0.5358030000000  0.4704130000000  0.4345470000000 1.0
C      1  0.4808670000000  0.6181000000000  0.5185520000000 1.0
C      1  0.4895650000000  0.5836360000000  0.4270950000000 1.0
C      1  0.4927020000000  0.4942050000000  0.3793940000000 1.0
C      1  0.4810960000000  0.4135940000000  0.4327470000000 1.0
C      1  0.4889010000000  0.3934680000000  0.5295560000000 1.0
C      1  0.4911450000000  0.4485280000000  0.6016870000000 1.0
C      1  0.4852700000000  0.5470380000000  0.6052040000000 1.0
C      1  0.4719250000000  0.4326540000000  0.4860440000000 1.0
C      1  0.4892530000000  0.4429980000000  0.5464710000000 1.0
C      1  0.4925300000000  0.5013330000000  0.5683730000000 1.0
C      1  0.4799390000000  0.5521100000000  0.5475940000000 1.0
C      1  0.4892340000000  0.5675460000000  0.4740200000000 1.0
C      1  0.4831050000000  0.5186460000000  0.4216720000000 1.0
C      1  0.4861350000000  0.4742140000000  0.4306350000000 1.0
C      1  0.3809570000000  0.5180400000000  0.5359460000000 1.0
C      1  0.3890470000000  0.5356950000000  0.5159090000000 1.0
C      1  0.3894880000000  0.5300260000000  0.4866680000000 1.0
C      1  0.3993000000000  0.5044560000000  0.4742610000000 1.0
C      1  0.3897490000000  0.4803380000000  0.4846160000000 1.0
C      1  0.3738780000000  0.4809020000000  0.5080740000000 1.0
C      1  0.3863950000000  0.4907100000000  0.5314880000000 1.0
C      1  0.5102390000000  0.5293620000000  0.6200440000000 1.0
C      1  0.5072550000000  0.6158920000000  0.5674210000000 1.0
C      1  0.5175780000000  0.6076660000000  0.4531910000000 1.0
C      1  0.5210860000000  0.5118650000000  0.3711540000000 1.0
C      1  0.5027190000000  0.4182540000000  0.4074980000000 1.0
C      1  0.5097360000000  0.3807620000000  0.5058830000000 1.0
C      1  0.5395630000000  0.4269860000000  0.6037200000000 1.0
C      1  0.5515870000000  0.4450330000000  0.4193060000000 1.0
C      1  0.5609530000000  0.4011760000000  0.4813880000000 1.0
C      1  0.5652520000000  0.4312600000000  0.5603500000000 1.0
C      1  0.5535530000000  0.5086570000000  0.6000470000000 1.0
C      1  0.5430110000000  0.5852900000000  0.5628310000000 1.0
C      1  0.5420450000000  0.5789900000000  0.4816990000000 1.0
C      1  0.5558750000000  0.5354400000000  0.4188180000000 1.0
C      1  0.4706260000000  0.4880350000000  0.5460240000000 1.0
C      1  0.4557680000000  0.5173140000000  0.5371820000000 1.0
C      1  0.4633340000000  0.5245310000000  0.5048190000000 1.0
C      1  0.4552840000000  0.5108510000000  0.4742860000000 1.0
C      1  0.4747380000000  0.4868500000000  0.4600800000000 1.0
C      1  0.4583780000000  0.4576420000000  0.4661260000000 1.0
C      1  0.4444860000000  0.4652930000000  0.4958500000000 1.0
C      1  0.4351840000000  0.5699980000000  0.5180660000000 1.0
C      1  0.4295920000000  0.5610200000000  0.4566330000000 1.0
C      1  0.4326310000000  0.4957720000000  0.4327540000000 1.0
C      1  0.4150480000000  0.4471500000000  0.4576630000000 1.0
C      1  0.4323500000000  0.4279440000000  0.5283330000000 1.0
C      1  0.4312250000000  0.4709390000000  0.5639740000000 1.0
C      1  0.4287430000000  0.5341760000000  0.5613230000000 1.0
C      1  0.4530650000000  0.4700900000000  0.4242120000000 1.0
C      1  0.4398850000000  0.4031090000000  0.4734140000000 1.0
C      1  0.4552240000000  0.4230590000000  0.5530160000000 1.0
C      1  0.4530730000000  0.4891210000000  0.5826820000000 1.0
C      1  0.4523780000000  0.5586160000000  0.5630300000000 1.0
C      1  0.4467150000000  0.5886020000000  0.4940840000000 1.0
C      1  0.4517180000000  0.5423580000000  0.4100280000000 1.0
C      1  0.5052950000000  0.5652020000000  0.4033040000000 1.0
C      1  0.5047990000000  0.4675840000000  0.3956000000000 1.0
C      1  0.4968120000000  0.4074280000000  0.4590240000000 1.0
C      1  0.5118260000000  0.4061060000000  0.5512640000000 1.0
C      1  0.5117270000000  0.4755790000000  0.6008180000000 1.0
C      1  0.5000750000000  0.5712200000000  0.5867500000000 1.0
C      1  0.5097410000000  0.6131000000000  0.5012890000000 1.0
C      1  0.5009290000000  0.5446720000000  0.4607760000000 1.0
C      1  0.4949970000000  0.5126260000000  0.4510210000000 1.0
C      1  0.4894370000000  0.4775760000000  0.4856060000000 1.0
C      1  0.4752110000000  0.4597850000000  0.5045890000000 1.0
C      1  0.4827820000000  0.4672830000000  0.5305090000000 1.0
C      1  0.4883920000000  0.5219660000000  0.5460800000000 1.0
C      1  0.4833920000000  0.5464790000000  0.5153510000000 1.0
C      1  0.5732510000000  0.5406330000000  0.4720560000000 1.0
C      1  0.5807830000000  0.5016270000000  0.4372890000000 1.0
C      1  0.5877820000000  0.4566430000000  0.4679780000000 1.0
C      1  0.5777060000000  0.4326730000000  0.5154710000000 1.0
C      1  0.5804190000000  0.4810270000000  0.5533210000000 1.0
C      1  0.5755060000000  0.5257610000000  0.5526930000000 1.0
C      1  0.5711630000000  0.5618330000000  0.5290700000000 1.0
C      1  0.5963880000000  0.4538390000000  0.5014680000000 1.0
C      1  0.5958870000000  0.4803640000000  0.5230380000000 1.0
C      1  0.6003510000000  0.5068970000000  0.5423520000000 1.0
C      1  0.5934460000000  0.5363490000000  0.5258120000000 1.0
C      1  0.5992640000000  0.5346700000000  0.4931470000000 1.0
C      1  0.5972180000000  0.5184140000000  0.4626540000000 1.0
C      1  0.6014760000000  0.4853080000000  0.4575910000000 1.0
C      1  0.4975660000000  0.5255510000000  0.3916760000000 1.0
C      1  0.4819180000000  0.4432940000000  0.4175760000000 1.0
C      1  0.4863090000000  0.4039710000000  0.4973230000000 1.0
C      1  0.5009620000000  0.4353750000000  0.5761920000000 1.0
C      1  0.4925830000000  0.5149600000000  0.5962690000000 1.0
C      1  0.4900540000000  0.6010600000000  0.5451360000000 1.0
C      1  0.4890270000000  0.5976150000000  0.4581360000000 1.0
C      1  0.5350000000000  0.4156680000000  0.5742930000000 1.0
C      1  0.5270090000000  0.5034260000000  0.6130050000000 1.0
C      1  0.5223840000000  0.5958520000000  0.5795340000000 1.0
C      1  0.5301470000000  0.6040340000000  0.4782650000000 1.0
C      1  0.5312190000000  0.5431990000000  0.4033860000000 1.0
C      1  0.5228100000000  0.4429420000000  0.4011980000000 1.0
C      1  0.5200420000000  0.3963820000000  0.4783280000000 1.0
C      1  0.4638310000000  0.4514510000000  0.5940880000000 1.0
C      1  0.4591200000000  0.5367710000000  0.5957870000000 1.0
C      1  0.4541370000000  0.6141710000000  0.5340260000000 1.0
C      1  0.4623270000000  0.5781900000000  0.4357860000000 1.0
C      1  0.4599740000000  0.4946270000000  0.3876150000000 1.0
C      1  0.4525980000000  0.4186220000000  0.4389680000000 1.0
C      1  0.4586370000000  0.3951930000000  0.5246410000000 1.0
C      1  0.5650390000000  0.5325210000000  0.5803340000000 1.0
C      1  0.5582870000000  0.5880040000000  0.5353600000000 1.0
C      1  0.5499980000000  0.5612450000000  0.4582440000000 1.0
C      1  0.5729050000000  0.5130410000000  0.4067350000000 1.0
C      1  0.5601960000000  0.4442830000000  0.4522350000000 1.0
C      1  0.5640560000000  0.4084700000000  0.5110780000000 1.0
C      1  0.5634470000000  0.4611890000000  0.5754140000000 1.0
C      1  0.5171230000000  0.4322340000000  0.5301480000000 1.0
C      1  0.5172750000000  0.4800830000000  0.5675670000000 1.0
C      1  0.5100170000000  0.5502890000000  0.5633470000000 1.0
C      1  0.4983870000000  0.5676250000000  0.5023260000000 1.0
C      1  0.5020770000000  0.5457730000000  0.4300270000000 1.0
C      1  0.5135560000000  0.4849960000000  0.4206130000000 1.0
C      1  0.5020710000000  0.4372170000000  0.4709480000000 1.0
C      1  0.5280800000000  0.5934380000000  0.4311850000000 1.0
C      1  0.5475180000000  0.5091770000000  0.3901100000000 1.0
C      1  0.5244500000000  0.4175320000000  0.4319370000000 1.0
C      1  0.5286390000000  0.3828470000000  0.5328390000000 1.0
C      1  0.5418610000000  0.4589470000000  0.6028830000000 1.0
C      1  0.5236980000000  0.5574880000000  0.6079780000000 1.0
C      1  0.5356400000000  0.5998400000000  0.5190220000000 1.0
C      1  0.5447110000000  0.5411590000000  0.5236800000000 1.0
C      1  0.5515550000000  0.5269930000000  0.4943740000000 1.0
C      1  0.5505170000000  0.4944130000000  0.4510300000000 1.0
C      1  0.5624930000000  0.4759900000000  0.4769850000000 1.0
C      1  0.5566410000000  0.4567680000000  0.5044220000000 1.0
C      1  0.5568220000000  0.4785940000000  0.5305090000000 1.0
C      1  0.5492550000000  0.5108360000000  0.5384480000000 1.0
C      1  0.4285200000000  0.5102640000000  0.4594450000000 1.0
C      1  0.4069920000000  0.4584170000000  0.4843840000000 1.0
C      1  0.4224430000000  0.4553950000000  0.5138800000000 1.0
C      1  0.4167470000000  0.4805730000000  0.5347220000000 1.0
C      1  0.4253980000000  0.5127240000000  0.5275790000000 1.0
C      1  0.4212610000000  0.5405250000000  0.5082460000000 1.0
C      1  0.4193500000000  0.5388150000000  0.4740040000000 1.0
C      1  0.4572320000000  0.5198910000000  0.5710720000000 1.0
C      1  0.4498250000000  0.5866060000000  0.5438970000000 1.0
C      1  0.4591520000000  0.5728720000000  0.4674430000000 1.0
C      1  0.4530480000000  0.5106470000000  0.4131810000000 1.0
C      1  0.4442840000000  0.4457020000000  0.4410580000000 1.0
C      1  0.4467370000000  0.4162760000000  0.5019910000000 1.0
C      1  0.4609780000000  0.4545850000000  0.5615160000000 1.0
C      1  0.4222110000000  0.5026660000000  0.5723610000000 1.0
C      1  0.4180500000000  0.5594200000000  0.5431140000000 1.0
C      1  0.4244340000000  0.5912780000000  0.4712830000000 1.0
C      1  0.4324950000000  0.5538150000000  0.4257410000000 1.0
C      1  0.4142710000000  0.4708410000000  0.4336760000000 1.0
C      1  0.4191190000000  0.4146660000000  0.4604600000000 1.0
C      1  0.4247680000000  0.4377940000000  0.5599790000000 1.0
C      1  0.5314850000000  0.4142640000000  0.5048970000000 1.0
C      1  0.5315840000000  0.4495280000000  0.5718690000000 1.0
C      1  0.5312820000000  0.5363090000000  0.5824680000000 1.0
C      1  0.5087790000000  0.5835210000000  0.5278480000000 1.0
C      1  0.5288350000000  0.5660710000000  0.4355230000000 1.0
C      1  0.5218140000000  0.5113850000000  0.4108520000000 1.0
C      1  0.5264310000000  0.4411840000000  0.4496440000000 1.0
C      1  0.5010830000000  0.5194530000000  0.5170310000000 1.0
C      1  0.6029070000000  0.4854670000000  0.4910090000000 1.0
C      1  0.5421610000000  0.4944240000000  0.4970580000000 1.0
C      1  0.4547280000000  0.4935610000000  0.5010380000000 1.0
C      1  0.5757540000000  0.5030590000000  0.4926360000000 1.0
END
