TITL C-3289326-3776-537 -0.00224067585788368 125000 -511.703606377229 0 0 102 (C1) n - 1
REM
REM in /nfs/bkarasulu/CARBON/AIRSS/Generating-Clusters/AIREBO/with-SteepDescent/Higher-Symm/SD-CG/HFTN-CG
REM
REM
REM
REM
REM
REM ./C.cell (b20cbc046b6831c77cfcea5457e17084)
REM
REM compiler GCC version 9.2.1 20190827 (Red Hat 9.2.1-1)
REM options -cpp -mtune=generic -march=x86-64 -g -O0 -fpre-include=/usr/include/finclude/math-vector-fortran.h
REM seed 514229286 1667055735 365821255 1008264831 417219980 305258921 -915109652 -1929590462 -1363722865 -259399155 -1211725588 347293590 -387315593 217125533 1011330258 406206171 2057903591 -785650269 766773100 -482423475 1557580073 -404292404 -164976143 1981041094 167410315 2496866 959698441 -585663644 -41765551 611035735 -1999869530 -2082785718 1765249374
REM
CELL 1.54180   50.00000   50.00000   50.00000   90.00000   90.00000   90.00000
LATT -1
SFAC C  
C      1  0.5843670000000  0.4897270000000  0.4640820000000 1.0
C      1  0.5692620000000  0.4843070000000  0.5403590000000 1.0
C      1  0.5084500000000  0.4832010000000  0.5879280000000 1.0
C      1  0.4517220000000  0.4880230000000  0.5450910000000 1.0
C      1  0.4386540000000  0.4881740000000  0.4973360000000 1.0
C      1  0.4464670000000  0.4874900000000  0.4252380000000 1.0
C      1  0.5198590000000  0.4918600000000  0.4318850000000 1.0
C      1  0.4506850000000  0.4563880000000  0.5544080000000 1.0
C      1  0.4230650000000  0.4607500000000  0.4938060000000 1.0
C      1  0.4531430000000  0.4615350000000  0.4369970000000 1.0
C      1  0.5176100000000  0.4604800000000  0.4324770000000 1.0
C      1  0.5739970000000  0.4601320000000  0.4618040000000 1.0
C      1  0.5694220000000  0.4526550000000  0.5461550000000 1.0
C      1  0.5151210000000  0.4544830000000  0.5764320000000 1.0
C      1  0.5046750000000  0.4272290000000  0.4582910000000 1.0
C      1  0.5520770000000  0.4071950000000  0.4939990000000 1.0
C      1  0.5770030000000  0.4392510000000  0.5198830000000 1.0
C      1  0.5219100000000  0.4290290000000  0.5548840000000 1.0
C      1  0.4756060000000  0.4230030000000  0.5531760000000 1.0
C      1  0.4318550000000  0.4188510000000  0.5095880000000 1.0
C      1  0.4577040000000  0.4175540000000  0.4671640000000 1.0
C      1  0.4910570000000  0.5494460000000  0.5315740000000 1.0
C      1  0.4729950000000  0.5677320000000  0.5093020000000 1.0
C      1  0.4611200000000  0.5618820000000  0.4779790000000 1.0
C      1  0.4757430000000  0.5698610000000  0.4510950000000 1.0
C      1  0.5222060000000  0.5661850000000  0.4870440000000 1.0
C      1  0.5412340000000  0.5551680000000  0.5079020000000 1.0
C      1  0.5218920000000  0.5589350000000  0.5340440000000 1.0
C      1  0.5674960000000  0.5111620000000  0.4461860000000 1.0
C      1  0.5842140000000  0.5013500000000  0.5208800000000 1.0
C      1  0.5299590000000  0.5069450000000  0.5845460000000 1.0
C      1  0.4634880000000  0.5084670000000  0.5638200000000 1.0
C      1  0.4166370000000  0.5250130000000  0.5172620000000 1.0
C      1  0.4308920000000  0.5070930000000  0.4407700000000 1.0
C      1  0.4859360000000  0.5257180000000  0.4061760000000 1.0
C      1  0.4674480000000  0.5474610000000  0.4332340000000 1.0
C      1  0.5276620000000  0.5473750000000  0.4421730000000 1.0
C      1  0.5618850000000  0.5386330000000  0.4875900000000 1.0
C      1  0.5481310000000  0.5397610000000  0.5440670000000 1.0
C      1  0.4902970000000  0.5422190000000  0.5647960000000 1.0
C      1  0.4448730000000  0.5496490000000  0.5310410000000 1.0
C      1  0.4310290000000  0.5502980000000  0.4671700000000 1.0
C      1  0.4007800000000  0.5082270000000  0.5386990000000 1.0
C      1  0.4038790000000  0.5058230000000  0.4607230000000 1.0
C      1  0.4674190000000  0.4996790000000  0.4117370000000 1.0
C      1  0.5492330000000  0.5024360000000  0.4201060000000 1.0
C      1  0.6026160000000  0.4976830000000  0.4920300000000 1.0
C      1  0.5618490000000  0.5102270000000  0.5863700000000 1.0
C      1  0.4779170000000  0.4977290000000  0.5928260000000 1.0
C      1  0.4452390000000  0.5898240000000  0.4812350000000 1.0
C      1  0.4874040000000  0.5935200000000  0.4445470000000 1.0
C      1  0.5312750000000  0.5702480000000  0.4611650000000 1.0
C      1  0.5612180000000  0.5766330000000  0.5153330000000 1.0
C      1  0.5389150000000  0.5686930000000  0.5600940000000 1.0
C      1  0.4797630000000  0.5728150000000  0.5535510000000 1.0
C      1  0.4490350000000  0.5789920000000  0.5289920000000 1.0
C      1  0.4696530000000  0.4828430000000  0.4938970000000 1.0
C      1  0.4784320000000  0.4706980000000  0.4654640000000 1.0
C      1  0.5167010000000  0.4739270000000  0.4763590000000 1.0
C      1  0.5420480000000  0.4702850000000  0.4940270000000 1.0
C      1  0.5392930000000  0.4731890000000  0.5305220000000 1.0
C      1  0.5084470000000  0.4757770000000  0.5380930000000 1.0
C      1  0.4778750000000  0.4844250000000  0.5259860000000 1.0
C      1  0.4307890000000  0.4974510000000  0.5263360000000 1.0
C      1  0.4339400000000  0.5083940000000  0.4746110000000 1.0
C      1  0.4931840000000  0.5049520000000  0.4314120000000 1.0
C      1  0.5373420000000  0.5027150000000  0.4579350000000 1.0
C      1  0.5692940000000  0.4995690000000  0.4918450000000 1.0
C      1  0.5487880000000  0.5010200000000  0.5569110000000 1.0
C      1  0.4958490000000  0.5027070000000  0.5643810000000 1.0
C      1  0.4686180000000  0.4520940000000  0.5192340000000 1.0
C      1  0.4519680000000  0.4339730000000  0.4957510000000 1.0
C      1  0.4799560000000  0.4367190000000  0.4647290000000 1.0
C      1  0.5278770000000  0.4440760000000  0.4673560000000 1.0
C      1  0.5449240000000  0.4363490000000  0.4957470000000 1.0
C      1  0.5356430000000  0.4416600000000  0.5280270000000 1.0
C      1  0.4966880000000  0.4439050000000  0.5365840000000 1.0
C      1  0.5010970000000  0.5440730000000  0.4294200000000 1.0
C      1  0.5549270000000  0.5380270000000  0.4602740000000 1.0
C      1  0.5692870000000  0.5295160000000  0.5195010000000 1.0
C      1  0.5216420000000  0.5329690000000  0.5643040000000 1.0
C      1  0.4591040000000  0.5372540000000  0.5521730000000 1.0
C      1  0.4357500000000  0.5401630000000  0.4996850000000 1.0
C      1  0.4410100000000  0.5375100000000  0.4416090000000 1.0
C      1  0.5755970000000  0.4495130000000  0.4892360000000 1.0
C      1  0.5468200000000  0.4483590000000  0.5656900000000 1.0
C      1  0.4827770000000  0.4546610000000  0.5656960000000 1.0
C      1  0.4365040000000  0.4580720000000  0.5235210000000 1.0
C      1  0.4429380000000  0.4512380000000  0.4678470000000 1.0
C      1  0.4870580000000  0.4608540000000  0.4342150000000 1.0
C      1  0.5478380000000  0.4596850000000  0.4480960000000 1.0
C      1  0.5307110000000  0.5231160000000  0.5122700000000 1.0
C      1  0.5197020000000  0.5079690000000  0.5407080000000 1.0
C      1  0.4905210000000  0.5159930000000  0.5251950000000 1.0
C      1  0.4611220000000  0.5279360000000  0.4805960000000 1.0
C      1  0.4763210000000  0.5043740000000  0.4610520000000 1.0
C      1  0.5066750000000  0.5009660000000  0.4685260000000 1.0
C      1  0.5395540000000  0.5040570000000  0.4908610000000 1.0
C      1  0.4978480000000  0.5566200000000  0.4928460000000 1.0
C      1  0.4878540000000  0.5294040000000  0.4971680000000 1.0
C      1  0.5110280000000  0.4368120000000  0.5066090000000 1.0
C      1  0.4979310000000  0.4643810000000  0.4980030000000 1.0
END
