TITL C-3289333-7213-154 0.00168834139083734 125000 -980.684402285662 0 0 182 (C1) n - 1
REM
REM in /nfs/bkarasulu/CARBON/AIRSS/Generating-Clusters/AIREBO/with-SteepDescent/Higher-Symm/SD-CG/HFTN-CG
REM
REM
REM
REM
REM
REM ./C.cell (b20cbc046b6831c77cfcea5457e17084)
REM
REM compiler GCC version 9.2.1 20190827 (Red Hat 9.2.1-1)
REM options -cpp -mtune=generic -march=x86-64 -g -O0 -fpre-include=/usr/include/finclude/math-vector-fortran.h
REM seed 1892229658 486071950 542526026 224522303 2089586470 -1867370797 690039383 1836381257 858608598 1705053484 -2109803739 -1053321650 1056229701 -1266678236 -17469349 778599305 -1380655398 -1821116364 -1574607648 1163019111 944432041 871572407 -2085650333 -1442219469 1687195740 -132491805 -1254812413 -615247709 -416964913 798081910 -1428572066 -1814946091 825052708
REM
CELL 1.54180   50.00000   50.00000   50.00000   90.00000   90.00000   90.00000
LATT -1
SFAC C  
C      1  0.4277170000000  0.5848440000000  0.4905310000000 1.0
C      1  0.4478080000000  0.4454440000000  0.4362670000000 1.0
C      1  0.4070410000000  0.4571260000000  0.5839130000000 1.0
C      1  0.4300250000000  0.5489600000000  0.4357070000000 1.0
C      1  0.4393390000000  0.4201870000000  0.4837460000000 1.0
C      1  0.4327150000000  0.5211150000000  0.5810610000000 1.0
C      1  0.4998060000000  0.5212670000000  0.5137600000000 1.0
C      1  0.4980370000000  0.4878040000000  0.4737690000000 1.0
C      1  0.4934340000000  0.4631580000000  0.5319480000000 1.0
C      1  0.4865850000000  0.3972560000000  0.5047780000000 1.0
C      1  0.4816910000000  0.5411870000000  0.6094010000000 1.0
C      1  0.4856140000000  0.5485280000000  0.4113490000000 1.0
C      1  0.5267750000000  0.5534870000000  0.5896030000000 1.0
C      1  0.5325040000000  0.5478850000000  0.4234520000000 1.0
C      1  0.5365650000000  0.3974320000000  0.4903530000000 1.0
C      1  0.5303850000000  0.4814790000000  0.5491950000000 1.0
C      1  0.5207710000000  0.5562770000000  0.4852940000000 1.0
C      1  0.5085460000000  0.4552910000000  0.4531120000000 1.0
C      1  0.5604030000000  0.4460190000000  0.5443090000000 1.0
C      1  0.5550890000000  0.5660410000000  0.5241140000000 1.0
C      1  0.5555400000000  0.4851670000000  0.4263900000000 1.0
C      1  0.5634920000000  0.5392040000000  0.4905630000000 1.0
C      1  0.5614780000000  0.4507240000000  0.4629850000000 1.0
C      1  0.5581410000000  0.4895430000000  0.5358820000000 1.0
C      1  0.6055890000000  0.4696860000000  0.5181540000000 1.0
C      1  0.6008320000000  0.5204670000000  0.5141990000000 1.0
C      1  0.5996520000000  0.4875060000000  0.4625880000000 1.0
C      1  0.6009820000000  0.4374600000000  0.4955460000000 1.0
C      1  0.6078610000000  0.5125450000000  0.5476320000000 1.0
C      1  0.5964510000000  0.5381310000000  0.4680730000000 1.0
C      1  0.4397930000000  0.5555400000000  0.4663720000000 1.0
C      1  0.4436520000000  0.4629830000000  0.4718780000000 1.0
C      1  0.4277390000000  0.4912680000000  0.5551760000000 1.0
C      1  0.4748010000000  0.4166200000000  0.4305700000000 1.0
C      1  0.4745670000000  0.4888710000000  0.5984300000000 1.0
C      1  0.4790040000000  0.5998120000000  0.4714250000000 1.0
C      1  0.5253050000000  0.4879790000000  0.6027070000000 1.0
C      1  0.5298420000000  0.6015660000000  0.4612700000000 1.0
C      1  0.5256360000000  0.4117650000000  0.4276850000000 1.0
C      1  0.5863280000000  0.5163560000000  0.5643970000000 1.0
C      1  0.5778560000000  0.5544710000000  0.4430560000000 1.0
C      1  0.5744120000000  0.4213880000000  0.4865500000000 1.0
C      1  0.5351250000000  0.4962590000000  0.3760310000000 1.0
C      1  0.5524660000000  0.3971530000000  0.5595250000000 1.0
C      1  0.5090140000000  0.6123850000000  0.5629140000000 1.0
C      1  0.4600260000000  0.4651760000000  0.5104470000000 1.0
C      1  0.4490470000000  0.5214940000000  0.5207990000000 1.0
C      1  0.4648250000000  0.5142420000000  0.4636980000000 1.0
C      1  0.4184060000000  0.5187020000000  0.3946210000000 1.0
C      1  0.4195740000000  0.4070180000000  0.5340690000000 1.0
C      1  0.4231770000000  0.5724410000000  0.5696580000000 1.0
C      1  0.5208750000000  0.5836370000000  0.4386540000000 1.0
C      1  0.5199580000000  0.3938250000000  0.4543720000000 1.0
C      1  0.5236330000000  0.5146200000000  0.6196820000000 1.0
C      1  0.5521460000000  0.4319410000000  0.4357260000000 1.0
C      1  0.5515170000000  0.4788070000000  0.5830480000000 1.0
C      1  0.5534630000000  0.5847370000000  0.4763190000000 1.0
C      1  0.4042040000000  0.4609990000000  0.5354520000000 1.0
C      1  0.4025200000000  0.5494550000000  0.5124230000000 1.0
C      1  0.4124390000000  0.4885550000000  0.4408540000000 1.0
C      1  0.4844640000000  0.5145020000000  0.5950330000000 1.0
C      1  0.4720220000000  0.5885820000000  0.4408240000000 1.0
C      1  0.4709770000000  0.3919980000000  0.4529290000000 1.0
C      1  0.4628230000000  0.4882840000000  0.4116350000000 1.0
C      1  0.4542550000000  0.4414850000000  0.5611620000000 1.0
C      1  0.4656930000000  0.5779410000000  0.5423950000000 1.0
C      1  0.4755620000000  0.4647620000000  0.4326220000000 1.0
C      1  0.4618580000000  0.4730710000000  0.5640040000000 1.0
C      1  0.4793550000000  0.5709040000000  0.5138100000000 1.0
C      1  0.5229460000000  0.5904490000000  0.5555520000000 1.0
C      1  0.5352370000000  0.5088760000000  0.4002580000000 1.0
C      1  0.5477420000000  0.4072440000000  0.5346200000000 1.0
C      1  0.4502490000000  0.4182700000000  0.4544170000000 1.0
C      1  0.4451880000000  0.4904010000000  0.5843660000000 1.0
C      1  0.4501650000000  0.5852040000000  0.4664460000000 1.0
C      1  0.4996680000000  0.5748280000000  0.4726870000000 1.0
C      1  0.4925100000000  0.4336170000000  0.4511360000000 1.0
C      1  0.5167230000000  0.4959540000000  0.5735890000000 1.0
C      1  0.4982040000000  0.4452310000000  0.5912050000000 1.0
C      1  0.4927370000000  0.6097380000000  0.5075630000000 1.0
C      1  0.4942010000000  0.4479500000000  0.3913330000000 1.0
C      1  0.5894390000000  0.5101700000000  0.4838650000000 1.0
C      1  0.5930250000000  0.4691980000000  0.4866050000000 1.0
C      1  0.6181400000000  0.4946350000000  0.5246940000000 1.0
C      1  0.4127360000000  0.5054170000000  0.5178030000000 1.0
C      1  0.4181070000000  0.5171340000000  0.4875240000000 1.0
C      1  0.4176830000000  0.4835900000000  0.4942570000000 1.0
C      1  0.5077710000000  0.5482740000000  0.5628480000000 1.0
C      1  0.5058060000000  0.5278590000000  0.4299610000000 1.0
C      1  0.5144470000000  0.4167430000000  0.5044690000000 1.0
C      1  0.4782410000000  0.4697920000000  0.3876080000000 1.0
C      1  0.4751950000000  0.4302850000000  0.5839880000000 1.0
C      1  0.4776440000000  0.6072950000000  0.5299910000000 1.0
C      1  0.5460260000000  0.5371460000000  0.5686960000000 1.0
C      1  0.5454240000000  0.5634730000000  0.4507740000000 1.0
C      1  0.5443730000000  0.4140030000000  0.4624320000000 1.0
C      1  0.5592800000000  0.4727030000000  0.4889000000000 1.0
C      1  0.5517700000000  0.5127680000000  0.5180770000000 1.0
C      1  0.5556450000000  0.5063030000000  0.4849170000000 1.0
C      1  0.5758160000000  0.4996060000000  0.4415670000000 1.0
C      1  0.5722020000000  0.4673190000000  0.5205480000000 1.0
C      1  0.5734070000000  0.5385140000000  0.5230820000000 1.0
C      1  0.5672320000000  0.5738510000000  0.5612950000000 1.0
C      1  0.6005090000000  0.5216970000000  0.4423920000000 1.0
C      1  0.6076730000000  0.4378970000000  0.5259990000000 1.0
C      1  0.5011420000000  0.4231590000000  0.4135480000000 1.0
C      1  0.4959470000000  0.4711440000000  0.6018340000000 1.0
C      1  0.5076800000000  0.6145800000000  0.4773900000000 1.0
C      1  0.5716900000000  0.5924110000000  0.5360340000000 1.0
C      1  0.5677740000000  0.4734490000000  0.3981050000000 1.0
C      1  0.5884010000000  0.4300910000000  0.5442890000000 1.0
C      1  0.5491510000000  0.4536200000000  0.4149920000000 1.0
C      1  0.5481560000000  0.4529510000000  0.5724240000000 1.0
C      1  0.5539300000000  0.5941070000000  0.5068260000000 1.0
C      1  0.4489070000000  0.5315420000000  0.4882910000000 1.0
C      1  0.4483870000000  0.4919110000000  0.4833800000000 1.0
C      1  0.4412310000000  0.4888220000000  0.5261480000000 1.0
C      1  0.5776380000000  0.5647310000000  0.4742990000000 1.0
C      1  0.5925680000000  0.4373240000000  0.4626030000000 1.0
C      1  0.5667980000000  0.4955410000000  0.5657480000000 1.0
C      1  0.4590500000000  0.5431150000000  0.5843450000000 1.0
C      1  0.4569210000000  0.5391660000000  0.4178920000000 1.0
C      1  0.4625650000000  0.4156890000000  0.5093200000000 1.0
C      1  0.4765270000000  0.5439560000000  0.5037560000000 1.0
C      1  0.4721000000000  0.4690540000000  0.4614230000000 1.0
C      1  0.4768900000000  0.4854740000000  0.5457330000000 1.0
C      1  0.5278970000000  0.5021700000000  0.4655520000000 1.0
C      1  0.5319980000000  0.4667900000000  0.5083520000000 1.0
C      1  0.5255140000000  0.5299860000000  0.5260070000000 1.0
C      1  0.4201990000000  0.4607500000000  0.4490480000000 1.0
C      1  0.3983290000000  0.4782480000000  0.5615940000000 1.0
C      1  0.4083690000000  0.5645440000000  0.4893010000000 1.0
C      1  0.4326720000000  0.4017450000000  0.5105260000000 1.0
C      1  0.4286620000000  0.5536260000000  0.5883700000000 1.0
C      1  0.4277340000000  0.5433580000000  0.4033470000000 1.0
C      1  0.4912680000000  0.4274740000000  0.4818600000000 1.0
C      1  0.4962110000000  0.5184600000000  0.5676960000000 1.0
C      1  0.4950210000000  0.5447640000000  0.4574200000000 1.0
C      1  0.5204770000000  0.4418440000000  0.5751320000000 1.0
C      1  0.5240110000000  0.6002320000000  0.5073660000000 1.0
C      1  0.5204990000000  0.4540010000000  0.4068800000000 1.0
C      1  0.4063080000000  0.5507540000000  0.4600070000000 1.0
C      1  0.4179470000000  0.4437580000000  0.4784160000000 1.0
C      1  0.4037710000000  0.5120210000000  0.5651540000000 1.0
C      1  0.5331470000000  0.5152550000000  0.5532380000000 1.0
C      1  0.5330290000000  0.5354990000000  0.4656190000000 1.0
C      1  0.5195900000000  0.4555850000000  0.4816600000000 1.0
C      1  0.5122490000000  0.5382300000000  0.6112180000000 1.0
C      1  0.4948430000000  0.5692490000000  0.4338160000000 1.0
C      1  0.4951970000000  0.3951910000000  0.4719440000000 1.0
C      1  0.4519700000000  0.5880570000000  0.5062680000000 1.0
C      1  0.4436880000000  0.4601040000000  0.4091560000000 1.0
C      1  0.4280350000000  0.4432690000000  0.5827520000000 1.0
C      1  0.5095290000000  0.5726500000000  0.5112630000000 1.0
C      1  0.5080930000000  0.4727900000000  0.4279160000000 1.0
C      1  0.5178330000000  0.4536810000000  0.5464870000000 1.0
C      1  0.5256260000000  0.5618020000000  0.5374140000000 1.0
C      1  0.5254460000000  0.5001240000000  0.4316390000000 1.0
C      1  0.5345140000000  0.4368170000000  0.5242540000000 1.0
C      1  0.4869940000000  0.4601440000000  0.4902800000000 1.0
C      1  0.4774810000000  0.5189160000000  0.5393200000000 1.0
C      1  0.4940760000000  0.5194900000000  0.4802560000000 1.0
C      1  0.4743190000000  0.5497900000000  0.5569340000000 1.0
C      1  0.4749520000000  0.5135940000000  0.4312240000000 1.0
C      1  0.4691650000000  0.4393730000000  0.5306180000000 1.0
C      1  0.4089880000000  0.5183140000000  0.4579240000000 1.0
C      1  0.3999390000000  0.4569660000000  0.5016700000000 1.0
C      1  0.4024270000000  0.5266210000000  0.5377890000000 1.0
C      1  0.5428320000000  0.5362690000000  0.4009230000000 1.0
C      1  0.5532080000000  0.3913020000000  0.5114500000000 1.0
C      1  0.5420990000000  0.5766870000000  0.5728190000000 1.0
C      1  0.4257320000000  0.4357090000000  0.5435660000000 1.0
C      1  0.4363900000000  0.5689400000000  0.5461000000000 1.0
C      1  0.4301600000000  0.4975870000000  0.4133990000000 1.0
C      1  0.4373130000000  0.5106330000000  0.4440380000000 1.0
C      1  0.4301040000000  0.4520560000000  0.5154670000000 1.0
C      1  0.4293300000000  0.5439570000000  0.5312950000000 1.0
C      1  0.5742620000000  0.5435830000000  0.5567040000000 1.0
C      1  0.5619520000000  0.5270760000000  0.4513600000000 1.0
C      1  0.5437660000000  0.4361150000000  0.4856200000000 1.0
C      1  0.5050190000000  0.4876670000000  0.5128840000000 1.0
C      1  0.4730070000000  0.4947820000000  0.5037820000000 1.0
END
