TITL C-3289327-5623-436 -0.0015308836951923 125000 -488.748445327874 0 0 89 (C1) n - 1
REM
REM in /nfs/bkarasulu/CARBON/AIRSS/Generating-Clusters/AIREBO/with-SteepDescent/Higher-Symm/SD-CG/HFTN-CG
REM
REM
REM
REM
REM
REM ./C.cell (b20cbc046b6831c77cfcea5457e17084)
REM
REM compiler GCC version 9.2.1 20190827 (Red Hat 9.2.1-1)
REM options -cpp -mtune=generic -march=x86-64 -g -O0 -fpre-include=/usr/include/finclude/math-vector-fortran.h
REM seed -1522810340 988240451 321023786 1656066298 -291201544 2030696832 714165623 987508141 1226512418 158332608 -786697108 1281006267 951506761 380543495 -1456666111 1961977580 811314587 1120444791 -1105522860 -178231105 -1562686647 -719705073 -1341472159 -622175187 910693165 217108 -810083691 1976371572 1647475276 -1526250598 -878847148 -577961722 -628388212
REM
CELL 1.54180   50.00000   50.00000   50.00000   90.00000   90.00000   90.00000
LATT -1
SFAC C  
C      1  0.5500750000000  0.4791230000000  0.4298740000000 1.0
C      1  0.4922440000000  0.5195070000000  0.4248020000000 1.0
C      1  0.4990600000000  0.5238320000000  0.4788480000000 1.0
C      1  0.5247500000000  0.4085230000000  0.5045850000000 1.0
C      1  0.5667110000000  0.4445020000000  0.4735110000000 1.0
C      1  0.5277600000000  0.5485930000000  0.4662630000000 1.0
C      1  0.5464050000000  0.5796950000000  0.5063890000000 1.0
C      1  0.5358560000000  0.5775720000000  0.4798650000000 1.0
C      1  0.5298570000000  0.4528060000000  0.5529330000000 1.0
C      1  0.5203310000000  0.5181280000000  0.4529280000000 1.0
C      1  0.5280080000000  0.5609730000000  0.5493760000000 1.0
C      1  0.5702600000000  0.4749030000000  0.5184680000000 1.0
C      1  0.4553620000000  0.5079940000000  0.4338630000000 1.0
C      1  0.5324630000000  0.4974720000000  0.5665140000000 1.0
C      1  0.5988000000000  0.5228730000000  0.4391860000000 1.0
C      1  0.4483560000000  0.5014480000000  0.5737220000000 1.0
C      1  0.5443450000000  0.5047170000000  0.4382840000000 1.0
C      1  0.4554090000000  0.5557920000000  0.4696350000000 1.0
C      1  0.4424130000000  0.4219690000000  0.5130660000000 1.0
C      1  0.4282510000000  0.5076780000000  0.5253240000000 1.0
C      1  0.5592020000000  0.4616890000000  0.4516300000000 1.0
C      1  0.5508930000000  0.4950450000000  0.4900920000000 1.0
C      1  0.5218200000000  0.4731140000000  0.5754900000000 1.0
C      1  0.5255390000000  0.4789430000000  0.4910580000000 1.0
C      1  0.5074400000000  0.4458000000000  0.4509460000000 1.0
C      1  0.4555250000000  0.5531400000000  0.5247900000000 1.0
C      1  0.5035700000000  0.4341860000000  0.5482910000000 1.0
C      1  0.4978970000000  0.4179240000000  0.5232060000000 1.0
C      1  0.5730510000000  0.5175900000000  0.4475130000000 1.0
C      1  0.5510760000000  0.5432490000000  0.4436220000000 1.0
C      1  0.4223680000000  0.4574360000000  0.5408210000000 1.0
C      1  0.5560330000000  0.5330510000000  0.5008450000000 1.0
C      1  0.4581440000000  0.5002380000000  0.5152880000000 1.0
C      1  0.4636280000000  0.4274350000000  0.4879970000000 1.0
C      1  0.4352050000000  0.5265050000000  0.4526690000000 1.0
C      1  0.4506260000000  0.4537390000000  0.4907250000000 1.0
C      1  0.4665320000000  0.4083450000000  0.5229980000000 1.0
C      1  0.4687990000000  0.5229640000000  0.4943530000000 1.0
C      1  0.4877000000000  0.5536780000000  0.4671610000000 1.0
C      1  0.4933690000000  0.4322970000000  0.4938310000000 1.0
C      1  0.5738760000000  0.5591620000000  0.5395940000000 1.0
C      1  0.5268490000000  0.5817590000000  0.5275690000000 1.0
C      1  0.4783780000000  0.4551790000000  0.5569730000000 1.0
C      1  0.4999760000000  0.5810630000000  0.5174130000000 1.0
C      1  0.4774540000000  0.5745140000000  0.5362950000000 1.0
C      1  0.5441250000000  0.4272850000000  0.4832240000000 1.0
C      1  0.4645010000000  0.4948270000000  0.4638540000000 1.0
C      1  0.4150970000000  0.4822940000000  0.5068750000000 1.0
C      1  0.4361550000000  0.4791500000000  0.4534980000000 1.0
C      1  0.4385910000000  0.5349070000000  0.5428850000000 1.0
C      1  0.5233330000000  0.4677980000000  0.5231120000000 1.0
C      1  0.5249170000000  0.5582040000000  0.4278640000000 1.0
C      1  0.5004060000000  0.5604130000000  0.4946620000000 1.0
C      1  0.5521690000000  0.5174220000000  0.5488570000000 1.0
C      1  0.5274040000000  0.4994090000000  0.5344830000000 1.0
C      1  0.4277070000000  0.4526340000000  0.5104480000000 1.0
C      1  0.4375800000000  0.5182790000000  0.4817150000000 1.0
C      1  0.4908180000000  0.4669660000000  0.5296020000000 1.0
C      1  0.4862100000000  0.5401560000000  0.5179900000000 1.0
C      1  0.4202910000000  0.5331780000000  0.5042640000000 1.0
C      1  0.4998220000000  0.4958330000000  0.4969400000000 1.0
C      1  0.5672190000000  0.5609390000000  0.5121200000000 1.0
C      1  0.4894430000000  0.4634610000000  0.4984410000000 1.0
C      1  0.4938820000000  0.4731840000000  0.5797760000000 1.0
C      1  0.4492630000000  0.4600300000000  0.5581080000000 1.0
C      1  0.4999270000000  0.5536690000000  0.5465250000000 1.0
C      1  0.4785270000000  0.4943720000000  0.5382090000000 1.0
C      1  0.4257000000000  0.4900850000000  0.4797020000000 1.0
C      1  0.5593520000000  0.4598020000000  0.5384070000000 1.0
C      1  0.4291620000000  0.4875030000000  0.5527220000000 1.0
C      1  0.5772190000000  0.4654190000000  0.4925300000000 1.0
C      1  0.4596650000000  0.4740570000000  0.4305500000000 1.0
C      1  0.4745320000000  0.4933950000000  0.5679880000000 1.0
C      1  0.4822680000000  0.4610690000000  0.4397610000000 1.0
C      1  0.5633860000000  0.5068850000000  0.5189670000000 1.0
C      1  0.5061530000000  0.4750860000000  0.4633900000000 1.0
C      1  0.4922890000000  0.4995800000000  0.4478460000000 1.0
C      1  0.5670370000000  0.5471280000000  0.4734000000000 1.0
C      1  0.5291510000000  0.4391990000000  0.5101810000000 1.0
C      1  0.5131100000000  0.4278640000000  0.4716130000000 1.0
C      1  0.5009320000000  0.5113410000000  0.5246540000000 1.0
C      1  0.4949240000000  0.5496470000000  0.4350420000000 1.0
C      1  0.4622280000000  0.5413350000000  0.4395120000000 1.0
C      1  0.5684530000000  0.4897690000000  0.4664030000000 1.0
C      1  0.4420370000000  0.5291460000000  0.5693730000000 1.0
C      1  0.4427580000000  0.5554360000000  0.4951460000000 1.0
C      1  0.4632940000000  0.4815950000000  0.4902810000000 1.0
C      1  0.5250860000000  0.5371670000000  0.4972240000000 1.0
C      1  0.5522140000000  0.5469400000000  0.5532480000000 1.0
END
