TITL C-3289327-5623-377 0.000777950445364404 125000 -946.423085345176 0 0 176 (C1) n - 1
REM
REM in /nfs/bkarasulu/CARBON/AIRSS/Generating-Clusters/AIREBO/with-SteepDescent/Higher-Symm/SD-CG/HFTN-CG
REM
REM
REM
REM
REM
REM ./C.cell (b20cbc046b6831c77cfcea5457e17084)
REM
REM compiler GCC version 9.2.1 20190827 (Red Hat 9.2.1-1)
REM options -cpp -mtune=generic -march=x86-64 -g -O0 -fpre-include=/usr/include/finclude/math-vector-fortran.h
REM seed -1945686516 649526518 761572922 -1622052705 -1114160372 2087449326 -724918997 1366246675 2086379719 -2107331328 -1329654052 1325894193 -1241419733 -1794104033 -681947694 212719516 -5242924 1403406479 -1050204756 2138165561 -1314052443 1120204248 -1086644303 990470209 213489123 -1600029891 -186622246 -964972789 175040717 1083706864 705671982 -1525794258 -260310114
REM
CELL 1.54180   50.00000   50.00000   50.00000   90.00000   90.00000   90.00000
LATT -1
SFAC C  
C      1  0.5332820000000  0.5517410000000  0.5161320000000 1.0
C      1  0.5185830000000  0.5407830000000  0.5527620000000 1.0
C      1  0.5600810000000  0.5082910000000  0.5386770000000 1.0
C      1  0.4681090000000  0.4334210000000  0.5172290000000 1.0
C      1  0.4553210000000  0.5634140000000  0.4793990000000 1.0
C      1  0.5378160000000  0.4368380000000  0.4837720000000 1.0
C      1  0.4868570000000  0.4671610000000  0.5605930000000 1.0
C      1  0.4798310000000  0.5369050000000  0.4391970000000 1.0
C      1  0.5180740000000  0.4686970000000  0.4422260000000 1.0
C      1  0.4369240000000  0.4891550000000  0.5300290000000 1.0
C      1  0.4363550000000  0.5184220000000  0.4651550000000 1.0
C      1  0.5648610000000  0.4940200000000  0.4625970000000 1.0
C      1  0.5289840000000  0.5676920000000  0.4885670000000 1.0
C      1  0.5131040000000  0.5427470000000  0.4450900000000 1.0
C      1  0.5581150000000  0.5232400000000  0.4645910000000 1.0
C      1  0.4680230000000  0.4343310000000  0.4829450000000 1.0
C      1  0.4588430000000  0.5680000000000  0.5094840000000 1.0
C      1  0.5335720000000  0.4361410000000  0.5176130000000 1.0
C      1  0.4896390000000  0.4732800000000  0.4346430000000 1.0
C      1  0.4899870000000  0.5441250000000  0.5630210000000 1.0
C      1  0.5211780000000  0.4623530000000  0.5620830000000 1.0
C      1  0.4411620000000  0.4851300000000  0.4592360000000 1.0
C      1  0.4379810000000  0.5212220000000  0.5399990000000 1.0
C      1  0.5592620000000  0.4741140000000  0.5342030000000 1.0
C      1  0.5235750000000  0.5996120000000  0.4835940000000 1.0
C      1  0.4856330000000  0.5331900000000  0.5920890000000 1.0
C      1  0.5984680000000  0.4690460000000  0.5052050000000 1.0
C      1  0.4830520000000  0.3970420000000  0.4811380000000 1.0
C      1  0.4799750000000  0.5937730000000  0.5162210000000 1.0
C      1  0.5148460000000  0.4107400000000  0.5303880000000 1.0
C      1  0.5108830000000  0.4852170000000  0.6033080000000 1.0
C      1  0.5149320000000  0.5161680000000  0.4028530000000 1.0
C      1  0.4815490000000  0.4725410000000  0.4021910000000 1.0
C      1  0.4044730000000  0.5099850000000  0.5197290000000 1.0
C      1  0.4034650000000  0.4836900000000  0.4720930000000 1.0
C      1  0.5985530000000  0.5203270000000  0.4796780000000 1.0
C      1  0.5141280000000  0.5934220000000  0.5157700000000 1.0
C      1  0.4833970000000  0.5289530000000  0.4063300000000 1.0
C      1  0.5948060000000  0.4866900000000  0.4761660000000 1.0
C      1  0.4895260000000  0.4084490000000  0.5123630000000 1.0
C      1  0.4634900000000  0.6015130000000  0.4882180000000 1.0
C      1  0.5167510000000  0.3935930000000  0.4762600000000 1.0
C      1  0.5142520000000  0.4819110000000  0.4046710000000 1.0
C      1  0.5156900000000  0.5192700000000  0.6005060000000 1.0
C      1  0.4801660000000  0.4752390000000  0.5926000000000 1.0
C      1  0.4101760000000  0.5137760000000  0.4863730000000 1.0
C      1  0.4135980000000  0.4797750000000  0.5071180000000 1.0
C      1  0.6059450000000  0.5255400000000  0.5124570000000 1.0
C      1  0.3987070000000  0.5127270000000  0.4266230000000 1.0
C      1  0.4233330000000  0.3908270000000  0.4966280000000 1.0
C      1  0.5126800000000  0.4478210000000  0.4032510000000 1.0
C      1  0.5976990000000  0.4874620000000  0.4410260000000 1.0
C      1  0.6093090000000  0.5096070000000  0.5343240000000 1.0
C      1  0.4093170000000  0.4836630000000  0.5653470000000 1.0
C      1  0.5480860000000  0.5917900000000  0.5140780000000 1.0
C      1  0.5400710000000  0.3913050000000  0.4918840000000 1.0
C      1  0.4350150000000  0.5987500000000  0.4905240000000 1.0
C      1  0.4878570000000  0.5613590000000  0.4004470000000 1.0
C      1  0.4781900000000  0.4465460000000  0.6092040000000 1.0
C      1  0.5184830000000  0.5534870000000  0.6007550000000 1.0
C      1  0.4007840000000  0.5065570000000  0.5505150000000 1.0
C      1  0.4490560000000  0.3975060000000  0.4815770000000 1.0
C      1  0.5077060000000  0.4516990000000  0.6089470000000 1.0
C      1  0.6022400000000  0.4796690000000  0.5319850000000 1.0
C      1  0.5943700000000  0.5161010000000  0.4471920000000 1.0
C      1  0.4055370000000  0.4884240000000  0.4401650000000 1.0
C      1  0.5570700000000  0.5960200000000  0.4859210000000 1.0
C      1  0.5399790000000  0.3965950000000  0.5192770000000 1.0
C      1  0.4159760000000  0.5987190000000  0.5141110000000 1.0
C      1  0.4899850000000  0.5665590000000  0.5972150000000 1.0
C      1  0.4838650000000  0.4392260000000  0.4045080000000 1.0
C      1  0.5169380000000  0.5500810000000  0.4061590000000 1.0
C      1  0.5465200000000  0.4756030000000  0.4807810000000 1.0
C      1  0.4824000000000  0.5466120000000  0.4777650000000 1.0
C      1  0.4882340000000  0.4976640000000  0.5483640000000 1.0
C      1  0.4628110000000  0.5246770000000  0.4853910000000 1.0
C      1  0.4653390000000  0.4841480000000  0.5141400000000 1.0
C      1  0.5426100000000  0.5131730000000  0.5117770000000 1.0
C      1  0.5181600000000  0.4616620000000  0.4912570000000 1.0
C      1  0.5042610000000  0.5360970000000  0.5159900000000 1.0
C      1  0.4843920000000  0.4618580000000  0.5126210000000 1.0
C      1  0.5211260000000  0.5158400000000  0.5344810000000 1.0
C      1  0.5248450000000  0.4899540000000  0.4638320000000 1.0
C      1  0.4820830000000  0.5073350000000  0.4541710000000 1.0
C      1  0.5464240000000  0.4837600000000  0.5094200000000 1.0
C      1  0.4794410000000  0.5512780000000  0.5251900000000 1.0
C      1  0.4797830000000  0.4773730000000  0.4642550000000 1.0
C      1  0.4603290000000  0.5178100000000  0.5155700000000 1.0
C      1  0.4604850000000  0.4931070000000  0.4844090000000 1.0
C      1  0.5400780000000  0.5256850000000  0.4869160000000 1.0
C      1  0.5147500000000  0.4632980000000  0.5227490000000 1.0
C      1  0.5114470000000  0.5397640000000  0.4848570000000 1.0
C      1  0.4901020000000  0.4563110000000  0.4810180000000 1.0
C      1  0.5108300000000  0.5150350000000  0.4618210000000 1.0
C      1  0.5165460000000  0.4864750000000  0.5420560000000 1.0
C      1  0.4777050000000  0.5232250000000  0.5428920000000 1.0
C      1  0.4513500000000  0.4862670000000  0.4036160000000 1.0
C      1  0.4119670000000  0.4524820000000  0.4781350000000 1.0
C      1  0.4898800000000  0.3999160000000  0.4479360000000 1.0
C      1  0.5478290000000  0.5226130000000  0.4086560000000 1.0
C      1  0.5401340000000  0.4892210000000  0.5906530000000 1.0
C      1  0.4572760000000  0.5210190000000  0.5912610000000 1.0
C      1  0.5968150000000  0.5536530000000  0.4864410000000 1.0
C      1  0.5877520000000  0.4429550000000  0.5076060000000 1.0
C      1  0.4078170000000  0.5416900000000  0.5148020000000 1.0
C      1  0.5062850000000  0.5968940000000  0.4543460000000 1.0
C      1  0.5135600000000  0.4118630000000  0.5634350000000 1.0
C      1  0.4892120000000  0.5940170000000  0.5469870000000 1.0
C      1  0.4549710000000  0.4928830000000  0.5918940000000 1.0
C      1  0.4089480000000  0.4463850000000  0.5091930000000 1.0
C      1  0.4848230000000  0.4171350000000  0.5720420000000 1.0
C      1  0.5479760000000  0.5165230000000  0.5900510000000 1.0
C      1  0.5468990000000  0.4907560000000  0.4083870000000 1.0
C      1  0.4521960000000  0.5163050000000  0.4047870000000 1.0
C      1  0.5903610000000  0.5528630000000  0.5182630000000 1.0
C      1  0.5867570000000  0.4219200000000  0.4899760000000 1.0
C      1  0.4011740000000  0.5473870000000  0.4845490000000 1.0
C      1  0.5211520000000  0.5913180000000  0.5490650000000 1.0
C      1  0.5208530000000  0.4072820000000  0.4455230000000 1.0
C      1  0.4770570000000  0.5949810000000  0.4632990000000 1.0
C      1  0.5541710000000  0.4697710000000  0.5675400000000 1.0
C      1  0.5762370000000  0.5498000000000  0.4616270000000 1.0
C      1  0.4739570000000  0.5688240000000  0.5607090000000 1.0
C      1  0.4376610000000  0.5342920000000  0.5713880000000 1.0
C      1  0.4561740000000  0.4696560000000  0.4329400000000 1.0
C      1  0.5458480000000  0.5401100000000  0.4377360000000 1.0
C      1  0.4439850000000  0.4520700000000  0.4666990000000 1.0
C      1  0.4358320000000  0.5537230000000  0.5298690000000 1.0
C      1  0.5647250000000  0.4406330000000  0.5304940000000 1.0
C      1  0.5342580000000  0.4352300000000  0.5695170000000 1.0
C      1  0.5283990000000  0.5711080000000  0.4559620000000 1.0
C      1  0.4658190000000  0.4210710000000  0.4542070000000 1.0
C      1  0.5512730000000  0.4747620000000  0.4380820000000 1.0
C      1  0.5614610000000  0.5417640000000  0.5323530000000 1.0
C      1  0.4662590000000  0.5670050000000  0.4473980000000 1.0
C      1  0.4462310000000  0.5310370000000  0.4348520000000 1.0
C      1  0.4541800000000  0.4690530000000  0.5513460000000 1.0
C      1  0.5672310000000  0.5230010000000  0.5681180000000 1.0
C      1  0.4345910000000  0.4311720000000  0.5224790000000 1.0
C      1  0.4280440000000  0.5513790000000  0.4641000000000 1.0
C      1  0.5653130000000  0.4277240000000  0.4672680000000 1.0
C      1  0.5310630000000  0.4393300000000  0.4505330000000 1.0
C      1  0.5380290000000  0.5636770000000  0.5561410000000 1.0
C      1  0.4767290000000  0.4360890000000  0.5503390000000 1.0
C      1  0.4286870000000  0.4223450000000  0.4729230000000 1.0
C      1  0.4781510000000  0.4189100000000  0.4222900000000 1.0
C      1  0.4242780000000  0.4759920000000  0.4229980000000 1.0
C      1  0.5776060000000  0.5801450000000  0.4772090000000 1.0
C      1  0.5630870000000  0.4066680000000  0.5303620000000 1.0
C      1  0.4095810000000  0.5747460000000  0.5248560000000 1.0
C      1  0.5139900000000  0.5776400000000  0.4258610000000 1.0
C      1  0.5185840000000  0.4288450000000  0.5956680000000 1.0
C      1  0.4843420000000  0.5921830000000  0.5809830000000 1.0
C      1  0.5760810000000  0.5276660000000  0.4283700000000 1.0
C      1  0.5871250000000  0.4765040000000  0.5624350000000 1.0
C      1  0.4064390000000  0.5292210000000  0.5649660000000 1.0
C      1  0.4126350000000  0.4123330000000  0.5092110000000 1.0
C      1  0.4726020000000  0.4218680000000  0.5960980000000 1.0
C      1  0.4365690000000  0.4819080000000  0.5734100000000 1.0
C      1  0.5658750000000  0.5751310000000  0.5274310000000 1.0
C      1  0.5652140000000  0.3980710000000  0.4805800000000 1.0
C      1  0.4150560000000  0.5787650000000  0.4795140000000 1.0
C      1  0.5244370000000  0.5780550000000  0.5808730000000 1.0
C      1  0.5268790000000  0.4284060000000  0.4186060000000 1.0
C      1  0.4750850000000  0.5788230000000  0.4167620000000 1.0
C      1  0.5934150000000  0.5060880000000  0.5604410000000 1.0
C      1  0.5787190000000  0.4804250000000  0.4188290000000 1.0
C      1  0.4198900000000  0.5247810000000  0.4142760000000 1.0
C      1  0.4447170000000  0.4393520000000  0.5490790000000 1.0
C      1  0.5636630000000  0.4433790000000  0.4409420000000 1.0
C      1  0.4351380000000  0.5631700000000  0.4340050000000 1.0
C      1  0.5645640000000  0.4375510000000  0.5643540000000 1.0
C      1  0.5586740000000  0.5712220000000  0.4433890000000 1.0
C      1  0.4456460000000  0.5628810000000  0.5594710000000 1.0
C      1  0.5668930000000  0.5538670000000  0.5636640000000 1.0
C      1  0.4463110000000  0.4385750000000  0.4353230000000 1.0
END
