TITL C-3289327-5623-229 -0.00267939013497874 125000 -934.748890252449 0 0 174 (C1) n - 1
REM
REM in /nfs/bkarasulu/CARBON/AIRSS/Generating-Clusters/AIREBO/with-SteepDescent/Higher-Symm/SD-CG/HFTN-CG
REM
REM
REM
REM
REM
REM ./C.cell (b20cbc046b6831c77cfcea5457e17084)
REM
REM compiler GCC version 9.2.1 20190827 (Red Hat 9.2.1-1)
REM options -cpp -mtune=generic -march=x86-64 -g -O0 -fpre-include=/usr/include/finclude/math-vector-fortran.h
REM seed -383069976 -462310453 66766179 -1311274340 -1463664328 -1439678982 849836269 172710737 -674485492 742880409 -640665746 1720347425 609469128 -648876926 -1050892382 -1575458663 1654514566 -526938431 -493935442 2125430529 994632048 -1013762505 308184547 -636415624 -2078096338 -134761605 -111505624 -290958030 1009724223 314961513 1563553024 1300047094 -860109518
REM
CELL 1.54180   50.00000   50.00000   50.00000   90.00000   90.00000   90.00000
LATT -1
SFAC C  
C      1  0.4435230000000  0.5204300000000  0.4183130000000 1.0
C      1  0.4790910000000  0.5642710000000  0.4187050000000 1.0
C      1  0.5357540000000  0.5499880000000  0.4142150000000 1.0
C      1  0.5790790000000  0.5246360000000  0.4067260000000 1.0
C      1  0.5497170000000  0.4778000000000  0.4005400000000 1.0
C      1  0.5121170000000  0.4380730000000  0.4021140000000 1.0
C      1  0.4608980000000  0.4649470000000  0.4101950000000 1.0
C      1  0.5288580000000  0.4300090000000  0.5408350000000 1.0
C      1  0.4552140000000  0.4272990000000  0.5447320000000 1.0
C      1  0.4301290000000  0.4895210000000  0.5425070000000 1.0
C      1  0.4403970000000  0.5511160000000  0.5455010000000 1.0
C      1  0.5122600000000  0.5843980000000  0.5512950000000 1.0
C      1  0.5718600000000  0.5481440000000  0.5436460000000 1.0
C      1  0.5680660000000  0.4814200000000  0.5466140000000 1.0
C      1  0.5849510000000  0.5251600000000  0.5276640000000 1.0
C      1  0.5693160000000  0.4541420000000  0.5259370000000 1.0
C      1  0.5072190000000  0.4155080000000  0.5228570000000 1.0
C      1  0.4310030000000  0.4392630000000  0.5324130000000 1.0
C      1  0.4170690000000  0.5121990000000  0.5230020000000 1.0
C      1  0.4634300000000  0.5702030000000  0.5340610000000 1.0
C      1  0.5312730000000  0.5803230000000  0.5243700000000 1.0
C      1  0.5589680000000  0.5322620000000  0.4326790000000 1.0
C      1  0.5628140000000  0.4651660000000  0.4292760000000 1.0
C      1  0.5282190000000  0.4301760000000  0.4297670000000 1.0
C      1  0.4615760000000  0.4429700000000  0.4363380000000 1.0
C      1  0.4456840000000  0.4885840000000  0.4271680000000 1.0
C      1  0.4593400000000  0.5422640000000  0.4316010000000 1.0
C      1  0.5096990000000  0.5594860000000  0.4295670000000 1.0
C      1  0.5686510000000  0.4107030000000  0.4654970000000 1.0
C      1  0.4654800000000  0.4148640000000  0.4546830000000 1.0
C      1  0.4112340000000  0.4827560000000  0.4706400000000 1.0
C      1  0.4238770000000  0.5389610000000  0.4776270000000 1.0
C      1  0.4916530000000  0.5932080000000  0.4670310000000 1.0
C      1  0.5562530000000  0.5720060000000  0.4675470000000 1.0
C      1  0.5726150000000  0.4755990000000  0.4601600000000 1.0
C      1  0.4525630000000  0.5712700000000  0.4434880000000 1.0
C      1  0.5238410000000  0.5723220000000  0.4551150000000 1.0
C      1  0.5705360000000  0.5295350000000  0.4602420000000 1.0
C      1  0.5580170000000  0.4351570000000  0.4279600000000 1.0
C      1  0.5190580000000  0.4211750000000  0.4576670000000 1.0
C      1  0.4402690000000  0.4439960000000  0.4625870000000 1.0
C      1  0.4267190000000  0.5089220000000  0.4447440000000 1.0
C      1  0.4825970000000  0.4703230000000  0.5171790000000 1.0
C      1  0.4596030000000  0.4883430000000  0.4997350000000 1.0
C      1  0.4658490000000  0.5180300000000  0.5152640000000 1.0
C      1  0.4977010000000  0.5287540000000  0.5100790000000 1.0
C      1  0.5314490000000  0.5289840000000  0.5151190000000 1.0
C      1  0.5357860000000  0.4799910000000  0.5172410000000 1.0
C      1  0.5122800000000  0.4583110000000  0.5056980000000 1.0
C      1  0.4421200000000  0.4146490000000  0.4796710000000 1.0
C      1  0.3920390000000  0.4984840000000  0.4867930000000 1.0
C      1  0.4329230000000  0.5709640000000  0.4712550000000 1.0
C      1  0.5153500000000  0.6041680000000  0.4857500000000 1.0
C      1  0.5827670000000  0.5544550000000  0.4798750000000 1.0
C      1  0.5870400000000  0.4541240000000  0.4823100000000 1.0
C      1  0.5398180000000  0.4028120000000  0.4729850000000 1.0
C      1  0.5661940000000  0.4849360000000  0.5805230000000 1.0
C      1  0.5112590000000  0.4255720000000  0.5816430000000 1.0
C      1  0.4602620000000  0.4401980000000  0.5757920000000 1.0
C      1  0.4314620000000  0.4986750000000  0.5811930000000 1.0
C      1  0.4549960000000  0.5559260000000  0.5865340000000 1.0
C      1  0.5138200000000  0.5793880000000  0.5832760000000 1.0
C      1  0.5642380000000  0.5423750000000  0.5762810000000 1.0
C      1  0.5455590000000  0.5706760000000  0.5732560000000 1.0
C      1  0.5788350000000  0.5117680000000  0.5737490000000 1.0
C      1  0.5389970000000  0.4217490000000  0.5705430000000 1.0
C      1  0.4861090000000  0.4190320000000  0.5689930000000 1.0
C      1  0.4373770000000  0.4655120000000  0.5750290000000 1.0
C      1  0.4346300000000  0.5317670000000  0.5736180000000 1.0
C      1  0.4798770000000  0.5774170000000  0.5777820000000 1.0
C      1  0.5744060000000  0.5760530000000  0.5029230000000 1.0
C      1  0.5909050000000  0.4744760000000  0.5092890000000 1.0
C      1  0.5352230000000  0.4125040000000  0.5041560000000 1.0
C      1  0.4665810000000  0.4030900000000  0.4987750000000 1.0
C      1  0.4081290000000  0.4809320000000  0.5104650000000 1.0
C      1  0.4153150000000  0.5710460000000  0.4997550000000 1.0
C      1  0.5007860000000  0.5911350000000  0.5135730000000 1.0
C      1  0.5596400000000  0.5022280000000  0.3931560000000 1.0
C      1  0.5252320000000  0.4671590000000  0.3915650000000 1.0
C      1  0.4913060000000  0.4640000000000  0.3949960000000 1.0
C      1  0.4674300000000  0.4849980000000  0.3829480000000 1.0
C      1  0.4691740000000  0.5190660000000  0.3879130000000 1.0
C      1  0.4684210000000  0.5456320000000  0.3928730000000 1.0
C      1  0.5499340000000  0.5335420000000  0.3938840000000 1.0
C      1  0.5230720000000  0.5394010000000  0.4774230000000 1.0
C      1  0.5258770000000  0.5087800000000  0.4628180000000 1.0
C      1  0.5315870000000  0.4758250000000  0.4694600000000 1.0
C      1  0.4841590000000  0.4504360000000  0.4704120000000 1.0
C      1  0.4803020000000  0.4798870000000  0.4773900000000 1.0
C      1  0.4535690000000  0.5241650000000  0.4701650000000 1.0
C      1  0.4942550000000  0.5272850000000  0.4783950000000 1.0
C      1  0.4836430000000  0.5430430000000  0.5974370000000 1.0
C      1  0.5135190000000  0.5507530000000  0.5957900000000 1.0
C      1  0.5354080000000  0.5349070000000  0.5879620000000 1.0
C      1  0.5399660000000  0.4682160000000  0.5941410000000 1.0
C      1  0.5084820000000  0.4556920000000  0.5904170000000 1.0
C      1  0.4755240000000  0.4623580000000  0.5954800000000 1.0
C      1  0.4614110000000  0.4918740000000  0.5968930000000 1.0
C      1  0.5381540000000  0.5092800000000  0.5657550000000 1.0
C      1  0.5294780000000  0.4803870000000  0.5674590000000 1.0
C      1  0.5001390000000  0.4551860000000  0.5574220000000 1.0
C      1  0.4855620000000  0.4792580000000  0.5677370000000 1.0
C      1  0.4608530000000  0.5023910000000  0.5645070000000 1.0
C      1  0.4829320000000  0.5401810000000  0.5635480000000 1.0
C      1  0.5139580000000  0.5292660000000  0.5549280000000 1.0
C      1  0.5735780000000  0.4161890000000  0.4387250000000 1.0
C      1  0.4915510000000  0.4062030000000  0.4544790000000 1.0
C      1  0.4129600000000  0.4577430000000  0.4606920000000 1.0
C      1  0.4055210000000  0.5316650000000  0.4499430000000 1.0
C      1  0.4704850000000  0.5942370000000  0.4436800000000 1.0
C      1  0.5471860000000  0.5908550000000  0.4407370000000 1.0
C      1  0.5854860000000  0.5044880000000  0.4595330000000 1.0
C      1  0.4861540000000  0.4641700000000  0.4410860000000 1.0
C      1  0.4757400000000  0.4913300000000  0.4363150000000 1.0
C      1  0.4784460000000  0.5227700000000  0.4493570000000 1.0
C      1  0.5078250000000  0.5287360000000  0.4333080000000 1.0
C      1  0.5350200000000  0.5123830000000  0.4325290000000 1.0
C      1  0.5348570000000  0.4796670000000  0.4375100000000 1.0
C      1  0.5125130000000  0.4597140000000  0.4286080000000 1.0
C      1  0.4628190000000  0.5814850000000  0.4807670000000 1.0
C      1  0.5413760000000  0.6005370000000  0.4785680000000 1.0
C      1  0.5962210000000  0.5280130000000  0.4965640000000 1.0
C      1  0.5806710000000  0.4264950000000  0.4863620000000 1.0
C      1  0.5132710000000  0.3850310000000  0.4823790000000 1.0
C      1  0.4216360000000  0.4304220000000  0.5018260000000 1.0
C      1  0.3947170000000  0.5256040000000  0.4889380000000 1.0
C      1  0.4822590000000  0.4318270000000  0.5064080000000 1.0
C      1  0.4383060000000  0.4653030000000  0.5118040000000 1.0
C      1  0.4366810000000  0.5298500000000  0.5077870000000 1.0
C      1  0.4859380000000  0.5606720000000  0.5103970000000 1.0
C      1  0.5453250000000  0.5587560000000  0.5062900000000 1.0
C      1  0.5697610000000  0.5011010000000  0.5088300000000 1.0
C      1  0.5431300000000  0.4440250000000  0.5067100000000 1.0
C      1  0.4617340000000  0.5269050000000  0.5450230000000 1.0
C      1  0.5009980000000  0.5577760000000  0.5407430000000 1.0
C      1  0.5415940000000  0.5448180000000  0.5434350000000 1.0
C      1  0.5484330000000  0.5059310000000  0.5335190000000 1.0
C      1  0.5263210000000  0.4619390000000  0.5428130000000 1.0
C      1  0.4817350000000  0.4427800000000  0.5371090000000 1.0
C      1  0.4593440000000  0.4801570000000  0.5399570000000 1.0
C      1  0.5676200000000  0.6029570000000  0.4901670000000 1.0
C      1  0.6064230000000  0.5000010000000  0.4930100000000 1.0
C      1  0.5688060000000  0.4138890000000  0.5093270000000 1.0
C      1  0.4891690000000  0.3844790000000  0.4879160000000 1.0
C      1  0.4005570000000  0.4502350000000  0.4979310000000 1.0
C      1  0.3919070000000  0.5501100000000  0.5038410000000 1.0
C      1  0.4719270000000  0.6032140000000  0.5002520000000 1.0
C      1  0.5047430000000  0.5659270000000  0.4825350000000 1.0
C      1  0.5517410000000  0.5310940000000  0.4875770000000 1.0
C      1  0.5554040000000  0.4770010000000  0.4895900000000 1.0
C      1  0.5151880000000  0.4474190000000  0.4744580000000 1.0
C      1  0.4578850000000  0.4494880000000  0.4905710000000 1.0
C      1  0.4392050000000  0.4958850000000  0.4735880000000 1.0
C      1  0.4596960000000  0.5497300000000  0.4917260000000 1.0
C      1  0.4726840000000  0.5896140000000  0.5527510000000 1.0
C      1  0.5525930000000  0.5834660000000  0.5482810000000 1.0
C      1  0.5959830000000  0.5096080000000  0.5512970000000 1.0
C      1  0.5651270000000  0.4377140000000  0.5555140000000 1.0
C      1  0.4875480000000  0.4039880000000  0.5448730000000 1.0
C      1  0.4174140000000  0.4542270000000  0.5558400000000 1.0
C      1  0.4089840000000  0.5284070000000  0.5515380000000 1.0
C      1  0.4615980000000  0.3990990000000  0.5302680000000 1.0
C      1  0.4002710000000  0.4748400000000  0.5429830000000 1.0
C      1  0.4128700000000  0.5537450000000  0.5292010000000 1.0
C      1  0.4929140000000  0.6089570000000  0.5414420000000 1.0
C      1  0.5789310000000  0.5766070000000  0.5336680000000 1.0
C      1  0.6015610000000  0.4817920000000  0.5407410000000 1.0
C      1  0.5584870000000  0.4141840000000  0.5364630000000 1.0
C      1  0.4962590000000  0.5025750000000  0.3869530000000 1.0
C      1  0.4993720000000  0.5054830000000  0.5743670000000 1.0
C      1  0.4980090000000  0.4969310000000  0.4727620000000 1.0
C      1  0.4834830000000  0.5135310000000  0.5954460000000 1.0
C      1  0.5000210000000  0.4975040000000  0.5160360000000 1.0
C      1  0.4943980000000  0.5070090000000  0.4163580000000 1.0
END
