TITL C-3289321-8710-553 -0.0018367981913758 125000 -956.632609974134 0 0 174 (C1) n - 1
REM
REM in /nfs/bkarasulu/CARBON/AIRSS/Generating-Clusters/AIREBO/with-SteepDescent/Higher-Symm/SD-CG/HFTN-CG
REM
REM
REM
REM
REM
REM ./C.cell (b20cbc046b6831c77cfcea5457e17084)
REM
REM compiler GCC version 9.2.1 20190827 (Red Hat 9.2.1-1)
REM options -cpp -mtune=generic -march=x86-64 -g -O0 -fpre-include=/usr/include/finclude/math-vector-fortran.h
REM seed 1262617107 212488789 -1568294849 -619597751 451582555 -1014424848 -18077651 1107503642 -1937911764 83410915 -1330135949 1317063438 979464966 852887818 1970037280 700454940 -203818744 -696302256 1642676163 -2097403443 216465496 2049035748 829371322 1821294247 -1861938579 455371029 -1799660631 -337874454 897663338 1290235989 -430314812 2055797191 538866538
REM
CELL 1.54180   50.00000   50.00000   50.00000   90.00000   90.00000   90.00000
LATT -1
SFAC C  
C      1  0.5549910000000  0.4405680000000  0.4326920000000 1.0
C      1  0.5729580000000  0.4464440000000  0.4983640000000 1.0
C      1  0.5611600000000  0.4434070000000  0.5600470000000 1.0
C      1  0.4903200000000  0.4347020000000  0.5769950000000 1.0
C      1  0.4229920000000  0.4453190000000  0.5391450000000 1.0
C      1  0.4266750000000  0.4446400000000  0.4677430000000 1.0
C      1  0.4814130000000  0.4421380000000  0.4172180000000 1.0
C      1  0.5210090000000  0.4764050000000  0.3950900000000 1.0
C      1  0.5902750000000  0.4760350000000  0.4454050000000 1.0
C      1  0.5981510000000  0.4784710000000  0.5245140000000 1.0
C      1  0.5387380000000  0.4756300000000  0.5986450000000 1.0
C      1  0.4568810000000  0.4714030000000  0.5867190000000 1.0
C      1  0.3933730000000  0.4819670000000  0.5117680000000 1.0
C      1  0.4190150000000  0.4814030000000  0.4250980000000 1.0
C      1  0.5153860000000  0.5780770000000  0.4754090000000 1.0
C      1  0.5329000000000  0.5869110000000  0.5016170000000 1.0
C      1  0.5196100000000  0.5761460000000  0.5254780000000 1.0
C      1  0.4894690000000  0.5853180000000  0.5315940000000 1.0
C      1  0.4625980000000  0.5767600000000  0.5147470000000 1.0
C      1  0.4767330000000  0.5819470000000  0.4841680000000 1.0
C      1  0.4911610000000  0.5885990000000  0.4539920000000 1.0
C      1  0.5479790000000  0.5216500000000  0.3982670000000 1.0
C      1  0.5998390000000  0.5267620000000  0.4637730000000 1.0
C      1  0.5769860000000  0.5114760000000  0.5689900000000 1.0
C      1  0.5051050000000  0.5233980000000  0.6113540000000 1.0
C      1  0.4128550000000  0.5092140000000  0.5610470000000 1.0
C      1  0.4018960000000  0.5234550000000  0.4677550000000 1.0
C      1  0.4442520000000  0.5286470000000  0.4040170000000 1.0
C      1  0.4767690000000  0.5005620000000  0.5627210000000 1.0
C      1  0.4269310000000  0.5014540000000  0.5201780000000 1.0
C      1  0.4433050000000  0.4993920000000  0.4507860000000 1.0
C      1  0.4965800000000  0.5048430000000  0.4271900000000 1.0
C      1  0.5488120000000  0.4989680000000  0.4548080000000 1.0
C      1  0.5670740000000  0.4969780000000  0.5056720000000 1.0
C      1  0.5314820000000  0.4971880000000  0.5660910000000 1.0
C      1  0.4724970000000  0.5512450000000  0.4858480000000 1.0
C      1  0.4909810000000  0.5357900000000  0.4657170000000 1.0
C      1  0.5189020000000  0.5484040000000  0.4710280000000 1.0
C      1  0.5307050000000  0.5350340000000  0.4966360000000 1.0
C      1  0.5212190000000  0.5466620000000  0.5224010000000 1.0
C      1  0.4951720000000  0.5362660000000  0.5323830000000 1.0
C      1  0.4731900000000  0.5444770000000  0.5161580000000 1.0
C      1  0.4353330000000  0.4754060000000  0.5356110000000 1.0
C      1  0.4275380000000  0.4783260000000  0.4723220000000 1.0
C      1  0.4716630000000  0.4823290000000  0.4218520000000 1.0
C      1  0.5401910000000  0.4707860000000  0.4378450000000 1.0
C      1  0.5714990000000  0.4736400000000  0.4824700000000 1.0
C      1  0.5531150000000  0.4757370000000  0.5529830000000 1.0
C      1  0.4962650000000  0.4794820000000  0.5715070000000 1.0
C      1  0.4395280000000  0.5542320000000  0.5574560000000 1.0
C      1  0.4128840000000  0.5591390000000  0.5019240000000 1.0
C      1  0.4567680000000  0.5650670000000  0.4306200000000 1.0
C      1  0.5243080000000  0.5591620000000  0.4265700000000 1.0
C      1  0.5703380000000  0.5609690000000  0.4760580000000 1.0
C      1  0.5585040000000  0.5528430000000  0.5426200000000 1.0
C      1  0.5031170000000  0.5604780000000  0.5810160000000 1.0
C      1  0.5588930000000  0.4130820000000  0.4523440000000 1.0
C      1  0.5867010000000  0.4086850000000  0.5296890000000 1.0
C      1  0.5350780000000  0.4021200000000  0.5789110000000 1.0
C      1  0.4911590000000  0.4029960000000  0.5826960000000 1.0
C      1  0.4194630000000  0.4205510000000  0.5172150000000 1.0
C      1  0.4391600000000  0.4205260000000  0.4472770000000 1.0
C      1  0.5029480000000  0.4176210000000  0.4219160000000 1.0
C      1  0.4466170000000  0.6038000000000  0.5226530000000 1.0
C      1  0.4414860000000  0.5906010000000  0.4675460000000 1.0
C      1  0.4995790000000  0.5957630000000  0.4155740000000 1.0
C      1  0.5425070000000  0.5950170000000  0.4514200000000 1.0
C      1  0.5657880000000  0.5890850000000  0.5039860000000 1.0
C      1  0.5378340000000  0.5858540000000  0.5507870000000 1.0
C      1  0.4770610000000  0.5879500000000  0.5623770000000 1.0
C      1  0.5367280000000  0.4879430000000  0.5030950000000 1.0
C      1  0.5147470000000  0.5022020000000  0.5248080000000 1.0
C      1  0.4847620000000  0.4916400000000  0.5351960000000 1.0
C      1  0.4689450000000  0.5049680000000  0.5082050000000 1.0
C      1  0.4675560000000  0.5007180000000  0.4744800000000 1.0
C      1  0.4966470000000  0.4914780000000  0.4584890000000 1.0
C      1  0.5273940000000  0.4845870000000  0.4727030000000 1.0
C      1  0.5005080000000  0.3870960000000  0.5655910000000 1.0
C      1  0.4332560000000  0.4070220000000  0.5434410000000 1.0
C      1  0.4540180000000  0.4021600000000  0.4601540000000 1.0
C      1  0.4996410000000  0.3970540000000  0.4393340000000 1.0
C      1  0.5348460000000  0.3894570000000  0.4567800000000 1.0
C      1  0.5700730000000  0.4041120000000  0.5075000000000 1.0
C      1  0.5437170000000  0.3882740000000  0.5543230000000 1.0
C      1  0.5763920000000  0.5387700000000  0.5595640000000 1.0
C      1  0.5067490000000  0.5513210000000  0.6071020000000 1.0
C      1  0.4195940000000  0.5369840000000  0.5674880000000 1.0
C      1  0.4142830000000  0.5475230000000  0.4764060000000 1.0
C      1  0.4432980000000  0.5558320000000  0.4079150000000 1.0
C      1  0.5337820000000  0.5470970000000  0.4035280000000 1.0
C      1  0.5961460000000  0.5533670000000  0.4683860000000 1.0
C      1  0.5978040000000  0.4933310000000  0.4737000000000 1.0
C      1  0.5815940000000  0.4921670000000  0.5442620000000 1.0
C      1  0.5079690000000  0.4901790000000  0.6003630000000 1.0
C      1  0.4385870000000  0.4878430000000  0.5671890000000 1.0
C      1  0.4045460000000  0.4951720000000  0.4865030000000 1.0
C      1  0.4431770000000  0.4953890000000  0.4110300000000 1.0
C      1  0.5475680000000  0.4902240000000  0.4112730000000 1.0
C      1  0.5635400000000  0.5973960000000  0.5362660000000 1.0
C      1  0.5086640000000  0.5988260000000  0.5563190000000 1.0
C      1  0.4531870000000  0.6079910000000  0.5492450000000 1.0
C      1  0.4365210000000  0.5991480000000  0.4942900000000 1.0
C      1  0.4607760000000  0.6036930000000  0.4525710000000 1.0
C      1  0.5182540000000  0.6032040000000  0.4395380000000 1.0
C      1  0.5489930000000  0.6032270000000  0.4777300000000 1.0
C      1  0.4479910000000  0.5256750000000  0.5251900000000 1.0
C      1  0.4521210000000  0.5310090000000  0.4733180000000 1.0
C      1  0.4841340000000  0.5330480000000  0.4370730000000 1.0
C      1  0.5389160000000  0.5312650000000  0.4508920000000 1.0
C      1  0.5595430000000  0.5271370000000  0.4949590000000 1.0
C      1  0.5309190000000  0.5240470000000  0.5452510000000 1.0
C      1  0.4885120000000  0.5301030000000  0.5601730000000 1.0
C      1  0.4742200000000  0.4598590000000  0.4430680000000 1.0
C      1  0.5265650000000  0.4228360000000  0.4537180000000 1.0
C      1  0.5417130000000  0.4390790000000  0.4939630000000 1.0
C      1  0.5344760000000  0.4265320000000  0.5474140000000 1.0
C      1  0.5003150000000  0.4557170000000  0.5540580000000 1.0
C      1  0.4596600000000  0.4286060000000  0.5244020000000 1.0
C      1  0.4563820000000  0.4413460000000  0.4865430000000 1.0
C      1  0.4977100000000  0.4587420000000  0.4666460000000 1.0
C      1  0.5308290000000  0.4517130000000  0.4646960000000 1.0
C      1  0.5273460000000  0.4595850000000  0.5113000000000 1.0
C      1  0.5288740000000  0.4563820000000  0.5406190000000 1.0
C      1  0.4818930000000  0.4614700000000  0.5291510000000 1.0
C      1  0.4533750000000  0.4576250000000  0.5162490000000 1.0
C      1  0.4590410000000  0.4678090000000  0.4695180000000 1.0
C      1  0.5574500000000  0.4984770000000  0.5855570000000 1.0
C      1  0.4753600000000  0.4818690000000  0.6053500000000 1.0
C      1  0.3979470000000  0.5008150000000  0.5363680000000 1.0
C      1  0.4100270000000  0.5031720000000  0.4467020000000 1.0
C      1  0.5013010000000  0.4962050000000  0.3946450000000 1.0
C      1  0.5797580000000  0.4856010000000  0.4212910000000 1.0
C      1  0.6112210000000  0.4901140000000  0.5034240000000 1.0
C      1  0.5096810000000  0.5164190000000  0.5787790000000 1.0
C      1  0.4513620000000  0.5163910000000  0.5553120000000 1.0
C      1  0.4330700000000  0.5132880000000  0.4902800000000 1.0
C      1  0.4583890000000  0.5184730000000  0.4309610000000 1.0
C      1  0.5277590000000  0.5141220000000  0.4251830000000 1.0
C      1  0.5704970000000  0.5131380000000  0.4694180000000 1.0
C      1  0.5595410000000  0.5141750000000  0.5329850000000 1.0
C      1  0.4760430000000  0.4150280000000  0.4775080000000 1.0
C      1  0.5070150000000  0.4020120000000  0.4721660000000 1.0
C      1  0.4923490000000  0.4243220000000  0.5019020000000 1.0
C      1  0.5428670000000  0.3925140000000  0.5197860000000 1.0
C      1  0.5156100000000  0.3995630000000  0.5388710000000 1.0
C      1  0.4916000000000  0.4049680000000  0.5221470000000 1.0
C      1  0.4632880000000  0.3983550000000  0.5314290000000 1.0
C      1  0.5112340000000  0.4515940000000  0.4032670000000 1.0
C      1  0.5752810000000  0.4487500000000  0.4587390000000 1.0
C      1  0.5900160000000  0.4523650000000  0.5218300000000 1.0
C      1  0.5401100000000  0.4501940000000  0.5856300000000 1.0
C      1  0.4598660000000  0.4441450000000  0.5792640000000 1.0
C      1  0.4011310000000  0.4555620000000  0.5150800000000 1.0
C      1  0.4260160000000  0.4560180000000  0.4352450000000 1.0
C      1  0.4400430000000  0.5597600000000  0.4597430000000 1.0
C      1  0.4907630000000  0.5654280000000  0.4291000000000 1.0
C      1  0.5486050000000  0.5638720000000  0.4499400000000 1.0
C      1  0.5637970000000  0.5555200000000  0.5090420000000 1.0
C      1  0.5297040000000  0.5543490000000  0.5606730000000 1.0
C      1  0.4716770000000  0.5559390000000  0.5686960000000 1.0
C      1  0.4357820000000  0.5573940000000  0.5241500000000 1.0
C      1  0.4400180000000  0.4319770000000  0.5639320000000 1.0
C      1  0.4071430000000  0.4341200000000  0.4924270000000 1.0
C      1  0.4487880000000  0.4365970000000  0.4228570000000 1.0
C      1  0.5302440000000  0.4308890000000  0.4147320000000 1.0
C      1  0.5755750000000  0.4207520000000  0.4782750000000 1.0
C      1  0.5848180000000  0.4342890000000  0.5421370000000 1.0
C      1  0.5224770000000  0.4276020000000  0.5855540000000 1.0
C      1  0.5296070000000  0.4101020000000  0.4962800000000 1.0
C      1  0.5005880000000  0.6303450000000  0.4937100000000 1.0
C      1  0.4975940000000  0.4896620000000  0.4981840000000 1.0
C      1  0.4970080000000  0.4557450000000  0.5005080000000 1.0
C      1  0.4996480000000  0.5233680000000  0.4948730000000 1.0
C      1  0.5000270000000  0.6052100000000  0.4889910000000 1.0
END
