TITL C-3289327-5623-755 -222.388135639665 125000 -757.480215246333 0 0 139 (C1) n - 1
REM
REM in /nfs/bkarasulu/CARBON/AIRSS/Generating-Clusters/AIREBO/with-SteepDescent/Higher-Symm/SD-CG/HFTN-CG
REM
REM
REM
REM
REM
REM ./C.cell (b20cbc046b6831c77cfcea5457e17084)
REM
REM compiler GCC version 9.2.1 20190827 (Red Hat 9.2.1-1)
REM options -cpp -mtune=generic -march=x86-64 -g -O0 -fpre-include=/usr/include/finclude/math-vector-fortran.h
REM seed -1844259455 -109240258 -466624845 85261044 -630605072 -219093989 -1981676608 1701260118 -1375826804 1508764684 -906399094 -336274389 -1180356109 2004163089 -874543086 1579571062 -992604501 -277286777 -1719340635 1019287503 1992524578 -56310821 1308287902 -1198434124 -2062762208 -1690735740 1306745928 -1310277774 -1637354767 -1611079851 -1820311901 728506511 -1521366441
REM
CELL 1.54180   50.00000   50.00000   50.00000   90.00000   90.00000   90.00000
LATT -1
SFAC C  
C      1  0.5693400000000  0.5691980000000  0.5023980000000 1.0
C      1  0.5661780000000  0.4759050000000  0.4400580000000 1.0
C      1  0.5683320000000  0.4651220000000  0.5487420000000 1.0
C      1  0.4399780000000  0.5667570000000  0.4987930000000 1.0
C      1  0.4299050000000  0.4620160000000  0.5600550000000 1.0
C      1  0.4261710000000  0.4581340000000  0.4469360000000 1.0
C      1  0.4690180000000  0.4656340000000  0.5865930000000 1.0
C      1  0.4745060000000  0.6087300000000  0.4760470000000 1.0
C      1  0.4695380000000  0.4403850000000  0.4243660000000 1.0
C      1  0.5239700000000  0.4619440000000  0.4145100000000 1.0
C      1  0.5174590000000  0.6135720000000  0.5272640000000 1.0
C      1  0.5398080000000  0.4479810000000  0.5675390000000 1.0
C      1  0.4832200000000  0.5455890000000  0.5926980000000 1.0
C      1  0.4886670000000  0.5351680000000  0.4055350000000 1.0
C      1  0.4869430000000  0.4088490000000  0.5170390000000 1.0
C      1  0.5192820000000  0.5365850000000  0.4091510000000 1.0
C      1  0.5097730000000  0.5358690000000  0.5906800000000 1.0
C      1  0.5186970000000  0.4037060000000  0.5211880000000 1.0
C      1  0.5064190000000  0.5512570000000  0.4745410000000 1.0
C      1  0.5157390000000  0.4457720000000  0.4673640000000 1.0
C      1  0.5063230000000  0.5022650000000  0.5549500000000 1.0
C      1  0.4780510000000  0.5448690000000  0.5447190000000 1.0
C      1  0.4909340000000  0.4469520000000  0.5312780000000 1.0
C      1  0.4794620000000  0.4983980000000  0.4412090000000 1.0
C      1  0.4696010000000  0.5670500000000  0.5093190000000 1.0
C      1  0.4494870000000  0.4594340000000  0.4244770000000 1.0
C      1  0.4530630000000  0.4502360000000  0.5704790000000 1.0
C      1  0.5360190000000  0.5697130000000  0.4977580000000 1.0
C      1  0.5395530000000  0.4802450000000  0.5568010000000 1.0
C      1  0.5411850000000  0.4537790000000  0.4373290000000 1.0
C      1  0.5167980000000  0.5816150000000  0.4648990000000 1.0
C      1  0.5131700000000  0.4117180000000  0.4451910000000 1.0
C      1  0.5114380000000  0.5077340000000  0.5958050000000 1.0
C      1  0.4833070000000  0.5728250000000  0.5464130000000 1.0
C      1  0.4921400000000  0.4113880000000  0.5495100000000 1.0
C      1  0.4833620000000  0.5035870000000  0.4005890000000 1.0
C      1  0.4772790000000  0.5531530000000  0.3875470000000 1.0
C      1  0.4712120000000  0.3870350000000  0.5090890000000 1.0
C      1  0.4562630000000  0.5566490000000  0.5964340000000 1.0
C      1  0.5261770000000  0.5456030000000  0.5688240000000 1.0
C      1  0.5344810000000  0.4120930000000  0.4989370000000 1.0
C      1  0.5289460000000  0.5541480000000  0.4282840000000 1.0
C      1  0.4665200000000  0.5592580000000  0.4486910000000 1.0
C      1  0.4656200000000  0.4263150000000  0.4740350000000 1.0
C      1  0.4548590000000  0.5028390000000  0.5828490000000 1.0
C      1  0.5346540000000  0.5675470000000  0.5518590000000 1.0
C      1  0.5441920000000  0.4159920000000  0.5374810000000 1.0
C      1  0.5322490000000  0.5114630000000  0.4093350000000 1.0
C      1  0.4275200000000  0.4908740000000  0.5683090000000 1.0
C      1  0.4416700000000  0.5534550000000  0.4683300000000 1.0
C      1  0.4410060000000  0.4461370000000  0.4745170000000 1.0
C      1  0.5506320000000  0.5054550000000  0.4324520000000 1.0
C      1  0.5548850000000  0.5568010000000  0.5305670000000 1.0
C      1  0.5634770000000  0.4373420000000  0.5297500000000 1.0
C      1  0.5778280000000  0.5063150000000  0.4498710000000 1.0
C      1  0.5906650000000  0.4577020000000  0.5252480000000 1.0
C      1  0.5837180000000  0.5430710000000  0.5188860000000 1.0
C      1  0.3995080000000  0.5041410000000  0.5615720000000 1.0
C      1  0.4103310000000  0.4618640000000  0.4767930000000 1.0
C      1  0.4145930000000  0.5481640000000  0.4858330000000 1.0
C      1  0.4151650000000  0.5206310000000  0.5022150000000 1.0
C      1  0.4035930000000  0.4943510000000  0.4855650000000 1.0
C      1  0.3940000000000  0.5096690000000  0.5354620000000 1.0
C      1  0.5859220000000  0.5148360000000  0.5000520000000 1.0
C      1  0.5884080000000  0.4903260000000  0.5235000000000 1.0
C      1  0.5831320000000  0.4899590000000  0.4770370000000 1.0
C      1  0.4497530000000  0.4828360000000  0.5225280000000 1.0
C      1  0.4467150000000  0.5229910000000  0.5152670000000 1.0
C      1  0.4580240000000  0.4935900000000  0.4745360000000 1.0
C      1  0.5571480000000  0.4741930000000  0.4884130000000 1.0
C      1  0.5543200000000  0.5247170000000  0.4922890000000 1.0
C      1  0.5559940000000  0.4919190000000  0.5150020000000 1.0
C      1  0.5110270000000  0.5829370000000  0.5403620000000 1.0
C      1  0.5130340000000  0.4898920000000  0.4015250000000 1.0
C      1  0.5184240000000  0.4248760000000  0.5550520000000 1.0
C      1  0.4840740000000  0.5806550000000  0.4594260000000 1.0
C      1  0.4823520000000  0.4931500000000  0.6000360000000 1.0
C      1  0.4856790000000  0.4208400000000  0.4551830000000 1.0
C      1  0.4297780000000  0.4859500000000  0.3996760000000 1.0
C      1  0.4391020000000  0.4270660000000  0.5335730000000 1.0
C      1  0.4331520000000  0.5893600000000  0.5364600000000 1.0
C      1  0.5608280000000  0.4901780000000  0.5931400000000 1.0
C      1  0.5668850000000  0.4234820000000  0.4329550000000 1.0
C      1  0.5724830000000  0.5864000000000  0.4664560000000 1.0
C      1  0.5326680000000  0.4432420000000  0.4947140000000 1.0
C      1  0.5269670000000  0.5251020000000  0.5496250000000 1.0
C      1  0.5287420000000  0.5453330000000  0.4535490000000 1.0
C      1  0.4781220000000  0.4379210000000  0.5016990000000 1.0
C      1  0.4733160000000  0.5299520000000  0.4328390000000 1.0
C      1  0.4657820000000  0.5294720000000  0.5688340000000 1.0
C      1  0.5143370000000  0.5875190000000  0.5078170000000 1.0
C      1  0.4960810000000  0.4761570000000  0.4264260000000 1.0
C      1  0.5081350000000  0.4557450000000  0.5592600000000 1.0
C      1  0.4884760000000  0.5839970000000  0.4930360000000 1.0
C      1  0.4966810000000  0.4786210000000  0.5728290000000 1.0
C      1  0.4972380000000  0.4480740000000  0.4406510000000 1.0
C      1  0.4787080000000  0.5345000000000  0.5131930000000 1.0
C      1  0.4906160000000  0.4905270000000  0.4723560000000 1.0
C      1  0.4801990000000  0.4789000000000  0.5267620000000 1.0
C      1  0.5257020000000  0.5388360000000  0.4980920000000 1.0
C      1  0.5247390000000  0.4916760000000  0.5283900000000 1.0
C      1  0.5367830000000  0.4707770000000  0.4663110000000 1.0
C      1  0.4758560000000  0.5037830000000  0.5489590000000 1.0
C      1  0.4807530000000  0.5364370000000  0.4797710000000 1.0
C      1  0.4895520000000  0.4577500000000  0.4786840000000 1.0
C      1  0.5215110000000  0.4956860000000  0.4632230000000 1.0
C      1  0.5087460000000  0.5184150000000  0.5146770000000 1.0
C      1  0.5185380000000  0.4603790000000  0.5166470000000 1.0
C      1  0.4174960000000  0.5650040000000  0.5237380000000 1.0
C      1  0.4201840000000  0.4859100000000  0.4301370000000 1.0
C      1  0.4228630000000  0.4497600000000  0.5354520000000 1.0
C      1  0.5893230000000  0.5614860000000  0.4766610000000 1.0
C      1  0.5769520000000  0.4894450000000  0.5675370000000 1.0
C      1  0.5831690000000  0.4472490000000  0.4449010000000 1.0
C      1  0.5825170000000  0.5319930000000  0.4637630000000 1.0
C      1  0.5871760000000  0.4387530000000  0.4776050000000 1.0
C      1  0.5733200000000  0.5173280000000  0.5487140000000 1.0
C      1  0.4247940000000  0.5359110000000  0.5378230000000 1.0
C      1  0.4162600000000  0.4654820000000  0.5100870000000 1.0
C      1  0.4294180000000  0.5137370000000  0.4449450000000 1.0
C      1  0.5654560000000  0.4444480000000  0.4974970000000 1.0
C      1  0.5497740000000  0.5234940000000  0.5259930000000 1.0
C      1  0.5414950000000  0.5195680000000  0.4620320000000 1.0
C      1  0.4442300000000  0.4744950000000  0.4929680000000 1.0
C      1  0.4554110000000  0.5231790000000  0.4613850000000 1.0
C      1  0.4424960000000  0.5072350000000  0.5451070000000 1.0
C      1  0.6030850000000  0.5029420000000  0.5502720000000 1.0
C      1  0.6085190000000  0.5348620000000  0.4844030000000 1.0
C      1  0.6002670000000  0.4664240000000  0.4671720000000 1.0
C      1  0.4028510000000  0.4998400000000  0.4556030000000 1.0
C      1  0.3950800000000  0.5393930000000  0.5222450000000 1.0
C      1  0.3952830000000  0.4892630000000  0.5170070000000 1.0
C      1  0.4667690000000  0.4316860000000  0.5497000000000 1.0
C      1  0.4599470000000  0.5865180000000  0.5348780000000 1.0
C      1  0.4595170000000  0.4880890000000  0.4157070000000 1.0
C      1  0.5387880000000  0.4222100000000  0.4406300000000 1.0
C      1  0.5459950000000  0.5838400000000  0.4693200000000 1.0
C      1  0.5327720000000  0.4917570000000  0.5881330000000 1.0
C      1  0.4931890000000  0.4939460000000  0.5040750000000 1.0
END
