TITL C-3289331-6719-506 -2.65300005795709e-05 125000 -424.502339952581 0 0 78 (C1) n - 1
REM
REM in /nfs/bkarasulu/CARBON/AIRSS/Generating-Clusters/AIREBO/with-SteepDescent/Higher-Symm/SD-CG/HFTN-CG
REM
REM
REM
REM
REM
REM ./C.cell (b20cbc046b6831c77cfcea5457e17084)
REM
REM compiler GCC version 9.2.1 20190827 (Red Hat 9.2.1-1)
REM options -cpp -mtune=generic -march=x86-64 -g -O0 -fpre-include=/usr/include/finclude/math-vector-fortran.h
REM seed 1591540134 -17747296 1026591177 -655343553 500437930 -1106568621 -2020923939 121380599 72054078 764064293 20133829 -2009365142 -55533580 -1737567347 -98145254 1388607458 1020291744 952700474 -1124642211 -2061691040 -614215206 -323084072 -1788108400 -1524948070 -1629756642 1181794307 -2108352508 -826794737 -271046429 543393094 236081313 1384077452 -771818873
REM
CELL 1.54180   50.00000   50.00000   50.00000   90.00000   90.00000   90.00000
LATT -1
SFAC C  
C      1  0.5042000000000  0.4666160000000  0.5252440000000 1.0
C      1  0.4749500000000  0.4728430000000  0.5090320000000 1.0
C      1  0.4840190000000  0.4693090000000  0.4784790000000 1.0
C      1  0.5157220000000  0.4681480000000  0.4816330000000 1.0
C      1  0.5329760000000  0.4761280000000  0.5098320000000 1.0
C      1  0.5005830000000  0.5253070000000  0.5246700000000 1.0
C      1  0.5379940000000  0.5300830000000  0.5114510000000 1.0
C      1  0.5088440000000  0.5078050000000  0.4758700000000 1.0
C      1  0.4842470000000  0.5245700000000  0.4757540000000 1.0
C      1  0.4745090000000  0.5271100000000  0.5061410000000 1.0
C      1  0.5663590000000  0.4789950000000  0.4880320000000 1.0
C      1  0.5145870000000  0.4651870000000  0.5827780000000 1.0
C      1  0.4532120000000  0.4637440000000  0.5411150000000 1.0
C      1  0.4342680000000  0.4673050000000  0.4613890000000 1.0
C      1  0.5196300000000  0.4661670000000  0.4268200000000 1.0
C      1  0.4278220000000  0.5405980000000  0.5041130000000 1.0
C      1  0.4724800000000  0.5352440000000  0.5832810000000 1.0
C      1  0.5552850000000  0.5375030000000  0.5555770000000 1.0
C      1  0.5555300000000  0.5375460000000  0.4519400000000 1.0
C      1  0.4777770000000  0.5364920000000  0.4295590000000 1.0
C      1  0.4548570000000  0.4519090000000  0.4818370000000 1.0
C      1  0.5075050000000  0.4378250000000  0.4710420000000 1.0
C      1  0.5499640000000  0.4513980000000  0.4937340000000 1.0
C      1  0.5209810000000  0.4372360000000  0.5286160000000 1.0
C      1  0.4761890000000  0.4397060000000  0.5166600000000 1.0
C      1  0.5475710000000  0.5606820000000  0.4723820000000 1.0
C      1  0.4906900000000  0.5505450000000  0.4582140000000 1.0
C      1  0.4741160000000  0.5587740000000  0.4936680000000 1.0
C      1  0.4858480000000  0.5552270000000  0.5315050000000 1.0
C      1  0.5243840000000  0.5593360000000  0.5224610000000 1.0
C      1  0.5289000000000  0.5323720000000  0.4373730000000 1.0
C      1  0.5696730000000  0.5460620000000  0.5291110000000 1.0
C      1  0.4960660000000  0.5439290000000  0.5691000000000 1.0
C      1  0.4303810000000  0.5436070000000  0.5366160000000 1.0
C      1  0.4531620000000  0.5413870000000  0.4486520000000 1.0
C      1  0.4640340000000  0.4627230000000  0.4446880000000 1.0
C      1  0.4204310000000  0.4649540000000  0.5236180000000 1.0
C      1  0.4970180000000  0.4496870000000  0.5680000000000 1.0
C      1  0.5632030000000  0.4530370000000  0.5391040000000 1.0
C      1  0.5440890000000  0.4561290000000  0.4415970000000 1.0
C      1  0.5675890000000  0.5123430000000  0.4556230000000 1.0
C      1  0.5488470000000  0.5062410000000  0.5568040000000 1.0
C      1  0.4645340000000  0.5091470000000  0.5775710000000 1.0
C      1  0.4262970000000  0.5158940000000  0.4916500000000 1.0
C      1  0.4804960000000  0.5090700000000  0.4220260000000 1.0
C      1  0.4262020000000  0.4943700000000  0.4660600000000 1.0
C      1  0.4528350000000  0.4965800000000  0.5505230000000 1.0
C      1  0.5232080000000  0.4956950000000  0.5705690000000 1.0
C      1  0.5751200000000  0.5054690000000  0.4814300000000 1.0
C      1  0.5052720000000  0.4939060000000  0.4140540000000 1.0
C      1  0.5472330000000  0.4386550000000  0.5216360000000 1.0
C      1  0.4943010000000  0.4320890000000  0.5424670000000 1.0
C      1  0.4446440000000  0.4470200000000  0.5127600000000 1.0
C      1  0.4752690000000  0.4348580000000  0.4606440000000 1.0
C      1  0.5392370000000  0.4404360000000  0.4655720000000 1.0
C      1  0.4539860000000  0.5586190000000  0.5192200000000 1.0
C      1  0.5102420000000  0.5657940000000  0.5527010000000 1.0
C      1  0.5518220000000  0.5590860000000  0.5026660000000 1.0
C      1  0.5201350000000  0.5550370000000  0.4559500000000 1.0
C      1  0.4611120000000  0.5654250000000  0.4659530000000 1.0
C      1  0.5171000000000  0.5015980000000  0.4449950000000 1.0
C      1  0.5704330000000  0.5238500000000  0.5033780000000 1.0
C      1  0.5052130000000  0.5190080000000  0.5539760000000 1.0
C      1  0.4524770000000  0.5195550000000  0.5271590000000 1.0
C      1  0.4554360000000  0.5117100000000  0.4650910000000 1.0
C      1  0.4957960000000  0.4745610000000  0.4477180000000 1.0
C      1  0.4529680000000  0.4951610000000  0.4956020000000 1.0
C      1  0.4823500000000  0.4697100000000  0.5481260000000 1.0
C      1  0.5558260000000  0.4828850000000  0.5341760000000 1.0
C      1  0.5406220000000  0.4827380000000  0.4712410000000 1.0
C      1  0.4894860000000  0.4929570000000  0.5660130000000 1.0
C      1  0.4330810000000  0.4923580000000  0.5230380000000 1.0
C      1  0.5486580000000  0.4894340000000  0.4414940000000 1.0
C      1  0.5732450000000  0.5106000000000  0.5327730000000 1.0
C      1  0.4627530000000  0.4944030000000  0.4381790000000 1.0
C      1  0.4997100000000  0.5742200000000  0.5062610000000 1.0
C      1  0.4850210000000  0.4245580000000  0.4916320000000 1.0
C      1  0.5203160000000  0.5071010000000  0.5038000000000 1.0
END
