TITL C-3289328-6581-147 -0.00265726392664781 125000 -752.170896141463 0 0 136 (C1) n - 1
REM
REM in /nfs/bkarasulu/CARBON/AIRSS/Generating-Clusters/AIREBO/with-SteepDescent/Higher-Symm/SD-CG/HFTN-CG
REM
REM
REM
REM
REM
REM ./C.cell (b20cbc046b6831c77cfcea5457e17084)
REM
REM compiler GCC version 9.2.1 20190827 (Red Hat 9.2.1-1)
REM options -cpp -mtune=generic -march=x86-64 -g -O0 -fpre-include=/usr/include/finclude/math-vector-fortran.h
REM seed 1707551366 1129171347 -1308659214 -789536572 -642757991 -1172863920 -1550882190 -1666606992 2027832937 -1970993209 237815949 445714361 350607171 -832520484 -1077720449 473273846 -1182620277 -346261281 -665718981 -1251433517 218493172 -524158704 341217568 -1188348368 -758774694 -1752191477 -264217031 -383530387 -291144989 -203017738 820474789 2096879040 -163651447
REM
CELL 1.54180   50.00000   50.00000   50.00000   90.00000   90.00000   90.00000
LATT -1
SFAC C  
C      1  0.5162520000000  0.5404490000000  0.5449980000000 1.0
C      1  0.5346530000000  0.4514280000000  0.5670850000000 1.0
C      1  0.4161420000000  0.4656920000000  0.4646020000000 1.0
C      1  0.5691590000000  0.5081230000000  0.5435320000000 1.0
C      1  0.5579430000000  0.4669360000000  0.5814090000000 1.0
C      1  0.5115970000000  0.5051610000000  0.6017790000000 1.0
C      1  0.5508460000000  0.4591370000000  0.4876440000000 1.0
C      1  0.5647310000000  0.5465390000000  0.4942450000000 1.0
C      1  0.5715460000000  0.5324890000000  0.4467390000000 1.0
C      1  0.4935600000000  0.5838830000000  0.5251420000000 1.0
C      1  0.5291920000000  0.4675120000000  0.4202930000000 1.0
C      1  0.4555420000000  0.5116780000000  0.4106820000000 1.0
C      1  0.4924850000000  0.4834750000000  0.5840370000000 1.0
C      1  0.4982740000000  0.4873920000000  0.5183010000000 1.0
C      1  0.4565370000000  0.4394790000000  0.4277970000000 1.0
C      1  0.4281250000000  0.5201690000000  0.5489830000000 1.0
C      1  0.5020450000000  0.4729820000000  0.4875200000000 1.0
C      1  0.5496850000000  0.5495710000000  0.4498600000000 1.0
C      1  0.4784930000000  0.5558780000000  0.4055770000000 1.0
C      1  0.5424650000000  0.4612600000000  0.5356670000000 1.0
C      1  0.5717300000000  0.4398650000000  0.5063130000000 1.0
C      1  0.5556880000000  0.4221710000000  0.5266860000000 1.0
C      1  0.5854080000000  0.5165190000000  0.5167440000000 1.0
C      1  0.4860210000000  0.5005680000000  0.4048400000000 1.0
C      1  0.5080520000000  0.4139080000000  0.5441560000000 1.0
C      1  0.4653220000000  0.4527720000000  0.4539020000000 1.0
C      1  0.5158860000000  0.5691750000000  0.5096360000000 1.0
C      1  0.5663970000000  0.5317350000000  0.5756970000000 1.0
C      1  0.5245790000000  0.5414160000000  0.4713020000000 1.0
C      1  0.4931850000000  0.5319600000000  0.4056880000000 1.0
C      1  0.4617110000000  0.5790280000000  0.4770890000000 1.0
C      1  0.4507400000000  0.5645850000000  0.5038810000000 1.0
C      1  0.5937080000000  0.4984760000000  0.5649970000000 1.0
C      1  0.4742580000000  0.4104460000000  0.5458120000000 1.0
C      1  0.4593670000000  0.4938680000000  0.4662240000000 1.0
C      1  0.4033970000000  0.5000780000000  0.5504510000000 1.0
C      1  0.5142400000000  0.4883540000000  0.3969660000000 1.0
C      1  0.4838130000000  0.4788400000000  0.4479720000000 1.0
C      1  0.5072220000000  0.4558490000000  0.5801170000000 1.0
C      1  0.5367250000000  0.5600670000000  0.5524680000000 1.0
C      1  0.4846870000000  0.4016710000000  0.4892090000000 1.0
C      1  0.5003370000000  0.5266250000000  0.4828920000000 1.0
C      1  0.4474160000000  0.4242260000000  0.5303470000000 1.0
C      1  0.4460910000000  0.5416480000000  0.4239690000000 1.0
C      1  0.4244180000000  0.5261700000000  0.4977690000000 1.0
C      1  0.4393950000000  0.5385560000000  0.4706240000000 1.0
C      1  0.4251390000000  0.5418470000000  0.5250370000000 1.0
C      1  0.4577250000000  0.4470110000000  0.4865420000000 1.0
C      1  0.4835870000000  0.5595960000000  0.4676800000000 1.0
C      1  0.5309810000000  0.5073770000000  0.4196500000000 1.0
C      1  0.4500380000000  0.4524470000000  0.5166590000000 1.0
C      1  0.4630090000000  0.4719090000000  0.5413800000000 1.0
C      1  0.4992510000000  0.6012510000000  0.4833770000000 1.0
C      1  0.5543960000000  0.4588350000000  0.4322480000000 1.0
C      1  0.4893150000000  0.4372220000000  0.5706370000000 1.0
C      1  0.4632020000000  0.4978990000000  0.5938150000000 1.0
C      1  0.5007590000000  0.4422290000000  0.5153190000000 1.0
C      1  0.4560090000000  0.5051560000000  0.5428870000000 1.0
C      1  0.5321140000000  0.4415730000000  0.5099340000000 1.0
C      1  0.5762850000000  0.5478740000000  0.5262110000000 1.0
C      1  0.4133430000000  0.4735890000000  0.5386400000000 1.0
C      1  0.5067950000000  0.5367360000000  0.5143400000000 1.0
C      1  0.4193560000000  0.5152740000000  0.4599920000000 1.0
C      1  0.5731760000000  0.4815380000000  0.4359120000000 1.0
C      1  0.5506190000000  0.5229440000000  0.4794590000000 1.0
C      1  0.4382860000000  0.4844230000000  0.4198320000000 1.0
C      1  0.4351230000000  0.4654520000000  0.5597320000000 1.0
C      1  0.5241450000000  0.5074570000000  0.5137680000000 1.0
C      1  0.4605400000000  0.5188500000000  0.4431900000000 1.0
C      1  0.5385510000000  0.5059000000000  0.6027610000000 1.0
C      1  0.4407880000000  0.4972910000000  0.4948670000000 1.0
C      1  0.4916590000000  0.5733710000000  0.5552620000000 1.0
C      1  0.5431500000000  0.5818810000000  0.5198380000000 1.0
C      1  0.4855600000000  0.4126000000000  0.5147300000000 1.0
C      1  0.5964060000000  0.5387380000000  0.4932020000000 1.0
C      1  0.5193010000000  0.5745360000000  0.4769820000000 1.0
C      1  0.4878920000000  0.4459000000000  0.4216180000000 1.0
C      1  0.5229740000000  0.4962440000000  0.5620030000000 1.0
C      1  0.5626410000000  0.5099790000000  0.4249730000000 1.0
C      1  0.4708270000000  0.4755390000000  0.4183030000000 1.0
C      1  0.4812260000000  0.4432290000000  0.5400770000000 1.0
C      1  0.4432850000000  0.5570360000000  0.5471120000000 1.0
C      1  0.4601190000000  0.5818370000000  0.5306420000000 1.0
C      1  0.4019810000000  0.5056520000000  0.4836970000000 1.0
C      1  0.5547740000000  0.4998530000000  0.5734990000000 1.0
C      1  0.5530310000000  0.5740310000000  0.4812540000000 1.0
C      1  0.5965870000000  0.4976650000000  0.4728010000000 1.0
C      1  0.5514940000000  0.4452440000000  0.4600470000000 1.0
C      1  0.4300740000000  0.4428160000000  0.4692610000000 1.0
C      1  0.4481640000000  0.5635430000000  0.4499120000000 1.0
C      1  0.5417320000000  0.4930930000000  0.5363770000000 1.0
C      1  0.4751770000000  0.5684320000000  0.4298400000000 1.0
C      1  0.5465620000000  0.4129990000000  0.4652520000000 1.0
C      1  0.4581110000000  0.5393560000000  0.5995430000000 1.0
C      1  0.4753950000000  0.5208880000000  0.5634960000000 1.0
C      1  0.4882630000000  0.4456840000000  0.4857340000000 1.0
C      1  0.4063700000000  0.4781880000000  0.4877640000000 1.0
C      1  0.4193750000000  0.5651000000000  0.5041120000000 1.0
C      1  0.5075660000000  0.4552410000000  0.3978080000000 1.0
C      1  0.5043980000000  0.5709930000000  0.4466120000000 1.0
C      1  0.5811640000000  0.4909300000000  0.4987130000000 1.0
C      1  0.5875410000000  0.4651320000000  0.5131460000000 1.0
C      1  0.5260440000000  0.5544290000000  0.4333140000000 1.0
C      1  0.4257590000000  0.4096690000000  0.5273060000000 1.0
C      1  0.4930760000000  0.4852610000000  0.5500540000000 1.0
C      1  0.5332560000000  0.4244370000000  0.5480060000000 1.0
C      1  0.5678400000000  0.5783670000000  0.5180810000000 1.0
C      1  0.5986990000000  0.4807420000000  0.4517890000000 1.0
C      1  0.5333710000000  0.4258070000000  0.4386860000000 1.0
C      1  0.5510420000000  0.4992490000000  0.4550780000000 1.0
C      1  0.4612600000000  0.5148320000000  0.5140550000000 1.0
C      1  0.4813930000000  0.4997100000000  0.4914660000000 1.0
C      1  0.5062490000000  0.5211750000000  0.5616370000000 1.0
C      1  0.5256460000000  0.4177680000000  0.4864490000000 1.0
C      1  0.5238370000000  0.4859940000000  0.4705800000000 1.0
C      1  0.4361070000000  0.5396190000000  0.5754200000000 1.0
C      1  0.4256800000000  0.4728020000000  0.5114770000000 1.0
C      1  0.5921210000000  0.5257080000000  0.4660500000000 1.0
C      1  0.5135880000000  0.4872680000000  0.4410890000000 1.0
C      1  0.5153550000000  0.5726900000000  0.5685950000000 1.0
C      1  0.4980920000000  0.4217770000000  0.4681250000000 1.0
C      1  0.4385980000000  0.5073570000000  0.5857310000000 1.0
C      1  0.4857940000000  0.5210540000000  0.5958680000000 1.0
C      1  0.4308070000000  0.4873650000000  0.4489480000000 1.0
C      1  0.4735010000000  0.5430910000000  0.5173270000000 1.0
C      1  0.5474910000000  0.4923570000000  0.4941620000000 1.0
C      1  0.4381950000000  0.4531130000000  0.4127970000000 1.0
C      1  0.5184320000000  0.5343850000000  0.4165940000000 1.0
C      1  0.4739020000000  0.5969030000000  0.5020890000000 1.0
C      1  0.5620610000000  0.5484320000000  0.5547770000000 1.0
C      1  0.5813550000000  0.4715290000000  0.5639900000000 1.0
C      1  0.4720080000000  0.5316580000000  0.4693750000000 1.0
C      1  0.4216500000000  0.4893460000000  0.5740930000000 1.0
C      1  0.4738970000000  0.5492280000000  0.5492520000000 1.0
C      1  0.5742800000000  0.4630310000000  0.5386610000000 1.0
C      1  0.5052240000000  0.4286320000000  0.4399630000000 1.0
END
