TITL C-3289334-2237-35 -134.723787226313 125000 -613.828837620481 0 0 113 (C1) n - 1
REM
REM in /nfs/bkarasulu/CARBON/AIRSS/Generating-Clusters/AIREBO/with-SteepDescent/Higher-Symm/SD-CG/HFTN-CG
REM
REM
REM
REM
REM
REM ./C.cell (b20cbc046b6831c77cfcea5457e17084)
REM
REM compiler GCC version 9.2.1 20190827 (Red Hat 9.2.1-1)
REM options -cpp -mtune=generic -march=x86-64 -g -O0 -fpre-include=/usr/include/finclude/math-vector-fortran.h
REM seed 251315750 1384840833 -1252177987 -1101046337 -315308252 -1583895308 -280411123 895083847 1791503534 -1923933723 -1407092619 -656047044 -409742041 2086840286 -82799223 1101769047 928679524 -1437632117 951826498 1206202159 146507550 -1928831720 -1331553601 1205903403 1010330276 940397525 -1735258240 1258160099 -90232900 1311511359 -416982031 -1643327741 -1087219940
REM
CELL 1.54180   50.00000   50.00000   50.00000   90.00000   90.00000   90.00000
LATT -1
SFAC C  
C      1  0.5527830000000  0.4861930000000  0.5594310000000 1.0
C      1  0.5764630000000  0.4834150000000  0.4665170000000 1.0
C      1  0.4955770000000  0.4862450000000  0.4166920000000 1.0
C      1  0.4202890000000  0.4812120000000  0.4804810000000 1.0
C      1  0.4582700000000  0.4796890000000  0.5733260000000 1.0
C      1  0.5541360000000  0.5201700000000  0.5607520000000 1.0
C      1  0.5749920000000  0.5164210000000  0.4666800000000 1.0
C      1  0.4922420000000  0.5201620000000  0.4143490000000 1.0
C      1  0.4201020000000  0.5148910000000  0.4831580000000 1.0
C      1  0.4664240000000  0.5125440000000  0.5767730000000 1.0
C      1  0.4344680000000  0.5383250000000  0.5492670000000 1.0
C      1  0.5296510000000  0.5346800000000  0.5773160000000 1.0
C      1  0.5825140000000  0.5337530000000  0.4949810000000 1.0
C      1  0.5206280000000  0.5355630000000  0.4251720000000 1.0
C      1  0.4341530000000  0.5295230000000  0.4570140000000 1.0
C      1  0.4372840000000  0.4668850000000  0.5517480000000 1.0
C      1  0.5290950000000  0.4664790000000  0.5738870000000 1.0
C      1  0.5791150000000  0.4681070000000  0.4967770000000 1.0
C      1  0.5226560000000  0.4663330000000  0.4224200000000 1.0
C      1  0.4323170000000  0.4662620000000  0.4540030000000 1.0
C      1  0.5397020000000  0.4896350000000  0.4998200000000 1.0
C      1  0.5149540000000  0.4858940000000  0.4558730000000 1.0
C      1  0.4616740000000  0.4871130000000  0.4712600000000 1.0
C      1  0.4634820000000  0.4874810000000  0.5297230000000 1.0
C      1  0.5146520000000  0.4877230000000  0.5434080000000 1.0
C      1  0.5401480000000  0.5195960000000  0.5023860000000 1.0
C      1  0.5130090000000  0.5147990000000  0.4611500000000 1.0
C      1  0.4640360000000  0.5161770000000  0.4608260000000 1.0
C      1  0.4615490000000  0.5187610000000  0.5217560000000 1.0
C      1  0.5085310000000  0.5176370000000  0.5470460000000 1.0
C      1  0.4735710000000  0.4374980000000  0.4351150000000 1.0
C      1  0.4297560000000  0.4374330000000  0.5074320000000 1.0
C      1  0.4850390000000  0.4353830000000  0.5675230000000 1.0
C      1  0.5585790000000  0.4377460000000  0.5361860000000 1.0
C      1  0.5506890000000  0.4313030000000  0.4745320000000 1.0
C      1  0.4811410000000  0.5668740000000  0.4355680000000 1.0
C      1  0.4267230000000  0.5654290000000  0.4958590000000 1.0
C      1  0.4772870000000  0.5562980000000  0.5604400000000 1.0
C      1  0.5615910000000  0.5679050000000  0.5378920000000 1.0
C      1  0.5534590000000  0.5643970000000  0.4584320000000 1.0
C      1  0.4823730000000  0.4550170000000  0.4135670000000 1.0
C      1  0.4097670000000  0.4548470000000  0.4971110000000 1.0
C      1  0.4689570000000  0.4509370000000  0.5852730000000 1.0
C      1  0.5662100000000  0.4552810000000  0.5573650000000 1.0
C      1  0.5741540000000  0.4502310000000  0.4615370000000 1.0
C      1  0.4877140000000  0.5538080000000  0.4122880000000 1.0
C      1  0.4095600000000  0.5467900000000  0.4856070000000 1.0
C      1  0.4543270000000  0.5372160000000  0.5689850000000 1.0
C      1  0.5688780000000  0.5506880000000  0.5579820000000 1.0
C      1  0.5763070000000  0.5475820000000  0.4535780000000 1.0
C      1  0.4716100000000  0.4226470000000  0.5450040000000 1.0
C      1  0.5346690000000  0.4219490000000  0.5397140000000 1.0
C      1  0.5560720000000  0.4015060000000  0.4716570000000 1.0
C      1  0.4941460000000  0.4213720000000  0.4474360000000 1.0
C      1  0.4466140000000  0.4240430000000  0.4884630000000 1.0
C      1  0.4691340000000  0.5792010000000  0.5398730000000 1.0
C      1  0.5386860000000  0.5830860000000  0.5408330000000 1.0
C      1  0.5530150000000  0.5762920000000  0.4844910000000 1.0
C      1  0.4976870000000  0.5803390000000  0.4526420000000 1.0
C      1  0.4456270000000  0.5778120000000  0.4803540000000 1.0
C      1  0.4698190000000  0.4408830000000  0.5163250000000 1.0
C      1  0.5061700000000  0.4379830000000  0.5324470000000 1.0
C      1  0.5328890000000  0.4385510000000  0.5026400000000 1.0
C      1  0.5124580000000  0.4375740000000  0.4679340000000 1.0
C      1  0.4736510000000  0.4393430000000  0.4766060000000 1.0
C      1  0.4703840000000  0.5692890000000  0.5110990000000 1.0
C      1  0.5098290000000  0.5681690000000  0.5380890000000 1.0
C      1  0.5355520000000  0.5593540000000  0.5088230000000 1.0
C      1  0.5155560000000  0.5614530000000  0.4745590000000 1.0
C      1  0.4743540000000  0.5603370000000  0.4785350000000 1.0
C      1  0.5476350000000  0.4780680000000  0.4506160000000 1.0
C      1  0.4738710000000  0.4837410000000  0.4396200000000 1.0
C      1  0.4373070000000  0.4813470000000  0.5085660000000 1.0
C      1  0.4915290000000  0.4779690000000  0.5664750000000 1.0
C      1  0.5573020000000  0.4805520000000  0.5277730000000 1.0
C      1  0.5454650000000  0.5223040000000  0.4534330000000 1.0
C      1  0.4629070000000  0.5276200000000  0.4293200000000 1.0
C      1  0.4317810000000  0.5260580000000  0.5115240000000 1.0
C      1  0.4942750000000  0.5167110000000  0.5755760000000 1.0
C      1  0.5618280000000  0.5254850000000  0.5280430000000 1.0
C      1  0.5281790000000  0.4679590000000  0.5192510000000 1.0
C      1  0.5227000000000  0.4676860000000  0.4801080000000 1.0
C      1  0.4874090000000  0.4683450000000  0.4653750000000 1.0
C      1  0.4686710000000  0.4710450000000  0.5004150000000 1.0
C      1  0.4913310000000  0.4685300000000  0.5345850000000 1.0
C      1  0.5296090000000  0.5327530000000  0.5292030000000 1.0
C      1  0.5299800000000  0.5333380000000  0.4789630000000 1.0
C      1  0.4877280000000  0.5298360000000  0.4731170000000 1.0
C      1  0.4848200000000  0.5320080000000  0.5046660000000 1.0
C      1  0.4907960000000  0.5403410000000  0.5336280000000 1.0
C      1  0.4428060000000  0.4845800000000  0.4361010000000 1.0
C      1  0.4242780000000  0.4871260000000  0.5370640000000 1.0
C      1  0.5128960000000  0.4848560000000  0.5907640000000 1.0
C      1  0.5868750000000  0.4875160000000  0.5173690000000 1.0
C      1  0.5455010000000  0.4886230000000  0.4192940000000 1.0
C      1  0.4347100000000  0.5106580000000  0.4300390000000 1.0
C      1  0.4192060000000  0.5141840000000  0.5399470000000 1.0
C      1  0.5172290000000  0.5137090000000  0.5966970000000 1.0
C      1  0.5892060000000  0.5148760000000  0.5173590000000 1.0
C      1  0.5431720000000  0.5161950000000  0.4222090000000 1.0
C      1  0.5654420000000  0.4466610000000  0.5081840000000 1.0
C      1  0.5365390000000  0.4482180000000  0.4482260000000 1.0
C      1  0.4493200000000  0.4438920000000  0.4536190000000 1.0
C      1  0.4412580000000  0.4443770000000  0.5344510000000 1.0
C      1  0.5137050000000  0.4447630000000  0.5649020000000 1.0
C      1  0.5695260000000  0.5597440000000  0.5074870000000 1.0
C      1  0.5279410000000  0.5566880000000  0.4432400000000 1.0
C      1  0.4563600000000  0.5539970000000  0.4503880000000 1.0
C      1  0.4409230000000  0.5567690000000  0.5226340000000 1.0
C      1  0.5100420000000  0.5544660000000  0.5693870000000 1.0
C      1  0.5032420000000  0.5691350000000  0.5047290000000 1.0
C      1  0.4990490000000  0.4378670000000  0.4991870000000 1.0
C      1  0.4861920000000  0.5001790000000  0.4997510000000 1.0
END
