TITL C-3289330-4660-364 0.000143847753239915 125000 -443.151636583344 0 0 81 (C1) n - 1
REM
REM in /nfs/bkarasulu/CARBON/AIRSS/Generating-Clusters/AIREBO/with-SteepDescent/Higher-Symm/SD-CG/HFTN-CG
REM
REM
REM
REM
REM
REM ./C.cell (b20cbc046b6831c77cfcea5457e17084)
REM
REM compiler GCC version 9.2.1 20190827 (Red Hat 9.2.1-1)
REM options -cpp -mtune=generic -march=x86-64 -g -O0 -fpre-include=/usr/include/finclude/math-vector-fortran.h
REM seed -88917332 -729808422 1270747487 -106289767 437214416 1963976356 -622280352 1138762932 -793508354 6182229 488504581 -1957147140 -991528320 1785234164 -2067187114 -505787713 -806807999 -1768828491 -911385666 1420232265 1219953400 -1767171295 -696519575 -919570509 -1066314034 -1977533889 1124951001 -1163286311 -2133310073 -211999338 -480890073 -1012148921 -1767101440
REM
CELL 1.54180   50.00000   50.00000   50.00000   90.00000   90.00000   90.00000
LATT -1
SFAC C  
C      1  0.5523200000000  0.4667700000000  0.5478340000000 1.0
C      1  0.5499370000000  0.5305270000000  0.4484580000000 1.0
C      1  0.4501580000000  0.4635440000000  0.5510600000000 1.0
C      1  0.4470780000000  0.5557520000000  0.4538270000000 1.0
C      1  0.5408010000000  0.5187360000000  0.4996140000000 1.0
C      1  0.5513930000000  0.4906060000000  0.5058850000000 1.0
C      1  0.4491920000000  0.5128410000000  0.4942320000000 1.0
C      1  0.4620430000000  0.4865060000000  0.4995660000000 1.0
C      1  0.4892090000000  0.5669140000000  0.5016560000000 1.0
C      1  0.4852340000000  0.4335830000000  0.5003150000000 1.0
C      1  0.5201920000000  0.5672340000000  0.4981620000000 1.0
C      1  0.5153960000000  0.4347530000000  0.5011780000000 1.0
C      1  0.4664600000000  0.4954590000000  0.4384400000000 1.0
C      1  0.4558200000000  0.4961280000000  0.5565780000000 1.0
C      1  0.5397580000000  0.4981540000000  0.4452280000000 1.0
C      1  0.5450450000000  0.4997480000000  0.5517820000000 1.0
C      1  0.5368950000000  0.5279310000000  0.5382760000000 1.0
C      1  0.5330110000000  0.4707710000000  0.4620030000000 1.0
C      1  0.4636880000000  0.5232630000000  0.5428600000000 1.0
C      1  0.4707630000000  0.4674260000000  0.4548840000000 1.0
C      1  0.5327500000000  0.4518860000000  0.5237640000000 1.0
C      1  0.5337230000000  0.5481120000000  0.4734140000000 1.0
C      1  0.4686440000000  0.4498980000000  0.5251800000000 1.0
C      1  0.4701510000000  0.5537960000000  0.4793670000000 1.0
C      1  0.5163330000000  0.5722890000000  0.5300240000000 1.0
C      1  0.5117860000000  0.4266490000000  0.4714160000000 1.0
C      1  0.4822600000000  0.5704360000000  0.5313840000000 1.0
C      1  0.4784760000000  0.4223340000000  0.4719280000000 1.0
C      1  0.4814530000000  0.5183160000000  0.4493930000000 1.0
C      1  0.4854820000000  0.4808270000000  0.5554570000000 1.0
C      1  0.5126470000000  0.5174490000000  0.4459940000000 1.0
C      1  0.5160200000000  0.4820160000000  0.5514360000000 1.0
C      1  0.4239250000000  0.4790960000000  0.4645290000000 1.0
C      1  0.4165710000000  0.5222900000000  0.5337100000000 1.0
C      1  0.5810640000000  0.4841400000000  0.4672050000000 1.0
C      1  0.5792320000000  0.5221520000000  0.5322610000000 1.0
C      1  0.5280960000000  0.4535870000000  0.5633530000000 1.0
C      1  0.5255720000000  0.5451610000000  0.4344160000000 1.0
C      1  0.4756510000000  0.4508040000000  0.5644960000000 1.0
C      1  0.4722000000000  0.5460140000000  0.4402990000000 1.0
C      1  0.4352120000000  0.4519640000000  0.4457030000000 1.0
C      1  0.4327900000000  0.5458250000000  0.5538770000000 1.0
C      1  0.5566280000000  0.4497610000000  0.4378220000000 1.0
C      1  0.5569580000000  0.5480900000000  0.5662860000000 1.0
C      1  0.4147830000000  0.4973410000000  0.5128670000000 1.0
C      1  0.4198430000000  0.5053410000000  0.4814210000000 1.0
C      1  0.5836210000000  0.4975940000000  0.5142510000000 1.0
C      1  0.5903990000000  0.5045400000000  0.4838050000000 1.0
C      1  0.5662750000000  0.4777830000000  0.4413960000000 1.0
C      1  0.5693070000000  0.5219820000000  0.5604230000000 1.0
C      1  0.4394340000000  0.4825740000000  0.4352730000000 1.0
C      1  0.4305160000000  0.5141680000000  0.5630340000000 1.0
C      1  0.4608210000000  0.4366220000000  0.4554740000000 1.0
C      1  0.4608660000000  0.5571290000000  0.5437460000000 1.0
C      1  0.5306330000000  0.4387230000000  0.4542750000000 1.0
C      1  0.5355440000000  0.5605040000000  0.5466780000000 1.0
C      1  0.4193780000000  0.4706340000000  0.5177040000000 1.0
C      1  0.4199620000000  0.5385020000000  0.4793860000000 1.0
C      1  0.5832400000000  0.4652930000000  0.5198630000000 1.0
C      1  0.5861380000000  0.5319890000000  0.4773700000000 1.0
C      1  0.5560140000000  0.4702460000000  0.4810540000000 1.0
C      1  0.5581550000000  0.5408770000000  0.5162520000000 1.0
C      1  0.4499450000000  0.4660580000000  0.4798680000000 1.0
C      1  0.4442280000000  0.5306470000000  0.5189770000000 1.0
C      1  0.4828180000000  0.4806020000000  0.5215590000000 1.0
C      1  0.4772830000000  0.5205960000000  0.4817560000000 1.0
C      1  0.5221290000000  0.4836850000000  0.5180290000000 1.0
C      1  0.5169570000000  0.5191540000000  0.4794580000000 1.0
C      1  0.4402360000000  0.5516180000000  0.4953590000000 1.0
C      1  0.4397430000000  0.4546640000000  0.5079150000000 1.0
C      1  0.5651840000000  0.5471490000000  0.4862910000000 1.0
C      1  0.5617490000000  0.4521240000000  0.5065820000000 1.0
C      1  0.5152960000000  0.4689190000000  0.4334730000000 1.0
C      1  0.5127970000000  0.5305240000000  0.5596980000000 1.0
C      1  0.4908300000000  0.4657420000000  0.4297820000000 1.0
C      1  0.4884910000000  0.5331890000000  0.5597540000000 1.0
C      1  0.4882800000000  0.4316570000000  0.5461170000000 1.0
C      1  0.4889510000000  0.5677050000000  0.4546770000000 1.0
C      1  0.5158630000000  0.4326350000000  0.5461420000000 1.0
C      1  0.5159660000000  0.5670290000000  0.4514310000000 1.0
C      1  0.4990770000000  0.5014870000000  0.5001310000000 1.0
END
