TITL C-3289331-6719-205 -0.00554996173136771 125000 -1058.36884524526 0 0 188 (C1) n - 1
REM
REM in /nfs/bkarasulu/CARBON/AIRSS/Generating-Clusters/AIREBO/with-SteepDescent/Higher-Symm/SD-CG/HFTN-CG
REM
REM
REM
REM
REM
REM ./C.cell (b20cbc046b6831c77cfcea5457e17084)
REM
REM compiler GCC version 9.2.1 20190827 (Red Hat 9.2.1-1)
REM options -cpp -mtune=generic -march=x86-64 -g -O0 -fpre-include=/usr/include/finclude/math-vector-fortran.h
REM seed 46374498 801701198 1091067615 -397227215 -944256719 767559238 -72093253 -2029049531 -1276208238 66140192 -1053662406 1931149761 -462711136 725571947 1129374189 2124548880 -1114893642 259464367 -519528081 2062346219 -979779337 -763646177 607804393 1927924272 -1120216130 -1143723855 -1392595366 1518938690 1654599879 -622588421 -1458977458 -1952641291 1826467907
REM
CELL 1.54180   50.00000   50.00000   50.00000   90.00000   90.00000   90.00000
LATT -1
SFAC C  
C      1  0.4200320000000  0.5509230000000  0.4406490000000 1.0
C      1  0.4304680000000  0.4617460000000  0.4341130000000 1.0
C      1  0.4237590000000  0.4199600000000  0.5248270000000 1.0
C      1  0.4185420000000  0.4919530000000  0.5878130000000 1.0
C      1  0.4235850000000  0.5710680000000  0.5260560000000 1.0
C      1  0.5731790000000  0.5554670000000  0.5558020000000 1.0
C      1  0.5839140000000  0.4644730000000  0.5662420000000 1.0
C      1  0.5747530000000  0.4232240000000  0.4778930000000 1.0
C      1  0.5794070000000  0.4945160000000  0.4237060000000 1.0
C      1  0.5844110000000  0.5631500000000  0.4677610000000 1.0
C      1  0.5978670000000  0.5525120000000  0.5153300000000 1.0
C      1  0.6011840000000  0.5294710000000  0.4431890000000 1.0
C      1  0.5938310000000  0.4633350000000  0.4477880000000 1.0
C      1  0.5851840000000  0.4508600000000  0.5188810000000 1.0
C      1  0.5760370000000  0.5057290000000  0.5604470000000 1.0
C      1  0.4128140000000  0.5626590000000  0.4814080000000 1.0
C      1  0.4164710000000  0.5307230000000  0.5485240000000 1.0
C      1  0.4161980000000  0.4690370000000  0.5466030000000 1.0
C      1  0.4180850000000  0.4451280000000  0.4795500000000 1.0
C      1  0.4114680000000  0.5040050000000  0.4387920000000 1.0
C      1  0.4270190000000  0.4581260000000  0.5042380000000 1.0
C      1  0.4199980000000  0.4948820000000  0.5318870000000 1.0
C      1  0.4101420000000  0.5223780000000  0.5171020000000 1.0
C      1  0.4208230000000  0.5216550000000  0.4859530000000 1.0
C      1  0.4142610000000  0.4920900000000  0.4704530000000 1.0
C      1  0.5755230000000  0.4671880000000  0.4938640000000 1.0
C      1  0.5911250000000  0.4874660000000  0.4720000000000 1.0
C      1  0.5858700000000  0.5162270000000  0.4836650000000 1.0
C      1  0.5991700000000  0.5182450000000  0.5144060000000 1.0
C      1  0.5822050000000  0.4974110000000  0.5301780000000 1.0
C      1  0.5037910000000  0.5929680000000  0.5967610000000 1.0
C      1  0.5114100000000  0.6265120000000  0.4472990000000 1.0
C      1  0.5112190000000  0.4962460000000  0.3693260000000 1.0
C      1  0.5125490000000  0.3694880000000  0.4645960000000 1.0
C      1  0.5132740000000  0.4273470000000  0.6057330000000 1.0
C      1  0.5003650000000  0.5841500000000  0.4159490000000 1.0
C      1  0.4918380000000  0.6161210000000  0.5478000000000 1.0
C      1  0.4961990000000  0.4832870000000  0.6229850000000 1.0
C      1  0.4976500000000  0.3726280000000  0.5167950000000 1.0
C      1  0.4986590000000  0.4465220000000  0.3788950000000 1.0
C      1  0.5112230000000  0.5577210000000  0.5016570000000 1.0
C      1  0.5113470000000  0.5130460000000  0.4618020000000 1.0
C      1  0.5117400000000  0.4517280000000  0.4650130000000 1.0
C      1  0.5119940000000  0.4461180000000  0.5352920000000 1.0
C      1  0.5210300000000  0.5245200000000  0.5549460000000 1.0
C      1  0.4803810000000  0.5689950000000  0.4992410000000 1.0
C      1  0.4914670000000  0.5095520000000  0.5603680000000 1.0
C      1  0.4811470000000  0.4483410000000  0.5371540000000 1.0
C      1  0.4797040000000  0.4623010000000  0.4663650000000 1.0
C      1  0.4828600000000  0.5190280000000  0.4588110000000 1.0
C      1  0.4280420000000  0.5010660000000  0.6143740000000 1.0
C      1  0.4380740000000  0.5925650000000  0.5194010000000 1.0
C      1  0.4332710000000  0.5460840000000  0.4173760000000 1.0
C      1  0.4546830000000  0.4492430000000  0.4337720000000 1.0
C      1  0.4419810000000  0.4084470000000  0.5408120000000 1.0
C      1  0.5593190000000  0.5110950000000  0.4171220000000 1.0
C      1  0.5668080000000  0.5808270000000  0.4771110000000 1.0
C      1  0.5585710000000  0.5607620000000  0.5782730000000 1.0
C      1  0.5760910000000  0.4386840000000  0.5698030000000 1.0
C      1  0.5508340000000  0.4186090000000  0.4649440000000 1.0
C      1  0.5249220000000  0.5597150000000  0.4512430000000 1.0
C      1  0.5159230000000  0.4564770000000  0.4257050000000 1.0
C      1  0.5212050000000  0.4158210000000  0.5055950000000 1.0
C      1  0.5158820000000  0.4813240000000  0.5952900000000 1.0
C      1  0.5227090000000  0.5729920000000  0.5425070000000 1.0
C      1  0.4960590000000  0.5722690000000  0.5637050000000 1.0
C      1  0.4789880000000  0.4537590000000  0.5765720000000 1.0
C      1  0.4835070000000  0.4073340000000  0.4830030000000 1.0
C      1  0.4792710000000  0.4827950000000  0.4073000000000 1.0
C      1  0.4781300000000  0.5915700000000  0.4576780000000 1.0
C      1  0.5138430000000  0.5336820000000  0.6028030000000 1.0
C      1  0.5171330000000  0.6076780000000  0.5048910000000 1.0
C      1  0.5184220000000  0.5353930000000  0.4102360000000 1.0
C      1  0.5144310000000  0.4121020000000  0.4263630000000 1.0
C      1  0.5146200000000  0.4057610000000  0.5519470000000 1.0
C      1  0.4726000000000  0.5197510000000  0.3936710000000 1.0
C      1  0.4776600000000  0.6222060000000  0.4881160000000 1.0
C      1  0.4700100000000  0.5591430000000  0.6093400000000 1.0
C      1  0.4777140000000  0.4077970000000  0.5808480000000 1.0
C      1  0.4730680000000  0.3912790000000  0.4435780000000 1.0
C      1  0.5636390000000  0.4406840000000  0.4075970000000 1.0
C      1  0.5607440000000  0.3959540000000  0.5273410000000 1.0
C      1  0.5576020000000  0.5024280000000  0.6063220000000 1.0
C      1  0.5695010000000  0.6026340000000  0.5242980000000 1.0
C      1  0.5660640000000  0.5556370000000  0.4128300000000 1.0
C      1  0.4332210000000  0.4436210000000  0.5882380000000 1.0
C      1  0.4347340000000  0.3972890000000  0.4741050000000 1.0
C      1  0.4315900000000  0.4943810000000  0.3883460000000 1.0
C      1  0.4322860000000  0.6043780000000  0.4580840000000 1.0
C      1  0.4366050000000  0.5654410000000  0.5768800000000 1.0
C      1  0.5464560000000  0.6050890000000  0.5099770000000 1.0
C      1  0.5462610000000  0.5467970000000  0.4003000000000 1.0
C      1  0.5415740000000  0.4274050000000  0.4163610000000 1.0
C      1  0.5432360000000  0.4040330000000  0.5474250000000 1.0
C      1  0.5421500000000  0.5210120000000  0.6122190000000 1.0
C      1  0.4501070000000  0.6140990000000  0.4751970000000 1.0
C      1  0.4483320000000  0.5504670000000  0.5962650000000 1.0
C      1  0.4512950000000  0.4255660000000  0.5824830000000 1.0
C      1  0.4536010000000  0.4050540000000  0.4560690000000 1.0
C      1  0.4529010000000  0.5088120000000  0.3780800000000 1.0
C      1  0.4528390000000  0.5219620000000  0.4928450000000 1.0
C      1  0.4474870000000  0.4925160000000  0.4797070000000 1.0
C      1  0.4589290000000  0.4697190000000  0.5023430000000 1.0
C      1  0.4523120000000  0.4884390000000  0.5304150000000 1.0
C      1  0.4612720000000  0.5184080000000  0.5214000000000 1.0
C      1  0.5488980000000  0.5283080000000  0.5184440000000 1.0
C      1  0.5485460000000  0.4952040000000  0.5253880000000 1.0
C      1  0.5461820000000  0.4766680000000  0.5012370000000 1.0
C      1  0.5448340000000  0.4925220000000  0.4733790000000 1.0
C      1  0.5528750000000  0.5234550000000  0.4850060000000 1.0
C      1  0.4921740000000  0.4643500000000  0.4974040000000 1.0
C      1  0.4925470000000  0.4796050000000  0.5442780000000 1.0
C      1  0.4918880000000  0.5167240000000  0.5289720000000 1.0
C      1  0.4703240000000  0.5434250000000  0.4791660000000 1.0
C      1  0.4670560000000  0.4918270000000  0.4551310000000 1.0
C      1  0.5237700000000  0.4553320000000  0.5067150000000 1.0
C      1  0.5144190000000  0.4821510000000  0.4694950000000 1.0
C      1  0.5204300000000  0.5322060000000  0.4836210000000 1.0
C      1  0.5159830000000  0.5353140000000  0.5231600000000 1.0
C      1  0.5249600000000  0.4914270000000  0.5481990000000 1.0
C      1  0.5026690000000  0.4295830000000  0.5731870000000 1.0
C      1  0.4980960000000  0.5605190000000  0.5958830000000 1.0
C      1  0.5039090000000  0.6064940000000  0.4740770000000 1.0
C      1  0.5031450000000  0.5065500000000  0.4007070000000 1.0
C      1  0.5025950000000  0.3999340000000  0.4558260000000 1.0
C      1  0.4993750000000  0.4348860000000  0.4081540000000 1.0
C      1  0.5044820000000  0.5558220000000  0.4284150000000 1.0
C      1  0.5015090000000  0.5945130000000  0.5268950000000 1.0
C      1  0.4963470000000  0.5083620000000  0.6000230000000 1.0
C      1  0.5003860000000  0.4021220000000  0.5258470000000 1.0
C      1  0.4178060000000  0.5165270000000  0.5715820000000 1.0
C      1  0.4122320000000  0.5545610000000  0.5068870000000 1.0
C      1  0.4130050000000  0.5288290000000  0.4549290000000 1.0
C      1  0.4176690000000  0.4621370000000  0.4587270000000 1.0
C      1  0.4185200000000  0.4478800000000  0.5291650000000 1.0
C      1  0.5959270000000  0.5030430000000  0.4438040000000 1.0
C      1  0.5954940000000  0.5462190000000  0.4862950000000 1.0
C      1  0.5673270000000  0.5302870000000  0.5469520000000 1.0
C      1  0.5902540000000  0.4692460000000  0.5395160000000 1.0
C      1  0.5859400000000  0.4478930000000  0.4715500000000 1.0
C      1  0.5331250000000  0.5774510000000  0.5737070000000 1.0
C      1  0.5221260000000  0.5796220000000  0.4679260000000 1.0
C      1  0.5215260000000  0.4868940000000  0.4218130000000 1.0
C      1  0.5203660000000  0.4206660000000  0.4760970000000 1.0
C      1  0.5282390000000  0.4490390000000  0.5620650000000 1.0
C      1  0.4778700000000  0.5446100000000  0.4400140000000 1.0
C      1  0.4847270000000  0.5655300000000  0.5327960000000 1.0
C      1  0.4692550000000  0.5069390000000  0.5823360000000 1.0
C      1  0.4832780000000  0.4267360000000  0.5109240000000 1.0
C      1  0.4758920000000  0.4539660000000  0.4171510000000 1.0
C      1  0.4306040000000  0.4193470000000  0.4952830000000 1.0
C      1  0.4323880000000  0.4700520000000  0.5724760000000 1.0
C      1  0.4349520000000  0.5546600000000  0.5480560000000 1.0
C      1  0.4313580000000  0.5734270000000  0.4573610000000 1.0
C      1  0.4295730000000  0.4888660000000  0.4196350000000 1.0
C      1  0.5738380000000  0.4205780000000  0.5083630000000 1.0
C      1  0.5717950000000  0.4644400000000  0.4255490000000 1.0
C      1  0.5762690000000  0.5489720000000  0.4414930000000 1.0
C      1  0.5794520000000  0.5721180000000  0.5303990000000 1.0
C      1  0.5638700000000  0.4856690000000  0.5803330000000 1.0
C      1  0.4616880000000  0.5946710000000  0.4999010000000 1.0
C      1  0.4601790000000  0.5312880000000  0.4196080000000 1.0
C      1  0.4610760000000  0.4346850000000  0.4595320000000 1.0
C      1  0.4668500000000  0.4238930000000  0.5529100000000 1.0
C      1  0.4450610000000  0.5211130000000  0.5928060000000 1.0
C      1  0.5391890000000  0.5758980000000  0.4950070000000 1.0
C      1  0.5289760000000  0.5438420000000  0.5767840000000 1.0
C      1  0.5517610000000  0.4328610000000  0.5529050000000 1.0
C      1  0.5356710000000  0.4399040000000  0.4452880000000 1.0
C      1  0.5311400000000  0.5165690000000  0.4353470000000 1.0
C      1  0.4591030000000  0.4984850000000  0.4249080000000 1.0
C      1  0.4587790000000  0.4373570000000  0.4918740000000 1.0
C      1  0.4632370000000  0.4799280000000  0.5615470000000 1.0
C      1  0.4615360000000  0.5454830000000  0.5367550000000 1.0
C      1  0.4618590000000  0.5670880000000  0.4578240000000 1.0
C      1  0.5346790000000  0.4767710000000  0.5733750000000 1.0
C      1  0.5454590000000  0.4322740000000  0.5192790000000 1.0
C      1  0.5468910000000  0.4804470000000  0.4420520000000 1.0
C      1  0.5492790000000  0.5380440000000  0.4544870000000 1.0
C      1  0.5482870000000  0.5618050000000  0.5243170000000 1.0
C      1  0.4942510000000  0.6037290000000  0.4354130000000 1.0
C      1  0.4951170000000  0.4736770000000  0.3794750000000 1.0
C      1  0.5050590000000  0.3703880000000  0.4910900000000 1.0
C      1  0.4973930000000  0.4557380000000  0.6029360000000 1.0
C      1  0.4916450000000  0.6043860000000  0.5727040000000 1.0
C      1  0.6290820000000  0.5108450000000  0.5156750000000 1.0
C      1  0.3857580000000  0.4901980000000  0.4807420000000 1.0
C      1  0.4915590000000  0.4900760000000  0.5131270000000 1.0
END
