TITL C-3289333-7213-590 -1.30700918943585e-07 125000 -23.4187750358072 0 0 5 (C2v) n - 1
REM
REM in /nfs/bkarasulu/CARBON/AIRSS/Generating-Clusters/AIREBO/with-SteepDescent/Higher-Symm/SD-CG/HFTN-CG
REM
REM
REM
REM
REM
REM ./C.cell (b20cbc046b6831c77cfcea5457e17084)
REM
REM compiler GCC version 9.2.1 20190827 (Red Hat 9.2.1-1)
REM options -cpp -mtune=generic -march=x86-64 -g -O0 -fpre-include=/usr/include/finclude/math-vector-fortran.h
REM seed 52026693 1312937451 1368549877 -285381512 683827402 958156449 491885249 -808277170 -1368752501 897018212 46114796 1958768521 1348502500 -878429223 539275956 -362668099 1632888068 1844472815 562283353 933785475 -1678231959 1025927835 -1391310855 1534039708 878596476 -785622522 371766771 -502993758 368273798 1785672517 136218977 -1942703364 -685593590
REM
CELL 1.54180   50.00000   50.00000   50.00000   90.00000   90.00000   90.00000
LATT -1
SFAC C  
C      1  0.4943600000000  0.4955640000000  0.4843050000000 1.0
C      1  0.5347060000000  0.4955640000000  0.5090450000000 1.0
C      1  0.4817880000000  0.4955640000000  0.4613100000000 1.0
C      1  0.4934090000000  0.4955640000000  0.5316230000000 1.0
C      1  0.5076720000000  0.4955640000000  0.5086550000000 1.0
END
