TITL C-3289334-2237-673 -0.00023497068479278 125000 -201.856956606988 0 0 35 (C1) n - 1
REM
REM in /nfs/bkarasulu/CARBON/AIRSS/Generating-Clusters/AIREBO/with-SteepDescent/Higher-Symm/SD-CG/HFTN-CG
REM
REM
REM
REM
REM
REM ./C.cell (b20cbc046b6831c77cfcea5457e17084)
REM
REM compiler GCC version 9.2.1 20190827 (Red Hat 9.2.1-1)
REM options -cpp -mtune=generic -march=x86-64 -g -O0 -fpre-include=/usr/include/finclude/math-vector-fortran.h
REM seed -1161167195 -204869563 -1103255705 -1578434780 -1974322862 -1270092868 -1272858140 -402808880 -109286470 -592372080 463118729 -828798536 -831164591 -1903968479 -1910949569 -1882012637 -1125900943 942902585 1595174949 915615988 -1981261746 1643339511 1835683789 -562964531 -1122944704 -1429539905 1416720954 -1898791905 -2122828737 206489255 23802910 1580991761 575790940
REM
CELL 1.54180   50.00000   50.00000   50.00000   90.00000   90.00000   90.00000
LATT -1
SFAC C  
C      1  0.5068390000000  0.4494750000000  0.4808130000000 1.0
C      1  0.4635720000000  0.5147460000000  0.4536700000000 1.0
C      1  0.4629630000000  0.4733840000000  0.5208390000000 1.0
C      1  0.5198550000000  0.5492760000000  0.5325720000000 1.0
C      1  0.4888130000000  0.5502420000000  0.4755430000000 1.0
C      1  0.4939820000000  0.4366340000000  0.5260630000000 1.0
C      1  0.4816340000000  0.4607410000000  0.5381090000000 1.0
C      1  0.5155380000000  0.4631960000000  0.4574000000000 1.0
C      1  0.5144320000000  0.5326550000000  0.5563130000000 1.0
C      1  0.4649590000000  0.5323630000000  0.4759730000000 1.0
C      1  0.5397460000000  0.5407220000000  0.5153240000000 1.0
C      1  0.5568030000000  0.4995820000000  0.4905980000000 1.0
C      1  0.4764970000000  0.4422070000000  0.4770060000000 1.0
C      1  0.4734970000000  0.4725730000000  0.4922950000000 1.0
C      1  0.4946290000000  0.5582120000000  0.5214810000000 1.0
C      1  0.5037860000000  0.5223330000000  0.4795410000000 1.0
C      1  0.5150830000000  0.4466730000000  0.5076030000000 1.0
C      1  0.5176040000000  0.5110930000000  0.4540950000000 1.0
C      1  0.5058650000000  0.4771450000000  0.5433430000000 1.0
C      1  0.4846340000000  0.5026700000000  0.4935920000000 1.0
C      1  0.5368790000000  0.5262020000000  0.4855710000000 1.0
C      1  0.5474960000000  0.4843830000000  0.5171200000000 1.0
C      1  0.4822610000000  0.5268300000000  0.5537720000000 1.0
C      1  0.4755090000000  0.4895120000000  0.4469420000000 1.0
C      1  0.4480560000000  0.4965570000000  0.5228700000000 1.0
C      1  0.4660930000000  0.4173230000000  0.4736570000000 1.0
C      1  0.5560140000000  0.5158900000000  0.5190320000000 1.0
C      1  0.4924750000000  0.5691920000000  0.4957120000000 1.0
C      1  0.5046020000000  0.4875830000000  0.4465090000000 1.0
C      1  0.5033160000000  0.5021900000000  0.5540860000000 1.0
C      1  0.4736980000000  0.5401810000000  0.5296270000000 1.0
C      1  0.5427830000000  0.5260780000000  0.4518420000000 1.0
C      1  0.5260300000000  0.4688390000000  0.5240130000000 1.0
C      1  0.4640630000000  0.4685580000000  0.4614950000000 1.0
C      1  0.4618650000000  0.5217850000000  0.5081800000000 1.0
END
