TITL C-3289330-4660-518 0.0046798520563109 125000 -762.919536495299 0 0 143 (C1) n - 1
REM
REM in /nfs/bkarasulu/CARBON/AIRSS/Generating-Clusters/AIREBO/with-SteepDescent/Higher-Symm/SD-CG/HFTN-CG
REM
REM
REM
REM
REM
REM ./C.cell (b20cbc046b6831c77cfcea5457e17084)
REM
REM compiler GCC version 9.2.1 20190827 (Red Hat 9.2.1-1)
REM options -cpp -mtune=generic -march=x86-64 -g -O0 -fpre-include=/usr/include/finclude/math-vector-fortran.h
REM seed -1415483843 -1623799238 -1458514672 -249106426 -525632370 -1765245433 723277408 -2078914279 -665535195 1954774115 2018398873 -1253645959 -1674267905 -337237360 345046277 1586409089 -498372920 514073552 1405959998 1007484601 -445665328 -2058690735 1025227331 -864424272 -396331496 -1459458940 -1937101221 -1805566463 -782405796 -1377336749 -1461624422 882255506 -1477925197
REM
CELL 1.54180   50.00000   50.00000   50.00000   90.00000   90.00000   90.00000
LATT -1
SFAC C  
C      1  0.4679450000000  0.5433510000000  0.5808750000000 1.0
C      1  0.4591750000000  0.4804000000000  0.5900990000000 1.0
C      1  0.5035800000000  0.4455140000000  0.5671790000000 1.0
C      1  0.5499770000000  0.4891450000000  0.5727210000000 1.0
C      1  0.5294590000000  0.5557560000000  0.5658210000000 1.0
C      1  0.5449840000000  0.5290920000000  0.4548730000000 1.0
C      1  0.4961610000000  0.5419550000000  0.4630910000000 1.0
C      1  0.4569050000000  0.5007600000000  0.4546290000000 1.0
C      1  0.4805480000000  0.4548310000000  0.4474410000000 1.0
C      1  0.5375530000000  0.4771840000000  0.4627970000000 1.0
C      1  0.5184380000000  0.5843890000000  0.5141340000000 1.0
C      1  0.4238130000000  0.5487570000000  0.5002320000000 1.0
C      1  0.4141980000000  0.4478270000000  0.4905810000000 1.0
C      1  0.5140680000000  0.4199440000000  0.5155770000000 1.0
C      1  0.5919110000000  0.4918370000000  0.5059270000000 1.0
C      1  0.5517540000000  0.5776160000000  0.4408860000000 1.0
C      1  0.4658930000000  0.5734760000000  0.4379210000000 1.0
C      1  0.4312870000000  0.4599150000000  0.4282270000000 1.0
C      1  0.5172660000000  0.4201530000000  0.4305210000000 1.0
C      1  0.5854050000000  0.4824480000000  0.4197060000000 1.0
C      1  0.5099790000000  0.4398720000000  0.4883250000000 1.0
C      1  0.5713230000000  0.4971960000000  0.4794020000000 1.0
C      1  0.5235630000000  0.5602790000000  0.4906810000000 1.0
C      1  0.4490750000000  0.5330150000000  0.4873820000000 1.0
C      1  0.4429340000000  0.4555230000000  0.4783820000000 1.0
C      1  0.5811250000000  0.4992600000000  0.5694910000000 1.0
C      1  0.5198080000000  0.5785320000000  0.5424550000000 1.0
C      1  0.4361620000000  0.5475210000000  0.5695310000000 1.0
C      1  0.4336060000000  0.4593460000000  0.5843000000000 1.0
C      1  0.5183970000000  0.4298810000000  0.5447540000000 1.0
C      1  0.5275860000000  0.5774940000000  0.6118830000000 1.0
C      1  0.4436460000000  0.5378700000000  0.6263090000000 1.0
C      1  0.4708480000000  0.4461950000000  0.6273900000000 1.0
C      1  0.5253020000000  0.4373290000000  0.6130670000000 1.0
C      1  0.5503270000000  0.5162920000000  0.6175000000000 1.0
C      1  0.4867750000000  0.5875590000000  0.4607770000000 1.0
C      1  0.3855970000000  0.5137860000000  0.4653950000000 1.0
C      1  0.4525110000000  0.4132650000000  0.4521400000000 1.0
C      1  0.5576060000000  0.4274660000000  0.4658020000000 1.0
C      1  0.5962070000000  0.5304070000000  0.4585390000000 1.0
C      1  0.5398850000000  0.4852790000000  0.4255720000000 1.0
C      1  0.5433890000000  0.5399140000000  0.4240080000000 1.0
C      1  0.4898880000000  0.5325710000000  0.4318310000000 1.0
C      1  0.4578370000000  0.4928460000000  0.4154370000000 1.0
C      1  0.4983170000000  0.4665260000000  0.4268140000000 1.0
C      1  0.5629630000000  0.5068940000000  0.4130670000000 1.0
C      1  0.5282580000000  0.5692500000000  0.4198280000000 1.0
C      1  0.4602560000000  0.5431990000000  0.4235130000000 1.0
C      1  0.4615340000000  0.4597790000000  0.4126910000000 1.0
C      1  0.5256680000000  0.4500450000000  0.4223090000000 1.0
C      1  0.4714760000000  0.5797220000000  0.5565740000000 1.0
C      1  0.4240380000000  0.5022780000000  0.5578850000000 1.0
C      1  0.4581390000000  0.4261730000000  0.5515410000000 1.0
C      1  0.5653840000000  0.4474030000000  0.5492060000000 1.0
C      1  0.5789670000000  0.5488390000000  0.5499750000000 1.0
C      1  0.4640470000000  0.5500490000000  0.4625590000000 1.0
C      1  0.4534760000000  0.4698910000000  0.4519800000000 1.0
C      1  0.5054600000000  0.4392250000000  0.4549960000000 1.0
C      1  0.5659050000000  0.4870820000000  0.4473920000000 1.0
C      1  0.5323430000000  0.5578270000000  0.4579130000000 1.0
C      1  0.4602230000000  0.4340790000000  0.4354950000000 1.0
C      1  0.5388260000000  0.4461030000000  0.4518560000000 1.0
C      1  0.5736010000000  0.5211290000000  0.4416920000000 1.0
C      1  0.5049420000000  0.5678670000000  0.4429030000000 1.0
C      1  0.4435980000000  0.5281420000000  0.4482870000000 1.0
C      1  0.4428370000000  0.4347560000000  0.5771350000000 1.0
C      1  0.5440970000000  0.4266510000000  0.5587180000000 1.0
C      1  0.5850690000000  0.5257850000000  0.5699810000000 1.0
C      1  0.5009720000000  0.5907800000000  0.5618980000000 1.0
C      1  0.4187250000000  0.5265980000000  0.5766860000000 1.0
C      1  0.4490410000000  0.5289850000000  0.6024730000000 1.0
C      1  0.4684820000000  0.4522710000000  0.6022560000000 1.0
C      1  0.5261220000000  0.4461880000000  0.5885470000000 1.0
C      1  0.5527330000000  0.5165520000000  0.5915070000000 1.0
C      1  0.5156990000000  0.5677130000000  0.5909330000000 1.0
C      1  0.4851580000000  0.5696480000000  0.5847590000000 1.0
C      1  0.4373390000000  0.5017170000000  0.5893470000000 1.0
C      1  0.4777120000000  0.4346510000000  0.5772210000000 1.0
C      1  0.5505870000000  0.4587150000000  0.5753570000000 1.0
C      1  0.5563270000000  0.5441130000000  0.5736240000000 1.0
C      1  0.5573290000000  0.4603440000000  0.5248380000000 1.0
C      1  0.5716510000000  0.5430430000000  0.5239750000000 1.0
C      1  0.4698800000000  0.5598350000000  0.5372810000000 1.0
C      1  0.4351520000000  0.5097880000000  0.5337070000000 1.0
C      1  0.4591840000000  0.4410640000000  0.5295680000000 1.0
C      1  0.5263680000000  0.4601770000000  0.5220040000000 1.0
C      1  0.5515110000000  0.5284200000000  0.5150410000000 1.0
C      1  0.4944680000000  0.5543410000000  0.5246010000000 1.0
C      1  0.4459970000000  0.5400570000000  0.5349180000000 1.0
C      1  0.4497840000000  0.4709530000000  0.5288830000000 1.0
C      1  0.5267680000000  0.4880760000000  0.4935050000000 1.0
C      1  0.5176630000000  0.5269500000000  0.4940770000000 1.0
C      1  0.4781880000000  0.5288420000000  0.4990310000000 1.0
C      1  0.4624680000000  0.4949610000000  0.4860540000000 1.0
C      1  0.4915620000000  0.4679270000000  0.4944580000000 1.0
C      1  0.4203550000000  0.4106780000000  0.4544470000000 1.0
C      1  0.5431330000000  0.4011180000000  0.4734870000000 1.0
C      1  0.6112300000000  0.5060610000000  0.4706480000000 1.0
C      1  0.5160430000000  0.5966620000000  0.4761460000000 1.0
C      1  0.3989730000000  0.5416170000000  0.4674970000000 1.0
C      1  0.5493820000000  0.5192760000000  0.4838770000000 1.0
C      1  0.4896390000000  0.5584410000000  0.4921040000000 1.0
C      1  0.4367950000000  0.5066820000000  0.5050400000000 1.0
C      1  0.4623720000000  0.4575110000000  0.4999820000000 1.0
C      1  0.5375120000000  0.4571130000000  0.4902440000000 1.0
C      1  0.4876450000000  0.4742850000000  0.3963580000000 1.0
C      1  0.5228100000000  0.4735320000000  0.3985850000000 1.0
C      1  0.5333810000000  0.5160510000000  0.4023190000000 1.0
C      1  0.5115760000000  0.5400610000000  0.4133860000000 1.0
C      1  0.4464060000000  0.5173940000000  0.4081060000000 1.0
C      1  0.5982120000000  0.4790080000000  0.4692420000000 1.0
C      1  0.5467240000000  0.5842650000000  0.4839800000000 1.0
C      1  0.4242470000000  0.5513700000000  0.4604620000000 1.0
C      1  0.4250220000000  0.4422040000000  0.4525980000000 1.0
C      1  0.5142140000000  0.4076390000000  0.4776940000000 1.0
C      1  0.4630810000000  0.4088690000000  0.4834790000000 1.0
C      1  0.5708950000000  0.4385830000000  0.4917310000000 1.0
C      1  0.5909530000000  0.5514510000000  0.4819780000000 1.0
C      1  0.4635580000000  0.5854120000000  0.4850670000000 1.0
C      1  0.3935160000000  0.4979530000000  0.4911680000000 1.0
C      1  0.5014330000000  0.4760550000000  0.5578590000000 1.0
C      1  0.5267980000000  0.4971720000000  0.5530970000000 1.0
C      1  0.5148790000000  0.5282160000000  0.5592590000000 1.0
C      1  0.4827840000000  0.5217010000000  0.5644000000000 1.0
C      1  0.4821520000000  0.4928340000000  0.5748090000000 1.0
C      1  0.3984210000000  0.5311670000000  0.4985400000000 1.0
C      1  0.4302940000000  0.4184510000000  0.4847270000000 1.0
C      1  0.5449460000000  0.4165100000000  0.5015260000000 1.0
C      1  0.6023250000000  0.5229190000000  0.4968900000000 1.0
C      1  0.4919350000000  0.5987210000000  0.4983670000000 1.0
C      1  0.4708260000000  0.4915020000000  0.5189210000000 1.0
C      1  0.5012040000000  0.4798400000000  0.5242470000000 1.0
C      1  0.5335040000000  0.5028900000000  0.5216260000000 1.0
C      1  0.5070450000000  0.5237440000000  0.5262290000000 1.0
C      1  0.4736240000000  0.5204930000000  0.5316780000000 1.0
C      1  0.3985500000000  0.4707120000000  0.4960370000000 1.0
C      1  0.4888040000000  0.4071720000000  0.4966980000000 1.0
C      1  0.5908850000000  0.4595900000000  0.4941530000000 1.0
C      1  0.5737100000000  0.5743820000000  0.4839250000000 1.0
C      1  0.4373160000000  0.5733550000000  0.4810140000000 1.0
C      1  0.5051330000000  0.5009400000000  0.4081970000000 1.0
C      1  0.4833220000000  0.5009870000000  0.4333700000000 1.0
C      1  0.4957260000000  0.5013290000000  0.4893790000000 1.0
END
