TITL C-3289323-3850-324 -0.00549043284388273 125000 -468.793720795387 0 0 87 (C1) n - 1
REM
REM in /nfs/bkarasulu/CARBON/AIRSS/Generating-Clusters/AIREBO/with-SteepDescent/Higher-Symm/SD-CG/HFTN-CG
REM
REM
REM
REM
REM
REM ./C.cell (b20cbc046b6831c77cfcea5457e17084)
REM
REM compiler GCC version 9.2.1 20190827 (Red Hat 9.2.1-1)
REM options -cpp -mtune=generic -march=x86-64 -g -O0 -fpre-include=/usr/include/finclude/math-vector-fortran.h
REM seed -423767137 -382675348 -1703960931 -49965986 -1295172124 1861378709 752117358 -1327515262 126946386 1239332266 2011169836 871290800 -1588075027 -483672626 -1208580799 -1776150943 1302968105 1849426698 2098366198 -1499738686 493521182 -694292047 -890904111 -1731815881 -674941616 1576019990 -149017765 1959950358 -1917106905 -1589180851 1113290260 -1705755994 304889526
REM
CELL 1.54180   50.00000   50.00000   50.00000   90.00000   90.00000   90.00000
LATT -1
SFAC C  
C      1  0.5685010000000  0.4446480000000  0.4729220000000 1.0
C      1  0.5579650000000  0.5498170000000  0.5139080000000 1.0
C      1  0.5613850000000  0.5116020000000  0.4540990000000 1.0
C      1  0.5444760000000  0.4699280000000  0.5412020000000 1.0
C      1  0.5351570000000  0.5840780000000  0.4326220000000 1.0
C      1  0.5146700000000  0.4292030000000  0.5488250000000 1.0
C      1  0.4473670000000  0.5315580000000  0.4822080000000 1.0
C      1  0.4438130000000  0.4755470000000  0.5149900000000 1.0
C      1  0.4289620000000  0.5329960000000  0.5085240000000 1.0
C      1  0.4258580000000  0.4591340000000  0.4943840000000 1.0
C      1  0.5214910000000  0.5456190000000  0.4730290000000 1.0
C      1  0.5168700000000  0.4679490000000  0.4965130000000 1.0
C      1  0.4813210000000  0.4679430000000  0.4782340000000 1.0
C      1  0.4892070000000  0.5378750000000  0.5249060000000 1.0
C      1  0.5238810000000  0.5423410000000  0.5605690000000 1.0
C      1  0.5199090000000  0.4452150000000  0.4458010000000 1.0
C      1  0.4725120000000  0.4753840000000  0.5870910000000 1.0
C      1  0.4663760000000  0.5206830000000  0.4221880000000 1.0
C      1  0.5454810000000  0.4335110000000  0.5035880000000 1.0
C      1  0.5404360000000  0.5834400000000  0.5014140000000 1.0
C      1  0.5751890000000  0.5281110000000  0.5290540000000 1.0
C      1  0.5889140000000  0.4942900000000  0.4640600000000 1.0
C      1  0.3969690000000  0.5192280000000  0.5520600000000 1.0
C      1  0.4264480000000  0.4826840000000  0.4504200000000 1.0
C      1  0.5058280000000  0.4926370000000  0.4437880000000 1.0
C      1  0.5007650000000  0.4993560000000  0.5527130000000 1.0
C      1  0.4873230000000  0.6161280000000  0.5368430000000 1.0
C      1  0.4877800000000  0.4234580000000  0.5092120000000 1.0
C      1  0.5573510000000  0.5419440000000  0.4567370000000 1.0
C      1  0.5702800000000  0.4508810000000  0.5361490000000 1.0
C      1  0.4104400000000  0.4719860000000  0.4672260000000 1.0
C      1  0.4189040000000  0.5238790000000  0.5397480000000 1.0
C      1  0.5234720000000  0.4492810000000  0.5241550000000 1.0
C      1  0.5309980000000  0.5597700000000  0.4444430000000 1.0
C      1  0.5368330000000  0.5129940000000  0.5719500000000 1.0
C      1  0.5380220000000  0.4711390000000  0.4314530000000 1.0
C      1  0.4979240000000  0.4420180000000  0.5657330000000 1.0
C      1  0.5080450000000  0.5406670000000  0.4349420000000 1.0
C      1  0.4792300000000  0.5402710000000  0.4387140000000 1.0
C      1  0.4705550000000  0.4560350000000  0.5635860000000 1.0
C      1  0.4566200000000  0.4208670000000  0.4684220000000 1.0
C      1  0.4573490000000  0.5750110000000  0.5360760000000 1.0
C      1  0.5125210000000  0.4981980000000  0.5057280000000 1.0
C      1  0.5161250000000  0.5163890000000  0.4806240000000 1.0
C      1  0.5432040000000  0.4995210000000  0.4314360000000 1.0
C      1  0.5348720000000  0.4847420000000  0.5668800000000 1.0
C      1  0.4442880000000  0.4456320000000  0.4711760000000 1.0
C      1  0.4447760000000  0.5521560000000  0.5303020000000 1.0
C      1  0.4921690000000  0.5651770000000  0.5121510000000 1.0
C      1  0.4999650000000  0.4441850000000  0.4861620000000 1.0
C      1  0.5267110000000  0.4856970000000  0.4698010000000 1.0
C      1  0.5267650000000  0.5048930000000  0.5333440000000 1.0
C      1  0.4694350000000  0.4593320000000  0.4260660000000 1.0
C      1  0.4729140000000  0.5268070000000  0.5670190000000 1.0
C      1  0.4821190000000  0.4838320000000  0.5083050000000 1.0
C      1  0.4833240000000  0.5145930000000  0.4829700000000 1.0
C      1  0.4780240000000  0.5074940000000  0.5323920000000 1.0
C      1  0.4759760000000  0.5009760000000  0.4566500000000 1.0
C      1  0.5453980000000  0.4589180000000  0.4602940000000 1.0
C      1  0.5425100000000  0.5319690000000  0.5374690000000 1.0
C      1  0.5491450000000  0.5575380000000  0.4852700000000 1.0
C      1  0.5747850000000  0.4504920000000  0.5044740000000 1.0
C      1  0.5502000000000  0.4890970000000  0.5152990000000 1.0
C      1  0.5546740000000  0.4968000000000  0.4832760000000 1.0
C      1  0.4568130000000  0.4729110000000  0.4551880000000 1.0
C      1  0.4508620000000  0.5234080000000  0.5453210000000 1.0
C      1  0.4865690000000  0.5884510000000  0.5363050000000 1.0
C      1  0.4871020000000  0.4155940000000  0.4759990000000 1.0
C      1  0.5138650000000  0.5727650000000  0.5497570000000 1.0
C      1  0.5183690000000  0.4179760000000  0.4628330000000 1.0
C      1  0.4075540000000  0.5087520000000  0.5046550000000 1.0
C      1  0.4061100000000  0.4840710000000  0.5048520000000 1.0
C      1  0.5189440000000  0.5161260000000  0.4277670000000 1.0
C      1  0.5054800000000  0.4727530000000  0.5733860000000 1.0
C      1  0.5785300000000  0.5055210000000  0.5135280000000 1.0
C      1  0.5822280000000  0.4788850000000  0.4936830000000 1.0
C      1  0.4898340000000  0.4543180000000  0.5233430000000 1.0
C      1  0.4917480000000  0.5474510000000  0.4859790000000 1.0
C      1  0.4610750000000  0.4639580000000  0.5358430000000 1.0
C      1  0.4671250000000  0.5457320000000  0.4645550000000 1.0
C      1  0.4940060000000  0.5386900000000  0.5542280000000 1.0
C      1  0.4920440000000  0.4555550000000  0.4484390000000 1.0
C      1  0.5370940000000  0.4173100000000  0.4834580000000 1.0
C      1  0.5214010000000  0.5794490000000  0.5195560000000 1.0
C      1  0.4801340000000  0.5023130000000  0.5795860000000 1.0
C      1  0.4772200000000  0.4902600000000  0.4254950000000 1.0
C      1  0.4557650000000  0.5034970000000  0.4995850000000 1.0
END
