TITL C-3289328-6581-465 47.3962524949801 125000 -677.406257930586 0 0 129 (C1) n - 1
REM
REM in /nfs/bkarasulu/CARBON/AIRSS/Generating-Clusters/AIREBO/with-SteepDescent/Higher-Symm/SD-CG/HFTN-CG
REM
REM
REM
REM
REM
REM ./C.cell (b20cbc046b6831c77cfcea5457e17084)
REM
REM compiler GCC version 9.2.1 20190827 (Red Hat 9.2.1-1)
REM options -cpp -mtune=generic -march=x86-64 -g -O0 -fpre-include=/usr/include/finclude/math-vector-fortran.h
REM seed -2134531171 1373632021 -356586693 145638524 913816659 -1802009865 996149625 -1648724832 -1609254946 2084960993 -995548486 2005564284 2074567420 -220885976 -40903104 -2070922090 114389099 -699881273 1318567777 2084573993 -1711206060 955148591 1535093296 293472865 -1570380398 -1953493038 456429322 1580018677 -576658167 1220290355 1248350624 -829489318 1548704891
REM
CELL 1.54180   50.00000   50.00000   50.00000   90.00000   90.00000   90.00000
LATT -1
SFAC C  
C      1  0.5240580000000  0.5264620000000  0.5840320000000 1.0
C      1  0.4705720000000  0.4173280000000  0.5237440000000 1.0
C      1  0.5188890000000  0.4597750000000  0.4108030000000 1.0
C      1  0.4726170000000  0.5903440000000  0.4719360000000 1.0
C      1  0.4685170000000  0.5194960000000  0.5847260000000 1.0
C      1  0.5308100000000  0.4148740000000  0.5060800000000 1.0
C      1  0.4663860000000  0.4791480000000  0.4141070000000 1.0
C      1  0.5268760000000  0.5824390000000  0.4852520000000 1.0
C      1  0.5058390000000  0.5887300000000  0.4645630000000 1.0
C      1  0.4920900000000  0.5380250000000  0.5849570000000 1.0
C      1  0.5046310000000  0.4152150000000  0.5242500000000 1.0
C      1  0.4878170000000  0.4591260000000  0.4059890000000 1.0
C      1  0.5540470000000  0.5187820000000  0.5748770000000 1.0
C      1  0.4411510000000  0.4275150000000  0.5232820000000 1.0
C      1  0.5343150000000  0.4792540000000  0.4291760000000 1.0
C      1  0.4432560000000  0.5743720000000  0.4782210000000 1.0
C      1  0.4376410000000  0.4708630000000  0.5463330000000 1.0
C      1  0.5640910000000  0.4440620000000  0.4610480000000 1.0
C      1  0.4327340000000  0.5325550000000  0.4515220000000 1.0
C      1  0.5624590000000  0.5402380000000  0.5310480000000 1.0
C      1  0.4791340000000  0.5119260000000  0.5171930000000 1.0
C      1  0.5427710000000  0.4748420000000  0.5179410000000 1.0
C      1  0.4708760000000  0.4896920000000  0.4768870000000 1.0
C      1  0.5296080000000  0.5178380000000  0.4934600000000 1.0
C      1  0.4842580000000  0.4119060000000  0.5525740000000 1.0
C      1  0.5111110000000  0.4319740000000  0.4232630000000 1.0
C      1  0.4802170000000  0.5890920000000  0.4406540000000 1.0
C      1  0.5187980000000  0.5575740000000  0.5769650000000 1.0
C      1  0.5388880000000  0.4638300000000  0.5917830000000 1.0
C      1  0.4569380000000  0.3952270000000  0.4753340000000 1.0
C      1  0.5395860000000  0.5273560000000  0.4178210000000 1.0
C      1  0.4525770000000  0.5814860000000  0.5334120000000 1.0
C      1  0.4817080000000  0.4042760000000  0.4844900000000 1.0
C      1  0.5185770000000  0.5127020000000  0.4144550000000 1.0
C      1  0.4673950000000  0.5875300000000  0.5138210000000 1.0
C      1  0.5178250000000  0.4771560000000  0.5878090000000 1.0
C      1  0.4199440000000  0.4756820000000  0.4733850000000 1.0
C      1  0.5828090000000  0.5239520000000  0.4676700000000 1.0
C      1  0.4125840000000  0.5296840000000  0.5276870000000 1.0
C      1  0.5992080000000  0.4737180000000  0.5284200000000 1.0
C      1  0.4294440000000  0.5645720000000  0.4552810000000 1.0
C      1  0.5664950000000  0.5411240000000  0.5628570000000 1.0
C      1  0.4320800000000  0.4400470000000  0.5458010000000 1.0
C      1  0.5617250000000  0.4626740000000  0.4380370000000 1.0
C      1  0.4518110000000  0.4288390000000  0.4749110000000 1.0
C      1  0.5444630000000  0.5356570000000  0.4474790000000 1.0
C      1  0.4475860000000  0.5498670000000  0.5351410000000 1.0
C      1  0.5605480000000  0.4643770000000  0.5685310000000 1.0
C      1  0.5520630000000  0.5025240000000  0.4465110000000 1.0
C      1  0.4353330000000  0.5559070000000  0.5054280000000 1.0
C      1  0.5644830000000  0.4933730000000  0.5593160000000 1.0
C      1  0.4322770000000  0.4374020000000  0.4986200000000 1.0
C      1  0.4540820000000  0.4946860000000  0.5632430000000 1.0
C      1  0.5572940000000  0.4156960000000  0.4786080000000 1.0
C      1  0.4373450000000  0.5324520000000  0.4178270000000 1.0
C      1  0.5545200000000  0.5709560000000  0.5214760000000 1.0
C      1  0.4615380000000  0.4374730000000  0.4465330000000 1.0
C      1  0.5376050000000  0.5673850000000  0.4453020000000 1.0
C      1  0.4626540000000  0.5557900000000  0.5646190000000 1.0
C      1  0.5329510000000  0.4510820000000  0.5543530000000 1.0
C      1  0.5724710000000  0.4813940000000  0.5088580000000 1.0
C      1  0.4385300000000  0.4996930000000  0.4801660000000 1.0
C      1  0.5720680000000  0.5096320000000  0.4937860000000 1.0
C      1  0.4332990000000  0.5110940000000  0.5098460000000 1.0
C      1  0.4779330000000  0.4359210000000  0.4963600000000 1.0
C      1  0.5092660000000  0.4976360000000  0.4420010000000 1.0
C      1  0.4721620000000  0.5623350000000  0.4914850000000 1.0
C      1  0.5150710000000  0.4995160000000  0.5653330000000 1.0
C      1  0.4761830000000  0.4919660000000  0.5958780000000 1.0
C      1  0.5507880000000  0.3904190000000  0.4953020000000 1.0
C      1  0.4619510000000  0.5099630000000  0.4122510000000 1.0
C      1  0.5251600000000  0.6066400000000  0.5090760000000 1.0
C      1  0.5860940000000  0.5213080000000  0.5211150000000 1.0
C      1  0.4192790000000  0.4816800000000  0.5198370000000 1.0
C      1  0.5830100000000  0.4748370000000  0.4775380000000 1.0
C      1  0.4141000000000  0.5231550000000  0.4769760000000 1.0
C      1  0.5037820000000  0.5248010000000  0.5455990000000 1.0
C      1  0.5012660000000  0.4549880000000  0.5121490000000 1.0
C      1  0.4930810000000  0.4762860000000  0.4569390000000 1.0
C      1  0.5000780000000  0.5527480000000  0.4851390000000 1.0
C      1  0.5129740000000  0.5419280000000  0.5107630000000 1.0
C      1  0.4890670000000  0.4937000000000  0.5441720000000 1.0
C      1  0.5168290000000  0.4760750000000  0.4959750000000 1.0
C      1  0.4964900000000  0.5211560000000  0.4608690000000 1.0
C      1  0.4888820000000  0.5725300000000  0.5781680000000 1.0
C      1  0.5135880000000  0.4272660000000  0.5547560000000 1.0
C      1  0.4798230000000  0.4314740000000  0.4184710000000 1.0
C      1  0.5123290000000  0.5822460000000  0.4318250000000 1.0
C      1  0.4598710000000  0.5209380000000  0.5437390000000 1.0
C      1  0.5485390000000  0.4415930000000  0.5137500000000 1.0
C      1  0.4569170000000  0.4890920000000  0.4458770000000 1.0
C      1  0.5507510000000  0.5439020000000  0.4993290000000 1.0
C      1  0.4403420000000  0.5312330000000  0.5697000000000 1.0
C      1  0.5637200000000  0.4418400000000  0.5437680000000 1.0
C      1  0.4453970000000  0.4599670000000  0.4327510000000 1.0
C      1  0.5522000000000  0.5627560000000  0.4731920000000 1.0
C      1  0.4089700000000  0.5405940000000  0.4987020000000 1.0
C      1  0.5888040000000  0.4985710000000  0.5410510000000 1.0
C      1  0.4165000000000  0.4609740000000  0.4968920000000 1.0
C      1  0.5816310000000  0.4945960000000  0.4580460000000 1.0
C      1  0.4659400000000  0.4673750000000  0.4986950000000 1.0
C      1  0.5468190000000  0.4950500000000  0.4777190000000 1.0
C      1  0.4581760000000  0.5315590000000  0.4989160000000 1.0
C      1  0.5383000000000  0.4940400000000  0.5411090000000 1.0
C      1  0.5138060000000  0.4315890000000  0.4530540000000 1.0
C      1  0.4879120000000  0.5574800000000  0.4322220000000 1.0
C      1  0.5091240000000  0.5747010000000  0.5494100000000 1.0
C      1  0.4846430000000  0.4447300000000  0.5614370000000 1.0
C      1  0.5829330000000  0.5506260000000  0.4768120000000 1.0
C      1  0.4151720000000  0.5204190000000  0.5538800000000 1.0
C      1  0.5869610000000  0.4469360000000  0.5228700000000 1.0
C      1  0.4196750000000  0.4747730000000  0.4453030000000 1.0
C      1  0.5042160000000  0.4634300000000  0.5408620000000 1.0
C      1  0.4903690000000  0.4493270000000  0.4525830000000 1.0
C      1  0.5101330000000  0.5500590000000  0.4553660000000 1.0
C      1  0.4893280000000  0.5490660000000  0.5466360000000 1.0
C      1  0.4649230000000  0.4761110000000  0.5279170000000 1.0
C      1  0.5430800000000  0.4630030000000  0.4799230000000 1.0
C      1  0.4633180000000  0.5271270000000  0.4653730000000 1.0
C      1  0.5328990000000  0.5247450000000  0.5323110000000 1.0
C      1  0.4290110000000  0.5035320000000  0.4341920000000 1.0
C      1  0.5925370000000  0.5496230000000  0.5033320000000 1.0
C      1  0.4116280000000  0.4919480000000  0.5522670000000 1.0
C      1  0.5763980000000  0.4451310000000  0.4927290000000 1.0
C      1  0.5295490000000  0.4334300000000  0.4775110000000 1.0
C      1  0.4678160000000  0.5363670000000  0.4328560000000 1.0
C      1  0.5215880000000  0.5740210000000  0.5180150000000 1.0
C      1  0.4801680000000  0.4742640000000  0.5708900000000 1.0
C      1  0.4985710000000  0.5042410000000  0.4902960000000 1.0
END
