TITL C-3289332-8317-509 1147.15764386663 125000 -413.218625732163 0 0 77 (C1) n - 1
REM
REM in /nfs/bkarasulu/CARBON/AIRSS/Generating-Clusters/AIREBO/with-SteepDescent/Higher-Symm/SD-CG/HFTN-CG
REM
REM
REM
REM
REM
REM ./C.cell (b20cbc046b6831c77cfcea5457e17084)
REM
REM compiler GCC version 9.2.1 20190827 (Red Hat 9.2.1-1)
REM options -cpp -mtune=generic -march=x86-64 -g -O0 -fpre-include=/usr/include/finclude/math-vector-fortran.h
REM seed 834893979 -1721550428 437383150 943470145 -2125765805 -165884681 -1904723836 -584437739 -1651607225 1466560603 -447060442 -1889877987 1738302367 1068279320 -559041325 1952112308 -1243074028 -364025893 -782765410 -856023277 -1733168593 1899231092 1833459048 -544476914 -904113911 1242246312 -1117354208 -1860409775 964113966 -1460193862 976925488 -1591998289 1594511244
REM
CELL 1.54180   50.00000   50.00000   50.00000   90.00000   90.00000   90.00000
LATT -1
SFAC C  
C      1  0.5311670000000  0.4437100000000  0.5321500000000 1.0
C      1  0.4663120000000  0.5535930000000  0.5342810000000 1.0
C      1  0.5345840000000  0.4317250000000  0.4702310000000 1.0
C      1  0.4638860000000  0.5628890000000  0.4661860000000 1.0
C      1  0.4979160000000  0.4419290000000  0.4530300000000 1.0
C      1  0.5065450000000  0.5535910000000  0.4422370000000 1.0
C      1  0.4944770000000  0.4449220000000  0.5477280000000 1.0
C      1  0.5039680000000  0.5537260000000  0.5518420000000 1.0
C      1  0.5160070000000  0.5219720000000  0.4199940000000 1.0
C      1  0.4874160000000  0.4803560000000  0.4242690000000 1.0
C      1  0.5276650000000  0.5269000000000  0.5693590000000 1.0
C      1  0.4746040000000  0.4664270000000  0.5748940000000 1.0
C      1  0.5226650000000  0.5565220000000  0.5742870000000 1.0
C      1  0.4791150000000  0.4367530000000  0.5712890000000 1.0
C      1  0.5216240000000  0.5510160000000  0.4118720000000 1.0
C      1  0.4803920000000  0.4504380000000  0.4332330000000 1.0
C      1  0.5692580000000  0.5250400000000  0.4868070000000 1.0
C      1  0.4421720000000  0.4861620000000  0.4889740000000 1.0
C      1  0.5662560000000  0.5048350000000  0.5090810000000 1.0
C      1  0.4384590000000  0.4849660000000  0.5165530000000 1.0
C      1  0.5281050000000  0.5286980000000  0.4510620000000 1.0
C      1  0.4668350000000  0.4849670000000  0.4481170000000 1.0
C      1  0.5458040000000  0.5203800000000  0.5491910000000 1.0
C      1  0.4539390000000  0.4759470000000  0.5587180000000 1.0
C      1  0.5119490000000  0.5341770000000  0.4950080000000 1.0
C      1  0.4897390000000  0.4709940000000  0.4950910000000 1.0
C      1  0.5189420000000  0.5483450000000  0.5251210000000 1.0
C      1  0.4783600000000  0.4541160000000  0.5210640000000 1.0
C      1  0.5026710000000  0.4818530000000  0.5767220000000 1.0
C      1  0.5001340000000  0.5122600000000  0.5730090000000 1.0
C      1  0.5192510000000  0.4770380000000  0.4247460000000 1.0
C      1  0.4943870000000  0.5077450000000  0.4107320000000 1.0
C      1  0.5320830000000  0.4737150000000  0.3972560000000 1.0
C      1  0.4721350000000  0.5222020000000  0.4033580000000 1.0
C      1  0.5146110000000  0.4769400000000  0.6050550000000 1.0
C      1  0.4827970000000  0.5254570000000  0.5966490000000 1.0
C      1  0.5441280000000  0.5292940000000  0.5173390000000 1.0
C      1  0.4537720000000  0.4677740000000  0.5319190000000 1.0
C      1  0.5407760000000  0.5320910000000  0.4813230000000 1.0
C      1  0.4658220000000  0.4753810000000  0.4739240000000 1.0
C      1  0.4378720000000  0.4986070000000  0.5607670000000 1.0
C      1  0.5619490000000  0.4986890000000  0.5537480000000 1.0
C      1  0.4485050000000  0.5044940000000  0.4426570000000 1.0
C      1  0.5314490000000  0.4976390000000  0.4476550000000 1.0
C      1  0.5070430000000  0.5798120000000  0.5218550000000 1.0
C      1  0.4887150000000  0.4229910000000  0.5150070000000 1.0
C      1  0.5069710000000  0.5678500000000  0.4929610000000 1.0
C      1  0.4864910000000  0.4386200000000  0.4848890000000 1.0
C      1  0.4525130000000  0.5122830000000  0.4816320000000 1.0
C      1  0.5286350000000  0.4841640000000  0.4750270000000 1.0
C      1  0.4772330000000  0.5186070000000  0.4992310000000 1.0
C      1  0.5361240000000  0.4898290000000  0.5064980000000 1.0
C      1  0.5678420000000  0.4788300000000  0.5281720000000 1.0
C      1  0.4346360000000  0.5141550000000  0.5307010000000 1.0
C      1  0.5747710000000  0.4658540000000  0.4646140000000 1.0
C      1  0.4336530000000  0.5310900000000  0.4532030000000 1.0
C      1  0.5176420000000  0.4207050000000  0.5259860000000 1.0
C      1  0.4776180000000  0.5784530000000  0.5319350000000 1.0
C      1  0.5135970000000  0.4183960000000  0.4813430000000 1.0
C      1  0.4819760000000  0.5809060000000  0.4765430000000 1.0
C      1  0.4709560000000  0.3989410000000  0.5189030000000 1.0
C      1  0.5245470000000  0.6021280000000  0.5317480000000 1.0
C      1  0.4581010000000  0.4309890000000  0.4787770000000 1.0
C      1  0.5102310000000  0.5774880000000  0.4615220000000 1.0
C      1  0.4569220000000  0.5324620000000  0.4280540000000 1.0
C      1  0.5532560000000  0.4726320000000  0.4451560000000 1.0
C      1  0.4488110000000  0.5276740000000  0.5588570000000 1.0
C      1  0.5504110000000  0.4691660000000  0.5560480000000 1.0
C      1  0.5477900000000  0.4585570000000  0.5135800000000 1.0
C      1  0.4528190000000  0.5352970000000  0.5140480000000 1.0
C      1  0.5470590000000  0.4585490000000  0.4820220000000 1.0
C      1  0.4444830000000  0.5444200000000  0.4820460000000 1.0
C      1  0.5284120000000  0.4518180000000  0.4456680000000 1.0
C      1  0.4752110000000  0.5512680000000  0.4430020000000 1.0
C      1  0.5194340000000  0.4626160000000  0.5565590000000 1.0
C      1  0.4792050000000  0.5344150000000  0.5579150000000 1.0
C      1  0.5048110000000  0.5011870000000  0.4995810000000 1.0
END
