TITL C-3289320-4661-703 0.00154137850002097 125000 -1081.20195914926 0 0 195 (C1) n - 1
REM
REM in /nfs/bkarasulu/CARBON/AIRSS/Generating-Clusters/AIREBO/with-SteepDescent/Higher-Symm/SD-CG/HFTN-CG
REM
REM
REM
REM
REM
REM ./C.cell (b20cbc046b6831c77cfcea5457e17084)
REM
REM compiler GCC version 9.2.1 20190827 (Red Hat 9.2.1-1)
REM options -cpp -mtune=generic -march=x86-64 -g -O0 -fpre-include=/usr/include/finclude/math-vector-fortran.h
REM seed -1301885767 1878748280 -138035312 745827115 -2080876363 -71979232 -1808129367 -1640873322 1355949802 431001287 2080026466 1639299053 -271654522 531520206 473261779 694227389 -640748728 -1663454241 -78321580 1361787650 1137451779 139940071 -2132580210 -1677085982 1822022380 -1813648910 2109867777 -626407155 697557300 834416557 -227884916 -1846807864 -1829507990
REM
CELL 1.54180   50.00000   50.00000   50.00000   90.00000   90.00000   90.00000
LATT -1
SFAC C  
C      1  0.5386810000000  0.5346640000000  0.5183120000000 1.0
C      1  0.5487920000000  0.5392240000000  0.4650990000000 1.0
C      1  0.4304430000000  0.5406340000000  0.5713630000000 1.0
C      1  0.4309420000000  0.5447120000000  0.4253790000000 1.0
C      1  0.5786280000000  0.4308330000000  0.4635940000000 1.0
C      1  0.5810190000000  0.4361480000000  0.5296410000000 1.0
C      1  0.5519590000000  0.4677230000000  0.4265670000000 1.0
C      1  0.5549160000000  0.4700660000000  0.5831710000000 1.0
C      1  0.5236660000000  0.5104990000000  0.5650960000000 1.0
C      1  0.5213610000000  0.5134540000000  0.4291030000000 1.0
C      1  0.5070450000000  0.4609460000000  0.4340520000000 1.0
C      1  0.5035030000000  0.4580820000000  0.5731060000000 1.0
C      1  0.4588970000000  0.4196960000000  0.4506050000000 1.0
C      1  0.4553980000000  0.4170390000000  0.5525480000000 1.0
C      1  0.4382700000000  0.4873160000000  0.5937090000000 1.0
C      1  0.4455220000000  0.4971860000000  0.4182590000000 1.0
C      1  0.4000800000000  0.4643700000000  0.4661500000000 1.0
C      1  0.3960170000000  0.4688710000000  0.5318950000000 1.0
C      1  0.5416130000000  0.4882000000000  0.6060330000000 1.0
C      1  0.5458840000000  0.4832550000000  0.4000770000000 1.0
C      1  0.5025060000000  0.5536680000000  0.6127190000000 1.0
C      1  0.5083850000000  0.5427570000000  0.3805550000000 1.0
C      1  0.5684830000000  0.5010340000000  0.5793450000000 1.0
C      1  0.5584720000000  0.4998520000000  0.4341990000000 1.0
C      1  0.5072800000000  0.5281240000000  0.5296190000000 1.0
C      1  0.5020710000000  0.5373740000000  0.4629320000000 1.0
C      1  0.5233780000000  0.4980990000000  0.4018610000000 1.0
C      1  0.5204810000000  0.5032900000000  0.5980580000000 1.0
C      1  0.4840010000000  0.4834250000000  0.5664000000000 1.0
C      1  0.4816830000000  0.4810280000000  0.4235430000000 1.0
C      1  0.5888030000000  0.5286820000000  0.5476510000000 1.0
C      1  0.5963860000000  0.5311390000000  0.4429710000000 1.0
C      1  0.4293230000000  0.4740300000000  0.4299320000000 1.0
C      1  0.4306450000000  0.4657320000000  0.5734400000000 1.0
C      1  0.4629690000000  0.4315670000000  0.5950520000000 1.0
C      1  0.4629370000000  0.4399280000000  0.4085380000000 1.0
C      1  0.5490210000000  0.4707830000000  0.4598520000000 1.0
C      1  0.5507460000000  0.4710090000000  0.5494310000000 1.0
C      1  0.4372280000000  0.4472870000000  0.4141240000000 1.0
C      1  0.4377330000000  0.4384670000000  0.5869970000000 1.0
C      1  0.4998590000000  0.4926370000000  0.3898850000000 1.0
C      1  0.4956700000000  0.5086970000000  0.6098270000000 1.0
C      1  0.5689290000000  0.4962040000000  0.4664040000000 1.0
C      1  0.5764680000000  0.4830010000000  0.5387580000000 1.0
C      1  0.4648540000000  0.5509950000000  0.4643370000000 1.0
C      1  0.4636580000000  0.5433580000000  0.5309470000000 1.0
C      1  0.4716930000000  0.4030980000000  0.5361760000000 1.0
C      1  0.4589340000000  0.3969100000000  0.4605060000000 1.0
C      1  0.4883880000000  0.4552940000000  0.4736270000000 1.0
C      1  0.4949420000000  0.4513030000000  0.5238140000000 1.0
C      1  0.4898260000000  0.5858560000000  0.4571140000000 1.0
C      1  0.4895540000000  0.5893690000000  0.5396590000000 1.0
C      1  0.4665000000000  0.5879520000000  0.4130370000000 1.0
C      1  0.4681200000000  0.5842800000000  0.5867870000000 1.0
C      1  0.5115660000000  0.5048090000000  0.4605760000000 1.0
C      1  0.5239550000000  0.4990170000000  0.5352980000000 1.0
C      1  0.4090370000000  0.5129960000000  0.4543340000000 1.0
C      1  0.4195650000000  0.5102900000000  0.5427130000000 1.0
C      1  0.4064420000000  0.4852960000000  0.4488090000000 1.0
C      1  0.4115160000000  0.4816320000000  0.5501870000000 1.0
C      1  0.4704630000000  0.5476720000000  0.4305630000000 1.0
C      1  0.4659160000000  0.5550290000000  0.5598890000000 1.0
C      1  0.4462780000000  0.5825960000000  0.5631570000000 1.0
C      1  0.4546210000000  0.5746040000000  0.4420910000000 1.0
C      1  0.4095500000000  0.5434560000000  0.4456640000000 1.0
C      1  0.4201700000000  0.5418470000000  0.5402240000000 1.0
C      1  0.4885620000000  0.4314110000000  0.5854580000000 1.0
C      1  0.4879420000000  0.4371570000000  0.4190380000000 1.0
C      1  0.5469870000000  0.5527880000000  0.5707440000000 1.0
C      1  0.5376390000000  0.5633200000000  0.4300080000000 1.0
C      1  0.4770790000000  0.4871410000000  0.4698980000000 1.0
C      1  0.4799550000000  0.4768570000000  0.5335040000000 1.0
C      1  0.4613910000000  0.5915330000000  0.4707910000000 1.0
C      1  0.4593340000000  0.5871650000000  0.5328050000000 1.0
C      1  0.4360910000000  0.5134380000000  0.5785240000000 1.0
C      1  0.4423430000000  0.5197030000000  0.4335440000000 1.0
C      1  0.5173640000000  0.5617140000000  0.5717570000000 1.0
C      1  0.5117440000000  0.5668360000000  0.4199970000000 1.0
C      1  0.4594740000000  0.4713770000000  0.4454250000000 1.0
C      1  0.4512970000000  0.4684040000000  0.5473690000000 1.0
C      1  0.4690070000000  0.4986030000000  0.3973110000000 1.0
C      1  0.4685660000000  0.4961800000000  0.5939900000000 1.0
C      1  0.5878800000000  0.5665760000000  0.4759630000000 1.0
C      1  0.5877850000000  0.5586350000000  0.5313180000000 1.0
C      1  0.4657540000000  0.5311610000000  0.3934390000000 1.0
C      1  0.4687760000000  0.5287630000000  0.6037100000000 1.0
C      1  0.5698630000000  0.5846850000000  0.5326260000000 1.0
C      1  0.5713340000000  0.5889220000000  0.4728250000000 1.0
C      1  0.4074010000000  0.5692090000000  0.5330750000000 1.0
C      1  0.4076130000000  0.5662800000000  0.4621420000000 1.0
C      1  0.4520250000000  0.5546220000000  0.5909690000000 1.0
C      1  0.4503780000000  0.5589610000000  0.4055560000000 1.0
C      1  0.5493720000000  0.5218100000000  0.5775560000000 1.0
C      1  0.5460260000000  0.5315010000000  0.4343130000000 1.0
C      1  0.5061170000000  0.5597580000000  0.5420470000000 1.0
C      1  0.5067360000000  0.5657420000000  0.4718010000000 1.0
C      1  0.4465400000000  0.4460080000000  0.4606260000000 1.0
C      1  0.4413630000000  0.4384510000000  0.5450200000000 1.0
C      1  0.5597670000000  0.5421510000000  0.5412830000000 1.0
C      1  0.5795820000000  0.5466840000000  0.4587680000000 1.0
C      1  0.4894260000000  0.5126860000000  0.4284040000000 1.0
C      1  0.4942190000000  0.5156060000000  0.5705740000000 1.0
C      1  0.4952690000000  0.5397860000000  0.4086830000000 1.0
C      1  0.4897450000000  0.5449900000000  0.5824150000000 1.0
C      1  0.5361400000000  0.4407840000000  0.4330810000000 1.0
C      1  0.5350330000000  0.4440650000000  0.5737790000000 1.0
C      1  0.5899340000000  0.5050200000000  0.4425220000000 1.0
C      1  0.5858040000000  0.5024590000000  0.5566890000000 1.0
C      1  0.5436680000000  0.4239830000000  0.5231290000000 1.0
C      1  0.5359970000000  0.4237920000000  0.4772270000000 1.0
C      1  0.5155960000000  0.4010720000000  0.5550010000000 1.0
C      1  0.5082730000000  0.4011290000000  0.4490010000000 1.0
C      1  0.4923260000000  0.5854580000000  0.4294090000000 1.0
C      1  0.4941890000000  0.5842960000000  0.5712460000000 1.0
C      1  0.4184990000000  0.4343160000000  0.5266090000000 1.0
C      1  0.4153020000000  0.4425900000000  0.4589810000000 1.0
C      1  0.5456670000000  0.5785270000000  0.5491630000000 1.0
C      1  0.5526250000000  0.5851030000000  0.4477330000000 1.0
C      1  0.5559240000000  0.4391790000000  0.5473890000000 1.0
C      1  0.5524940000000  0.4295140000000  0.4559780000000 1.0
C      1  0.4498400000000  0.4997790000000  0.5519590000000 1.0
C      1  0.4407680000000  0.5184290000000  0.4653250000000 1.0
C      1  0.5142940000000  0.4198740000000  0.5758590000000 1.0
C      1  0.5107420000000  0.4216020000000  0.4293510000000 1.0
C      1  0.4258870000000  0.5893760000000  0.5391710000000 1.0
C      1  0.4287930000000  0.5870810000000  0.4591180000000 1.0
C      1  0.5168070000000  0.4050670000000  0.4755980000000 1.0
C      1  0.5206580000000  0.4040760000000  0.5286710000000 1.0
C      1  0.4739790000000  0.5188480000000  0.4580000000000 1.0
C      1  0.4787030000000  0.5152900000000  0.5428730000000 1.0
C      1  0.5366330000000  0.5678940000000  0.4697170000000 1.0
C      1  0.5289660000000  0.5732500000000  0.5221190000000 1.0
C      1  0.5174120000000  0.4675250000000  0.5436530000000 1.0
C      1  0.5162200000000  0.4726470000000  0.4646330000000 1.0
C      1  0.4247000000000  0.4575120000000  0.5054910000000 1.0
C      1  0.5205880000000  0.4710240000000  0.4983170000000 1.0
C      1  0.5842520000000  0.3885630000000  0.5023810000000 1.0
C      1  0.4361840000000  0.5173300000000  0.4954130000000 1.0
C      1  0.5391780000000  0.4424920000000  0.4999970000000 1.0
C      1  0.6419170000000  0.4844850000000  0.5031730000000 1.0
C      1  0.4264010000000  0.5457220000000  0.5069820000000 1.0
C      1  0.5602250000000  0.5990390000000  0.5033330000000 1.0
C      1  0.6197420000000  0.5328890000000  0.4995340000000 1.0
C      1  0.3695260000000  0.4884970000000  0.5004320000000 1.0
C      1  0.4807600000000  0.6258690000000  0.5032970000000 1.0
C      1  0.5683630000000  0.5393360000000  0.5023770000000 1.0
C      1  0.5842960000000  0.4395970000000  0.4959640000000 1.0
C      1  0.6451220000000  0.4552300000000  0.5080380000000 1.0
C      1  0.5783310000000  0.6236220000000  0.5043980000000 1.0
C      1  0.4316380000000  0.3846750000000  0.5045620000000 1.0
C      1  0.5314760000000  0.3548600000000  0.5019720000000 1.0
C      1  0.5306170000000  0.6141360000000  0.5041380000000 1.0
C      1  0.6050390000000  0.5057310000000  0.4965070000000 1.0
C      1  0.6004280000000  0.4096630000000  0.4952660000000 1.0
C      1  0.6182570000000  0.4389820000000  0.4977810000000 1.0
C      1  0.4806640000000  0.4375810000000  0.5003360000000 1.0
C      1  0.4326220000000  0.5981080000000  0.4973000000000 1.0
C      1  0.3941540000000  0.4301020000000  0.5032460000000 1.0
C      1  0.4552350000000  0.4830250000000  0.5028250000000 1.0
C      1  0.4230150000000  0.4881350000000  0.4928980000000 1.0
C      1  0.4588860000000  0.5501430000000  0.4979490000000 1.0
C      1  0.4479910000000  0.3586610000000  0.5099070000000 1.0
C      1  0.5396840000000  0.4962350000000  0.5075040000000 1.0
C      1  0.5825130000000  0.4768450000000  0.5104060000000 1.0
C      1  0.5101110000000  0.6353660000000  0.4970930000000 1.0
C      1  0.4766240000000  0.3600670000000  0.5005920000000 1.0
C      1  0.4126880000000  0.5731590000000  0.4929050000000 1.0
C      1  0.5019820000000  0.5694380000000  0.5023760000000 1.0
C      1  0.4907850000000  0.5390680000000  0.5019720000000 1.0
C      1  0.5705430000000  0.5055180000000  0.4965930000000 1.0
C      1  0.5065830000000  0.3952330000000  0.5024790000000 1.0
C      1  0.3767010000000  0.5399050000000  0.5060420000000 1.0
C      1  0.5359260000000  0.5227000000000  0.4866000000000 1.0
C      1  0.5991310000000  0.5538100000000  0.5023990000000 1.0
C      1  0.5612890000000  0.4637130000000  0.4892300000000 1.0
C      1  0.4525040000000  0.6210950000000  0.5013580000000 1.0
C      1  0.5493580000000  0.5672270000000  0.4981090000000 1.0
C      1  0.4621920000000  0.5135040000000  0.5132040000000 1.0
C      1  0.4790090000000  0.4073890000000  0.5061730000000 1.0
C      1  0.4524240000000  0.4515800000000  0.4901930000000 1.0
C      1  0.3669830000000  0.5153780000000  0.5002820000000 1.0
C      1  0.4147660000000  0.4049740000000  0.5099120000000 1.0
C      1  0.6461560000000  0.5098410000000  0.4983520000000 1.0
C      1  0.3919510000000  0.4637080000000  0.4985230000000 1.0
C      1  0.5549780000000  0.3706630000000  0.5009420000000 1.0
C      1  0.6519030000000  0.5398760000000  0.4919130000000 1.0
C      1  0.4604270000000  0.5819760000000  0.5020590000000 1.0
C      1  0.4597010000000  0.3903910000000  0.4892240000000 1.0
C      1  0.4892170000000  0.4838170000000  0.5015110000000 1.0
C      1  0.5045370000000  0.3650010000000  0.5019040000000 1.0
C      1  0.6116030000000  0.4723820000000  0.4955420000000 1.0
C      1  0.5582360000000  0.3972610000000  0.5176750000000 1.0
C      1  0.5045670000000  0.5122740000000  0.4930130000000 1.0
C      1  0.5011140000000  0.6004430000000  0.5133550000000 1.0
C      1  0.3877990000000  0.5648630000000  0.5115550000000 1.0
END
