TITL C-3289332-8317-563 0.000693950397497519 125000 -1027.28097029709 0 0 196 (C1) n - 1
REM
REM in /nfs/bkarasulu/CARBON/AIRSS/Generating-Clusters/AIREBO/with-SteepDescent/Higher-Symm/SD-CG/HFTN-CG
REM
REM
REM
REM
REM
REM ./C.cell (b20cbc046b6831c77cfcea5457e17084)
REM
REM compiler GCC version 9.2.1 20190827 (Red Hat 9.2.1-1)
REM options -cpp -mtune=generic -march=x86-64 -g -O0 -fpre-include=/usr/include/finclude/math-vector-fortran.h
REM seed -324221109 -829240921 -1362781813 -1623778635 435206741 -884232645 -1150430526 -1808695628 -1107109150 -774598650 -1647915944 440842699 -131623711 -1825541006 1630573928 -236638624 -429826244 -796069028 -1394592761 -2138817747 -2027369902 -1058134648 483985193 -594703321 -1760619453 -881565063 -743879137 1381650141 624144202 -943538841 -1732769460 -220972596 -665584122
REM
CELL 1.54180   50.00000   50.00000   50.00000   90.00000   90.00000   90.00000
LATT -1
SFAC C  
C      1  0.5529470000000  0.5648890000000  0.5019810000000 1.0
C      1  0.4933920000000  0.5609450000000  0.4402060000000 1.0
C      1  0.4408580000000  0.5550160000000  0.5049520000000 1.0
C      1  0.5046290000000  0.5500540000000  0.5576880000000 1.0
C      1  0.5654870000000  0.4398660000000  0.4923120000000 1.0
C      1  0.4944330000000  0.4390180000000  0.4417330000000 1.0
C      1  0.4426540000000  0.4427990000000  0.5011480000000 1.0
C      1  0.5063140000000  0.4500510000000  0.5607760000000 1.0
C      1  0.4215070000000  0.4883800000000  0.5209150000000 1.0
C      1  0.5328740000000  0.4823570000000  0.5863500000000 1.0
C      1  0.5831230000000  0.4789420000000  0.4675380000000 1.0
C      1  0.4810920000000  0.4834850000000  0.4230210000000 1.0
C      1  0.4103100000000  0.5140090000000  0.5321150000000 1.0
C      1  0.5128070000000  0.5066890000000  0.5833780000000 1.0
C      1  0.5777870000000  0.5082050000000  0.4784490000000 1.0
C      1  0.4793910000000  0.5151830000000  0.4206110000000 1.0
C      1  0.5361140000000  0.3915250000000  0.5102380000000 1.0
C      1  0.5084840000000  0.3886430000000  0.4674980000000 1.0
C      1  0.4625480000000  0.3838640000000  0.4916500000000 1.0
C      1  0.4896650000000  0.3920670000000  0.5367460000000 1.0
C      1  0.5354500000000  0.6061410000000  0.5123970000000 1.0
C      1  0.5088720000000  0.6130610000000  0.4667800000000 1.0
C      1  0.4620230000000  0.6125510000000  0.4911960000000 1.0
C      1  0.4892440000000  0.6127690000000  0.5353610000000 1.0
C      1  0.4988080000000  0.5293400000000  0.4416190000000 1.0
C      1  0.4466870000000  0.5267610000000  0.4946910000000 1.0
C      1  0.4989870000000  0.5167040000000  0.5539490000000 1.0
C      1  0.5568540000000  0.5049090000000  0.5050790000000 1.0
C      1  0.5036650000000  0.4693570000000  0.4441770000000 1.0
C      1  0.4422250000000  0.4920030000000  0.4937620000000 1.0
C      1  0.4975990000000  0.4825490000000  0.5557170000000 1.0
C      1  0.5672880000000  0.4735710000000  0.4966550000000 1.0
C      1  0.5288270000000  0.4289410000000  0.5464490000000 1.0
C      1  0.5513290000000  0.4233220000000  0.4681750000000 1.0
C      1  0.4684180000000  0.4182600000000  0.4486980000000 1.0
C      1  0.4470900000000  0.4235680000000  0.5288400000000 1.0
C      1  0.5286710000000  0.5739270000000  0.5534210000000 1.0
C      1  0.5498990000000  0.5751750000000  0.4715610000000 1.0
C      1  0.4707570000000  0.5769700000000  0.4555010000000 1.0
C      1  0.4495300000000  0.5769400000000  0.5295140000000 1.0
C      1  0.5120540000000  0.5270370000000  0.6078270000000 1.0
C      1  0.5999370000000  0.5279460000000  0.4877540000000 1.0
C      1  0.4865860000000  0.5288690000000  0.3920910000000 1.0
C      1  0.3912580000000  0.5307760000000  0.5132420000000 1.0
C      1  0.5099460000000  0.4711350000000  0.6088110000000 1.0
C      1  0.6089540000000  0.4682310000000  0.4868780000000 1.0
C      1  0.4875730000000  0.4696130000000  0.3933810000000 1.0
C      1  0.3962600000000  0.4718850000000  0.5107240000000 1.0
C      1  0.5667600000000  0.4843520000000  0.4135060000000 1.0
C      1  0.4009840000000  0.4893910000000  0.4333440000000 1.0
C      1  0.4302480000000  0.4854420000000  0.5853500000000 1.0
C      1  0.5891640000000  0.4848410000000  0.5602760000000 1.0
C      1  0.5643240000000  0.5124410000000  0.4185720000000 1.0
C      1  0.4131100000000  0.5155100000000  0.4342080000000 1.0
C      1  0.4320280000000  0.5169860000000  0.5826940000000 1.0
C      1  0.5914410000000  0.5129540000000  0.5620260000000 1.0
C      1  0.4703560000000  0.5798780000000  0.4955700000000 1.0
C      1  0.4889970000000  0.5805650000000  0.5244510000000 1.0
C      1  0.5158130000000  0.5813040000000  0.5047430000000 1.0
C      1  0.5083240000000  0.5813100000000  0.4752740000000 1.0
C      1  0.4705440000000  0.4158300000000  0.4933120000000 1.0
C      1  0.4863150000000  0.4219960000000  0.5222840000000 1.0
C      1  0.5304990000000  0.4235650000000  0.5020950000000 1.0
C      1  0.5118170000000  0.4208330000000  0.4727520000000 1.0
C      1  0.5396120000000  0.4368460000000  0.4077050000000 1.0
C      1  0.4086000000000  0.4372840000000  0.4614260000000 1.0
C      1  0.4627730000000  0.4372980000000  0.5889940000000 1.0
C      1  0.5896180000000  0.4413250000000  0.5377940000000 1.0
C      1  0.5360420000000  0.5588100000000  0.4123450000000 1.0
C      1  0.4143120000000  0.5547840000000  0.4622830000000 1.0
C      1  0.4627450000000  0.5607820000000  0.5892440000000 1.0
C      1  0.5926690000000  0.5648410000000  0.5456100000000 1.0
C      1  0.4904930000000  0.4825070000000  0.5224650000000 1.0
C      1  0.5212360000000  0.4953890000000  0.5204710000000 1.0
C      1  0.5045920000000  0.4835800000000  0.4751310000000 1.0
C      1  0.4749790000000  0.4829380000000  0.4922110000000 1.0
C      1  0.4839410000000  0.5158560000000  0.5234510000000 1.0
C      1  0.5270210000000  0.5189600000000  0.5003780000000 1.0
C      1  0.5085140000000  0.5172000000000  0.4718920000000 1.0
C      1  0.4787400000000  0.5166270000000  0.4895800000000 1.0
C      1  0.5314780000000  0.5193580000000  0.5507800000000 1.0
C      1  0.5409300000000  0.5099980000000  0.4642130000000 1.0
C      1  0.4677440000000  0.5107710000000  0.4579190000000 1.0
C      1  0.4510910000000  0.5169710000000  0.5330000000000 1.0
C      1  0.5374310000000  0.4885300000000  0.5471570000000 1.0
C      1  0.5432440000000  0.4805410000000  0.4654630000000 1.0
C      1  0.4686300000000  0.4788930000000  0.4605450000000 1.0
C      1  0.4592370000000  0.4849390000000  0.5288530000000 1.0
C      1  0.4590060000000  0.4695260000000  0.5941110000000 1.0
C      1  0.6033590000000  0.4710290000000  0.5397280000000 1.0
C      1  0.5427560000000  0.4671470000000  0.3966510000000 1.0
C      1  0.4000240000000  0.4703890000000  0.4592270000000 1.0
C      1  0.4584620000000  0.5300300000000  0.5965170000000 1.0
C      1  0.6008570000000  0.5317800000000  0.5386870000000 1.0
C      1  0.5422020000000  0.5274590000000  0.4002700000000 1.0
C      1  0.3946190000000  0.5291750000000  0.4581760000000 1.0
C      1  0.5179390000000  0.5531030000000  0.5873840000000 1.0
C      1  0.5819300000000  0.5567840000000  0.4869080000000 1.0
C      1  0.4865280000000  0.5586620000000  0.4085280000000 1.0
C      1  0.4114480000000  0.5578410000000  0.5172840000000 1.0
C      1  0.5176280000000  0.4443550000000  0.5897270000000 1.0
C      1  0.5960600000000  0.4368440000000  0.4845610000000 1.0
C      1  0.4803110000000  0.4419700000000  0.4118330000000 1.0
C      1  0.4149900000000  0.4441550000000  0.5168000000000 1.0
C      1  0.4379750000000  0.5738730000000  0.4469930000000 1.0
C      1  0.4474250000000  0.5730560000000  0.5627270000000 1.0
C      1  0.5619720000000  0.5720940000000  0.5601530000000 1.0
C      1  0.5536320000000  0.5711500000000  0.4380830000000 1.0
C      1  0.4354870000000  0.4252060000000  0.4437250000000 1.0
C      1  0.4485930000000  0.4298880000000  0.5616210000000 1.0
C      1  0.5616830000000  0.4303570000000  0.5538990000000 1.0
C      1  0.5558850000000  0.4277070000000  0.4357900000000 1.0
C      1  0.5245060000000  0.5492770000000  0.5121600000000 1.0
C      1  0.5111080000000  0.5509930000000  0.4746130000000 1.0
C      1  0.4808600000000  0.5503850000000  0.4861230000000 1.0
C      1  0.4907660000000  0.5476790000000  0.5185410000000 1.0
C      1  0.5231780000000  0.4512060000000  0.5139050000000 1.0
C      1  0.5075740000000  0.4511500000000  0.4846300000000 1.0
C      1  0.4739900000000  0.4490580000000  0.4895210000000 1.0
C      1  0.4954650000000  0.4512830000000  0.5227310000000 1.0
C      1  0.4696260000000  0.5291550000000  0.5657620000000 1.0
C      1  0.5703960000000  0.5452860000000  0.5319190000000 1.0
C      1  0.5310760000000  0.5315980000000  0.4321450000000 1.0
C      1  0.4331210000000  0.5278840000000  0.4664720000000 1.0
C      1  0.4696030000000  0.4654880000000  0.5620560000000 1.0
C      1  0.5675340000000  0.4612270000000  0.5257100000000 1.0
C      1  0.5328840000000  0.4700490000000  0.4286540000000 1.0
C      1  0.4321570000000  0.4599910000000  0.4631510000000 1.0
C      1  0.4614620000000  0.4491620000000  0.4610650000000 1.0
C      1  0.4636170000000  0.4530180000000  0.5329740000000 1.0
C      1  0.5405710000000  0.4593710000000  0.5367710000000 1.0
C      1  0.5360890000000  0.4537120000000  0.4697180000000 1.0
C      1  0.4618370000000  0.5442570000000  0.4583620000000 1.0
C      1  0.4624560000000  0.5464630000000  0.5373480000000 1.0
C      1  0.5399010000000  0.5462840000000  0.5392590000000 1.0
C      1  0.5388640000000  0.5439110000000  0.4628750000000 1.0
C      1  0.5928880000000  0.4204280000000  0.5130510000000 1.0
C      1  0.5095930000000  0.4249840000000  0.4082560000000 1.0
C      1  0.4098180000000  0.4228990000000  0.4912720000000 1.0
C      1  0.4919630000000  0.4252930000000  0.5883150000000 1.0
C      1  0.5900140000000  0.5743470000000  0.5130670000000 1.0
C      1  0.5127040000000  0.5715890000000  0.4017510000000 1.0
C      1  0.4086660000000  0.5727540000000  0.4895170000000 1.0
C      1  0.4924240000000  0.5718810000000  0.5886460000000 1.0
C      1  0.4598510000000  0.3924620000000  0.5234930000000 1.0
C      1  0.5190180000000  0.4022430000000  0.5338350000000 1.0
C      1  0.5394090000000  0.3931010000000  0.4782710000000 1.0
C      1  0.4787870000000  0.3906230000000  0.4639450000000 1.0
C      1  0.4602010000000  0.6078780000000  0.5218960000000 1.0
C      1  0.5196280000000  0.6016900000000  0.5387900000000 1.0
C      1  0.5386560000000  0.6057340000000  0.4815460000000 1.0
C      1  0.4782160000000  0.6055440000000  0.4661630000000 1.0
C      1  0.6097050000000  0.5145240000000  0.5141020000000 1.0
C      1  0.5146470000000  0.5117840000000  0.3929390000000 1.0
C      1  0.3885060000000  0.5154850000000  0.4837230000000 1.0
C      1  0.4822810000000  0.5127070000000  0.6082710000000 1.0
C      1  0.6103310000000  0.4844430000000  0.5149840000000 1.0
C      1  0.5150650000000  0.4850450000000  0.3928240000000 1.0
C      1  0.3888190000000  0.4856950000000  0.4841830000000 1.0
C      1  0.4827060000000  0.4851490000000  0.6077350000000 1.0
C      1  0.4567180000000  0.5540180000000  0.4261770000000 1.0
C      1  0.4193110000000  0.5583910000000  0.5503690000000 1.0
C      1  0.5513340000000  0.5494690000000  0.5820980000000 1.0
C      1  0.5769380000000  0.5518530000000  0.4536310000000 1.0
C      1  0.4482260000000  0.4495740000000  0.4234970000000 1.0
C      1  0.4250090000000  0.4500880000000  0.5490500000000 1.0
C      1  0.5509090000000  0.4470930000000  0.5815840000000 1.0
C      1  0.5833890000000  0.4402690000000  0.4513900000000 1.0
C      1  0.4546270000000  0.5380150000000  0.3992590000000 1.0
C      1  0.3885810000000  0.5448560000000  0.5449950000000 1.0
C      1  0.5436620000000  0.5390170000000  0.6126390000000 1.0
C      1  0.6087820000000  0.5461220000000  0.4602750000000 1.0
C      1  0.4538880000000  0.4674390000000  0.3974540000000 1.0
C      1  0.3956620000000  0.4645750000000  0.5439300000000 1.0
C      1  0.5432500000000  0.4621690000000  0.6116670000000 1.0
C      1  0.6129220000000  0.4551620000000  0.4557310000000 1.0
C      1  0.4401070000000  0.5788320000000  0.4806270000000 1.0
C      1  0.4811290000000  0.5749290000000  0.5570530000000 1.0
C      1  0.5625880000000  0.5841460000000  0.5283640000000 1.0
C      1  0.5206240000000  0.5758080000000  0.4448320000000 1.0
C      1  0.4404790000000  0.4192290000000  0.4769330000000 1.0
C      1  0.4821780000000  0.4264410000000  0.5557680000000 1.0
C      1  0.5588980000000  0.4225930000000  0.5208480000000 1.0
C      1  0.5226160000000  0.4225060000000  0.4405500000000 1.0
C      1  0.4491060000000  0.4817900000000  0.4344760000000 1.0
C      1  0.4347240000000  0.4825680000000  0.5517470000000 1.0
C      1  0.5603720000000  0.4758360000000  0.5674440000000 1.0
C      1  0.5637950000000  0.4665800000000  0.4424300000000 1.0
C      1  0.4470890000000  0.5156380000000  0.4313360000000 1.0
C      1  0.4265700000000  0.5279020000000  0.5539020000000 1.0
C      1  0.5615190000000  0.5236640000000  0.5641480000000 1.0
C      1  0.5685630000000  0.5216430000000  0.4485740000000 1.0
C      1  0.5256210000000  0.4991540000000  0.4292070000000 1.0
C      1  0.4621370000000  0.4972680000000  0.5656400000000 1.0
C      1  0.5657130000000  0.5142120000000  0.5317110000000 1.0
C      1  0.4320520000000  0.4939440000000  0.4613190000000 1.0
END
