TITL C-3289330-4660-415 0.00127781422680768 125000 -579.954195176412 0 0 102 (C1) n - 1
REM
REM in /nfs/bkarasulu/CARBON/AIRSS/Generating-Clusters/AIREBO/with-SteepDescent/Higher-Symm/SD-CG/HFTN-CG
REM
REM
REM
REM
REM
REM ./C.cell (b20cbc046b6831c77cfcea5457e17084)
REM
REM compiler GCC version 9.2.1 20190827 (Red Hat 9.2.1-1)
REM options -cpp -mtune=generic -march=x86-64 -g -O0 -fpre-include=/usr/include/finclude/math-vector-fortran.h
REM seed 1105083144 -50732035 1194033282 1447808149 -324716159 733746637 -780000730 -1369269894 2093338967 -1914629073 -1918688158 -333001722 -1489086406 -1367599325 -579966379 810891249 -521172469 162572269 -463785629 715700836 -360015583 -1660069399 1738505368 364521909 22764508 -199042739 -1569708520 1132208200 -1113181272 1012362594 -270362071 13689616 2063018138
REM
CELL 1.54180   50.00000   50.00000   50.00000   90.00000   90.00000   90.00000
LATT -1
SFAC C  
C      1  0.4664980000000  0.4684780000000  0.5039340000000 1.0
C      1  0.5043170000000  0.4854750000000  0.4669510000000 1.0
C      1  0.4764080000000  0.5026900000000  0.4597520000000 1.0
C      1  0.5407290000000  0.4723350000000  0.5005370000000 1.0
C      1  0.4760910000000  0.5259450000000  0.5066130000000 1.0
C      1  0.5319780000000  0.5256410000000  0.5028700000000 1.0
C      1  0.4921790000000  0.4755890000000  0.5380460000000 1.0
C      1  0.5050880000000  0.5330470000000  0.5233720000000 1.0
C      1  0.4831250000000  0.5315610000000  0.4730110000000 1.0
C      1  0.5380330000000  0.4974970000000  0.5209790000000 1.0
C      1  0.4701840000000  0.4965740000000  0.5227900000000 1.0
C      1  0.5328830000000  0.4983990000000  0.4801530000000 1.0
C      1  0.4305920000000  0.5331830000000  0.5349580000000 1.0
C      1  0.5168850000000  0.4253230000000  0.5364020000000 1.0
C      1  0.5328930000000  0.5322150000000  0.4237630000000 1.0
C      1  0.5727570000000  0.5370650000000  0.4679290000000 1.0
C      1  0.4290410000000  0.4533160000000  0.4728300000000 1.0
C      1  0.5758440000000  0.4556970000000  0.5306800000000 1.0
C      1  0.4752640000000  0.4396890000000  0.4588700000000 1.0
C      1  0.5169300000000  0.5737250000000  0.4583310000000 1.0
C      1  0.4805160000000  0.5752290000000  0.5448090000000 1.0
C      1  0.4747250000000  0.5266900000000  0.5788950000000 1.0
C      1  0.5305830000000  0.4697870000000  0.5692900000000 1.0
C      1  0.4679550000000  0.4722770000000  0.4214050000000 1.0
C      1  0.4318730000000  0.4727810000000  0.4523880000000 1.0
C      1  0.4652640000000  0.4182230000000  0.4744080000000 1.0
C      1  0.4902290000000  0.4560320000000  0.4242580000000 1.0
C      1  0.5764300000000  0.4766270000000  0.5491950000000 1.0
C      1  0.4324990000000  0.5145490000000  0.5578090000000 1.0
C      1  0.5715120000000  0.5148160000000  0.4503960000000 1.0
C      1  0.5392060000000  0.4259880000000  0.5213060000000 1.0
C      1  0.4573220000000  0.5706410000000  0.5302950000000 1.0
C      1  0.5403450000000  0.5702510000000  0.4726880000000 1.0
C      1  0.5070360000000  0.4625270000000  0.5859180000000 1.0
C      1  0.4937000000000  0.5464710000000  0.5775190000000 1.0
C      1  0.5108200000000  0.5485030000000  0.4221390000000 1.0
C      1  0.5647340000000  0.5302210000000  0.4949070000000 1.0
C      1  0.5030170000000  0.5647520000000  0.5313460000000 1.0
C      1  0.5196060000000  0.4881870000000  0.5429840000000 1.0
C      1  0.4422520000000  0.5245830000000  0.5097510000000 1.0
C      1  0.5710160000000  0.4653250000000  0.5047010000000 1.0
C      1  0.4346600000000  0.4671500000000  0.4978320000000 1.0
C      1  0.4931700000000  0.5619710000000  0.4684970000000 1.0
C      1  0.4870660000000  0.4633120000000  0.4800360000000 1.0
C      1  0.4949910000000  0.4483200000000  0.5278280000000 1.0
C      1  0.4730130000000  0.4989720000000  0.4289440000000 1.0
C      1  0.5290060000000  0.5114600000000  0.4493150000000 1.0
C      1  0.4768920000000  0.5086910000000  0.5537410000000 1.0
C      1  0.4799800000000  0.5782320000000  0.4863660000000 1.0
C      1  0.4721150000000  0.4868680000000  0.5791640000000 1.0
C      1  0.5860630000000  0.4807980000000  0.4873700000000 1.0
C      1  0.5169310000000  0.5799600000000  0.5133960000000 1.0
C      1  0.4797620000000  0.4190600000000  0.5232090000000 1.0
C      1  0.5066100000000  0.4355900000000  0.4832390000000 1.0
C      1  0.5329570000000  0.4926880000000  0.4212400000000 1.0
C      1  0.4902240000000  0.5155890000000  0.4130180000000 1.0
C      1  0.5207740000000  0.5083770000000  0.5681090000000 1.0
C      1  0.4193600000000  0.4827060000000  0.5140110000000 1.0
C      1  0.5826050000000  0.5184160000000  0.5124170000000 1.0
C      1  0.4281580000000  0.5129410000000  0.4895270000000 1.0
C      1  0.4496980000000  0.4490310000000  0.5654990000000 1.0
C      1  0.5678100000000  0.4621380000000  0.4574160000000 1.0
C      1  0.4497730000000  0.5542230000000  0.4758760000000 1.0
C      1  0.5442910000000  0.4489550000000  0.4422760000000 1.0
C      1  0.4600170000000  0.5501680000000  0.4461860000000 1.0
C      1  0.5390360000000  0.5528120000000  0.5549090000000 1.0
C      1  0.4302450000000  0.4675720000000  0.5493200000000 1.0
C      1  0.5651960000000  0.5370090000000  0.5484870000000 1.0
C      1  0.4360670000000  0.5323480000000  0.4560650000000 1.0
C      1  0.5541800000000  0.5584720000000  0.5272500000000 1.0
C      1  0.4367340000000  0.4394400000000  0.5380460000000 1.0
C      1  0.5535830000000  0.4368690000000  0.4707810000000 1.0
C      1  0.4422300000000  0.4293350000000  0.4876080000000 1.0
C      1  0.5060410000000  0.4400110000000  0.4497480000000 1.0
C      1  0.4412140000000  0.4650310000000  0.4269150000000 1.0
C      1  0.5646970000000  0.4297180000000  0.5332450000000 1.0
C      1  0.4330310000000  0.5608360000000  0.5399520000000 1.0
C      1  0.5651690000000  0.5634020000000  0.4615300000000 1.0
C      1  0.4890470000000  0.4249470000000  0.5558680000000 1.0
C      1  0.4841680000000  0.5723970000000  0.5724850000000 1.0
C      1  0.5160300000000  0.5750140000000  0.4301690000000 1.0
C      1  0.5519570000000  0.4948790000000  0.5654530000000 1.0
C      1  0.4477840000000  0.5108530000000  0.5807490000000 1.0
C      1  0.5596780000000  0.5139860000000  0.4247900000000 1.0
C      1  0.5634930000000  0.4914840000000  0.4670050000000 1.0
C      1  0.4639360000000  0.5576290000000  0.5040570000000 1.0
C      1  0.4813080000000  0.4569930000000  0.5643890000000 1.0
C      1  0.4387090000000  0.4939380000000  0.5355790000000 1.0
C      1  0.5664810000000  0.5068200000000  0.5371140000000 1.0
C      1  0.4424790000000  0.5009840000000  0.4622340000000 1.0
C      1  0.5368720000000  0.5592500000000  0.5007430000000 1.0
C      1  0.4554050000000  0.4381100000000  0.5153240000000 1.0
C      1  0.5345830000000  0.4409730000000  0.4945170000000 1.0
C      1  0.5183850000000  0.4700890000000  0.4397780000000 1.0
C      1  0.4860650000000  0.5356500000000  0.4393400000000 1.0
C      1  0.5144410000000  0.5357050000000  0.5560530000000 1.0
C      1  0.4986460000000  0.5954880000000  0.4986840000000 1.0
C      1  0.5032450000000  0.4942730000000  0.5889550000000 1.0
C      1  0.6005810000000  0.5010060000000  0.5000380000000 1.0
C      1  0.4874510000000  0.4121860000000  0.4936720000000 1.0
C      1  0.5121800000000  0.5051260000000  0.4015500000000 1.0
C      1  0.4018880000000  0.5015050000000  0.4986110000000 1.0
END
