TITL C-3289332-8317-193 0.000775804447195158 125000 -694.820111850952 0 0 121 (C1) n - 1
REM
REM in /nfs/bkarasulu/CARBON/AIRSS/Generating-Clusters/AIREBO/with-SteepDescent/Higher-Symm/SD-CG/HFTN-CG
REM
REM
REM
REM
REM
REM ./C.cell (b20cbc046b6831c77cfcea5457e17084)
REM
REM compiler GCC version 9.2.1 20190827 (Red Hat 9.2.1-1)
REM options -cpp -mtune=generic -march=x86-64 -g -O0 -fpre-include=/usr/include/finclude/math-vector-fortran.h
REM seed -1977441633 -111892465 -234152533 -643126443 1416595124 -497106568 906290394 -170312171 1803154237 1468036317 -32302399 1935075496 1493025003 1433218351 -931201819 1424717794 1798293065 375919014 1517788633 -1162348449 2101454830 -1011208697 -28083483 -373028696 -766766264 1557647939 -1499466327 773566959 -671001435 -1062939594 1301874066 160663181 1850184864
REM
CELL 1.54180   50.00000   50.00000   50.00000   90.00000   90.00000   90.00000
LATT -1
SFAC C  
C      1  0.4627950000000  0.4867020000000  0.4494330000000 1.0
C      1  0.4834730000000  0.4670450000000  0.4536350000000 1.0
C      1  0.5122600000000  0.4700990000000  0.4352170000000 1.0
C      1  0.5404380000000  0.4802440000000  0.4513310000000 1.0
C      1  0.5531330000000  0.5100490000000  0.4452950000000 1.0
C      1  0.5495380000000  0.5381010000000  0.4587100000000 1.0
C      1  0.5293900000000  0.5643600000000  0.4606830000000 1.0
C      1  0.5030440000000  0.5735190000000  0.4706020000000 1.0
C      1  0.4743680000000  0.5606630000000  0.4593020000000 1.0
C      1  0.4569380000000  0.5404350000000  0.4626140000000 1.0
C      1  0.4418710000000  0.5132340000000  0.4532310000000 1.0
C      1  0.4002510000000  0.5069640000000  0.4985150000000 1.0
C      1  0.4359880000000  0.4653810000000  0.4956220000000 1.0
C      1  0.4696310000000  0.4182720000000  0.4912500000000 1.0
C      1  0.5200810000000  0.4035240000000  0.4907590000000 1.0
C      1  0.5586700000000  0.4320970000000  0.4816200000000 1.0
C      1  0.5846260000000  0.4731930000000  0.4891470000000 1.0
C      1  0.5857750000000  0.5277100000000  0.4995210000000 1.0
C      1  0.5594690000000  0.5704850000000  0.5141140000000 1.0
C      1  0.5107100000000  0.5927750000000  0.5304330000000 1.0
C      1  0.4586400000000  0.5782190000000  0.5094910000000 1.0
C      1  0.4235380000000  0.5570910000000  0.5137600000000 1.0
C      1  0.5856750000000  0.5591870000000  0.4974440000000 1.0
C      1  0.5422110000000  0.5952020000000  0.5195300000000 1.0
C      1  0.4805700000000  0.6009910000000  0.5210270000000 1.0
C      1  0.4275800000000  0.5870120000000  0.4988060000000 1.0
C      1  0.3971820000000  0.5408380000000  0.4996900000000 1.0
C      1  0.4032640000000  0.4745150000000  0.4941270000000 1.0
C      1  0.4397040000000  0.4333290000000  0.4851550000000 1.0
C      1  0.4933270000000  0.4003660000000  0.4805960000000 1.0
C      1  0.5435820000000  0.4069440000000  0.4753170000000 1.0
C      1  0.5881130000000  0.4439470000000  0.4783620000000 1.0
C      1  0.6007780000000  0.5015870000000  0.4891680000000 1.0
C      1  0.4431820000000  0.5384730000000  0.4933310000000 1.0
C      1  0.4226300000000  0.5176440000000  0.4799560000000 1.0
C      1  0.4411650000000  0.4841010000000  0.4705680000000 1.0
C      1  0.4757170000000  0.4483180000000  0.4794920000000 1.0
C      1  0.5117890000000  0.4568560000000  0.4656790000000 1.0
C      1  0.5426380000000  0.4557570000000  0.4741950000000 1.0
C      1  0.5680830000000  0.4907280000000  0.4688720000000 1.0
C      1  0.5606820000000  0.5180320000000  0.4835220000000 1.0
C      1  0.5473110000000  0.5554120000000  0.4878680000000 1.0
C      1  0.5106710000000  0.5924770000000  0.4964320000000 1.0
C      1  0.4720710000000  0.5851640000000  0.4790330000000 1.0
C      1  0.5635480000000  0.5522410000000  0.5395300000000 1.0
C      1  0.5306840000000  0.5740300000000  0.5700300000000 1.0
C      1  0.4831830000000  0.5811840000000  0.5663230000000 1.0
C      1  0.4454460000000  0.5662340000000  0.5384540000000 1.0
C      1  0.4190600000000  0.5166310000000  0.5434150000000 1.0
C      1  0.4251540000000  0.4694330000000  0.5276050000000 1.0
C      1  0.4520630000000  0.4283770000000  0.5361860000000 1.0
C      1  0.4966350000000  0.4142660000000  0.5321850000000 1.0
C      1  0.5432590000000  0.4262760000000  0.5288030000000 1.0
C      1  0.5742730000000  0.4637110000000  0.5180660000000 1.0
C      1  0.5791450000000  0.5048700000000  0.5454680000000 1.0
C      1  0.4930490000000  0.5524910000000  0.5538960000000 1.0
C      1  0.4611410000000  0.5430600000000  0.5583400000000 1.0
C      1  0.4505630000000  0.5173720000000  0.5424900000000 1.0
C      1  0.4444220000000  0.4863790000000  0.5493100000000 1.0
C      1  0.4615660000000  0.4583750000000  0.5398000000000 1.0
C      1  0.5069070000000  0.4419290000000  0.5341360000000 1.0
C      1  0.5333680000000  0.4503010000000  0.5489090000000 1.0
C      1  0.5490700000000  0.4769820000000  0.5366870000000 1.0
C      1  0.5508340000000  0.5030320000000  0.5586140000000 1.0
C      1  0.5390190000000  0.5311050000000  0.5499570000000 1.0
C      1  0.5189970000000  0.5454090000000  0.5686060000000 1.0
C      1  0.6268730000000  0.5016450000000  0.4862550000000 1.0
C      1  0.6057640000000  0.5739870000000  0.4899970000000 1.0
C      1  0.5536280000000  0.6189790000000  0.5201460000000 1.0
C      1  0.4729900000000  0.6261390000000  0.5226360000000 1.0
C      1  0.4147600000000  0.6057380000000  0.4872440000000 1.0
C      1  0.3745680000000  0.5528960000000  0.4944450000000 1.0
C      1  0.3834440000000  0.4576910000000  0.4925010000000 1.0
C      1  0.4196840000000  0.4201110000000  0.4746160000000 1.0
C      1  0.4871400000000  0.3796590000000  0.4635830000000 1.0
C      1  0.5503710000000  0.3912610000000  0.4539590000000 1.0
C      1  0.6100520000000  0.4307790000000  0.4742150000000 1.0
C      1  0.5407140000000  0.4693760000000  0.5930890000000 1.0
C      1  0.5453360000000  0.4962900000000  0.5874380000000 1.0
C      1  0.5339230000000  0.5163200000000  0.6032390000000 1.0
C      1  0.5132000000000  0.5326830000000  0.5945970000000 1.0
C      1  0.4867800000000  0.5369130000000  0.6023920000000 1.0
C      1  0.4628700000000  0.5323420000000  0.5883260000000 1.0
C      1  0.4488260000000  0.5088210000000  0.5945540000000 1.0
C      1  0.4516810000000  0.4851010000000  0.5806970000000 1.0
C      1  0.4712420000000  0.4655850000000  0.5700640000000 1.0
C      1  0.4954430000000  0.4554990000000  0.5789290000000 1.0
C      1  0.5232830000000  0.4551460000000  0.5767670000000 1.0
C      1  0.4988670000000  0.4582340000000  0.5137070000000 1.0
C      1  0.5195550000000  0.4682720000000  0.4957070000000 1.0
C      1  0.5345400000000  0.4878620000000  0.5116610000000 1.0
C      1  0.5390300000000  0.5134840000000  0.5029400000000 1.0
C      1  0.5334660000000  0.5347520000000  0.5191710000000 1.0
C      1  0.5209800000000  0.5620700000000  0.5076600000000 1.0
C      1  0.4978880000000  0.5518260000000  0.5244480000000 1.0
C      1  0.4739910000000  0.5484860000000  0.5080150000000 1.0
C      1  0.4610840000000  0.5190880000000  0.5147760000000 1.0
C      1  0.4743080000000  0.4966910000000  0.5057020000000 1.0
C      1  0.4678260000000  0.4657880000000  0.5075750000000 1.0
C      1  0.4791650000000  0.4495220000000  0.3111010000000 1.0
C      1  0.4906550000000  0.4253830000000  0.3155250000000 1.0
C      1  0.5097090000000  0.4136880000000  0.3308110000000 1.0
C      1  0.5179680000000  0.4111770000000  0.3564120000000 1.0
C      1  0.5261830000000  0.4235900000000  0.3789390000000 1.0
C      1  0.5237520000000  0.4460100000000  0.3936470000000 1.0
C      1  0.5105720000000  0.4666150000000  0.4065860000000 1.0
C      1  0.4969660000000  0.4846260000000  0.3904910000000 1.0
C      1  0.4791930000000  0.4898660000000  0.3709440000000 1.0
C      1  0.4725610000000  0.4874550000000  0.3449020000000 1.0
C      1  0.4680520000000  0.4702220000000  0.3245690000000 1.0
C      1  0.4565870000000  0.5839730000000  0.5628310000000 1.0
C      1  0.4087720000000  0.5416730000000  0.5402250000000 1.0
C      1  0.4086240000000  0.4960750000000  0.5273300000000 1.0
C      1  0.4256150000000  0.4394330000000  0.5369480000000 1.0
C      1  0.4703840000000  0.4134820000000  0.5220510000000 1.0
C      1  0.5228740000000  0.4087480000000  0.5187430000000 1.0
C      1  0.5642280000000  0.4350630000000  0.5122980000000 1.0
C      1  0.5898110000000  0.4806880000000  0.5399910000000 1.0
C      1  0.5822290000000  0.5285480000000  0.5307730000000 1.0
C      1  0.5575200000000  0.5723540000000  0.5641710000000 1.0
C      1  0.5105340000000  0.5915650000000  0.5603940000000 1.0
END
