TITL C-3289328-6581-503 -0.000144972746056307 125000 -280.508915850035 0 0 53 (C1) n - 1
REM
REM in /nfs/bkarasulu/CARBON/AIRSS/Generating-Clusters/AIREBO/with-SteepDescent/Higher-Symm/SD-CG/HFTN-CG
REM
REM
REM
REM
REM
REM ./C.cell (b20cbc046b6831c77cfcea5457e17084)
REM
REM compiler GCC version 9.2.1 20190827 (Red Hat 9.2.1-1)
REM options -cpp -mtune=generic -march=x86-64 -g -O0 -fpre-include=/usr/include/finclude/math-vector-fortran.h
REM seed 389064893 373824424 -116058683 1592141969 -2134645678 1326514698 184264352 -526744322 -1070694257 -587555690 635339225 -567253117 -1821247195 1681762324 837544277 1592374623 -526599722 -8600447 -1597958225 822674959 1895901920 -240496535 1585668558 -281185095 -149450177 597129832 -357222093 -1109517810 -921711386 -1036448827 -2125083688 754453501 1655270123
REM
CELL 1.54180   50.00000   50.00000   50.00000   90.00000   90.00000   90.00000
LATT -1
SFAC C  
C      1  0.5559940000000  0.5046750000000  0.5277710000000 1.0
C      1  0.4737820000000  0.5000160000000  0.4464540000000 1.0
C      1  0.4475580000000  0.4967160000000  0.5368160000000 1.0
C      1  0.4319110000000  0.5152760000000  0.5155450000000 1.0
C      1  0.4973840000000  0.5104160000000  0.4257630000000 1.0
C      1  0.5374180000000  0.5081070000000  0.5536830000000 1.0
C      1  0.4849490000000  0.5058190000000  0.4782110000000 1.0
C      1  0.4783610000000  0.4998550000000  0.5328060000000 1.0
C      1  0.5408350000000  0.5078630000000  0.5022770000000 1.0
C      1  0.5111890000000  0.5090940000000  0.4568090000000 1.0
C      1  0.5067630000000  0.4949070000000  0.5508760000000 1.0
C      1  0.4638050000000  0.5126320000000  0.5039910000000 1.0
C      1  0.4442990000000  0.4322680000000  0.4865960000000 1.0
C      1  0.5212850000000  0.4374230000000  0.5503990000000 1.0
C      1  0.5396990000000  0.4481670000000  0.4559800000000 1.0
C      1  0.5545080000000  0.4423480000000  0.4794490000000 1.0
C      1  0.4946310000000  0.4297960000000  0.5484540000000 1.0
C      1  0.4601280000000  0.4282790000000  0.4635760000000 1.0
C      1  0.4270810000000  0.5254470000000  0.4620810000000 1.0
C      1  0.4874260000000  0.5331560000000  0.5778430000000 1.0
C      1  0.5536470000000  0.5195520000000  0.4758210000000 1.0
C      1  0.5349010000000  0.5275170000000  0.4577890000000 1.0
C      1  0.5017150000000  0.5253820000000  0.5573890000000 1.0
C      1  0.4449280000000  0.5275410000000  0.4799450000000 1.0
C      1  0.5234820000000  0.5352730000000  0.5071580000000 1.0
C      1  0.4996350000000  0.5560600000000  0.4628640000000 1.0
C      1  0.4898640000000  0.5559910000000  0.5130240000000 1.0
C      1  0.4624960000000  0.5465790000000  0.5024080000000 1.0
C      1  0.5275970000000  0.5547130000000  0.4570140000000 1.0
C      1  0.5136440000000  0.5419130000000  0.5372510000000 1.0
C      1  0.4753940000000  0.5689740000000  0.4580530000000 1.0
C      1  0.5017820000000  0.5789770000000  0.5282180000000 1.0
C      1  0.5423850000000  0.5608730000000  0.5009400000000 1.0
C      1  0.5435280000000  0.5700680000000  0.4748680000000 1.0
C      1  0.5216500000000  0.5720240000000  0.5462340000000 1.0
C      1  0.4554440000000  0.5659360000000  0.4769250000000 1.0
C      1  0.4574240000000  0.4378980000000  0.5149460000000 1.0
C      1  0.5402840000000  0.4497470000000  0.5279620000000 1.0
C      1  0.5069590000000  0.4456380000000  0.4554760000000 1.0
C      1  0.5448270000000  0.4562500000000  0.5021990000000 1.0
C      1  0.4781110000000  0.4451440000000  0.5317010000000 1.0
C      1  0.4809380000000  0.4472250000000  0.4620370000000 1.0
C      1  0.5283760000000  0.4694080000000  0.5532600000000 1.0
C      1  0.5217300000000  0.4768580000000  0.4592330000000 1.0
C      1  0.4480880000000  0.4637980000000  0.4958490000000 1.0
C      1  0.4883530000000  0.4709450000000  0.5252940000000 1.0
C      1  0.4753820000000  0.4731940000000  0.4794860000000 1.0
C      1  0.5281700000000  0.4803620000000  0.4924730000000 1.0
C      1  0.5586820000000  0.4832970000000  0.5514610000000 1.0
C      1  0.4336910000000  0.4834200000000  0.5112950000000 1.0
C      1  0.4974360000000  0.4787470000000  0.4353300000000 1.0
C      1  0.4990140000000  0.4744390000000  0.4993890000000 1.0
C      1  0.4976710000000  0.5361900000000  0.4867320000000 1.0
END
