TITL C-3289322-3858-172 -0.00434534247540577 125000 -690.790642017328 0 0 132 (C1) n - 1
REM
REM in /nfs/bkarasulu/CARBON/AIRSS/Generating-Clusters/AIREBO/with-SteepDescent/Higher-Symm/SD-CG/HFTN-CG
REM
REM
REM
REM
REM
REM ./C.cell (b20cbc046b6831c77cfcea5457e17084)
REM
REM compiler GCC version 9.2.1 20190827 (Red Hat 9.2.1-1)
REM options -cpp -mtune=generic -march=x86-64 -g -O0 -fpre-include=/usr/include/finclude/math-vector-fortran.h
REM seed -2143210026 287762481 2003902481 -1275845861 -452456 -1701512733 2133172427 1117098313 -782087677 1597279940 -1232110227 1752846065 1293647840 -665369453 -73561996 -585524505 1992881441 1333280153 188659216 1095087842 999702398 1815074578 -1404617150 1729456006 1554209687 1643150534 1177452583 -625642046 -1915949791 -1679984995 2144615152 -763174788 1980475230
REM
CELL 1.54180   50.00000   50.00000   50.00000   90.00000   90.00000   90.00000
LATT -1
SFAC C  
C      1  0.5162900000000  0.5812790000000  0.5569110000000 1.0
C      1  0.4780910000000  0.4610090000000  0.4321400000000 1.0
C      1  0.4519970000000  0.5120040000000  0.4134920000000 1.0
C      1  0.5139590000000  0.4384550000000  0.5134970000000 1.0
C      1  0.4910400000000  0.5678220000000  0.5140970000000 1.0
C      1  0.5530570000000  0.4958410000000  0.4957330000000 1.0
C      1  0.4551110000000  0.5373720000000  0.4347540000000 1.0
C      1  0.4430700000000  0.5168270000000  0.5863620000000 1.0
C      1  0.5677260000000  0.4970090000000  0.5326000000000 1.0
C      1  0.5605330000000  0.5334120000000  0.5586160000000 1.0
C      1  0.4726110000000  0.5558060000000  0.5795470000000 1.0
C      1  0.6058340000000  0.4676400000000  0.5449260000000 1.0
C      1  0.4897040000000  0.4435840000000  0.5680600000000 1.0
C      1  0.5480490000000  0.5070100000000  0.4217040000000 1.0
C      1  0.5219800000000  0.5220880000000  0.4942410000000 1.0
C      1  0.5975520000000  0.5135340000000  0.5273950000000 1.0
C      1  0.4095040000000  0.5543220000000  0.5171100000000 1.0
C      1  0.4658660000000  0.4305630000000  0.4294320000000 1.0
C      1  0.5037730000000  0.4336940000000  0.4648510000000 1.0
C      1  0.4756730000000  0.4709900000000  0.5709130000000 1.0
C      1  0.5143950000000  0.5941660000000  0.4511700000000 1.0
C      1  0.4880850000000  0.4710230000000  0.4001810000000 1.0
C      1  0.4275680000000  0.4636770000000  0.4494510000000 1.0
C      1  0.4738980000000  0.5753640000000  0.4597980000000 1.0
C      1  0.5465960000000  0.5264860000000  0.4711770000000 1.0
C      1  0.4116490000000  0.4442150000000  0.4446610000000 1.0
C      1  0.5109240000000  0.4970010000000  0.3891760000000 1.0
C      1  0.5793790000000  0.5327390000000  0.4644000000000 1.0
C      1  0.5588410000000  0.5405730000000  0.5253660000000 1.0
C      1  0.4572460000000  0.5244880000000  0.5390540000000 1.0
C      1  0.4689080000000  0.5241020000000  0.5069040000000 1.0
C      1  0.6243400000000  0.5269670000000  0.5227120000000 1.0
C      1  0.5611760000000  0.5508300000000  0.4429880000000 1.0
C      1  0.4889040000000  0.5188110000000  0.5339050000000 1.0
C      1  0.5013940000000  0.5240640000000  0.4048770000000 1.0
C      1  0.4509940000000  0.5468600000000  0.4885440000000 1.0
C      1  0.5648910000000  0.5752960000000  0.4867690000000 1.0
C      1  0.5107450000000  0.5091780000000  0.4648410000000 1.0
C      1  0.4014480000000  0.5040300000000  0.5358660000000 1.0
C      1  0.4467140000000  0.4540810000000  0.5494470000000 1.0
C      1  0.5370250000000  0.4615260000000  0.4029050000000 1.0
C      1  0.4716230000000  0.4335810000000  0.4604650000000 1.0
C      1  0.5347430000000  0.4797360000000  0.5856460000000 1.0
C      1  0.5096640000000  0.4566160000000  0.4439710000000 1.0
C      1  0.5171620000000  0.4598080000000  0.5820190000000 1.0
C      1  0.5311570000000  0.5021820000000  0.5528170000000 1.0
C      1  0.4378170000000  0.4282500000000  0.5335780000000 1.0
C      1  0.5078480000000  0.4925330000000  0.5012350000000 1.0
C      1  0.5316480000000  0.5555820000000  0.5183880000000 1.0
C      1  0.4833670000000  0.4961150000000  0.5851280000000 1.0
C      1  0.5050690000000  0.4825200000000  0.5292860000000 1.0
C      1  0.5626510000000  0.4274420000000  0.5361460000000 1.0
C      1  0.4834480000000  0.5854860000000  0.5491460000000 1.0
C      1  0.5210720000000  0.4062730000000  0.5229280000000 1.0
C      1  0.4369270000000  0.5584580000000  0.5172540000000 1.0
C      1  0.5722580000000  0.5462510000000  0.4946290000000 1.0
C      1  0.4315770000000  0.4208410000000  0.5025170000000 1.0
C      1  0.4788860000000  0.5611460000000  0.4296280000000 1.0
C      1  0.4671100000000  0.4654660000000  0.4642130000000 1.0
C      1  0.4719600000000  0.5242010000000  0.5697130000000 1.0
C      1  0.5313780000000  0.4722420000000  0.5416450000000 1.0
C      1  0.4625860000000  0.5794130000000  0.5249170000000 1.0
C      1  0.5840690000000  0.4480420000000  0.5409240000000 1.0
C      1  0.4364680000000  0.5060780000000  0.5547820000000 1.0
C      1  0.5963570000000  0.4750450000000  0.4721300000000 1.0
C      1  0.5496540000000  0.4978090000000  0.4531520000000 1.0
C      1  0.4894720000000  0.5968100000000  0.4649250000000 1.0
C      1  0.6026320000000  0.4888370000000  0.4964100000000 1.0
C      1  0.5480480000000  0.4186880000000  0.5067120000000 1.0
C      1  0.3809060000000  0.5108280000000  0.5559080000000 1.0
C      1  0.5364200000000  0.5816200000000  0.4686740000000 1.0
C      1  0.4773810000000  0.5024720000000  0.3960580000000 1.0
C      1  0.5714290000000  0.4743430000000  0.4618650000000 1.0
C      1  0.5042840000000  0.5470150000000  0.4472740000000 1.0
C      1  0.4212720000000  0.5017790000000  0.4584080000000 1.0
C      1  0.4408010000000  0.4801600000000  0.4760880000000 1.0
C      1  0.4982300000000  0.3888620000000  0.4812160000000 1.0
C      1  0.5381880000000  0.4887300000000  0.3992820000000 1.0
C      1  0.4555120000000  0.5714210000000  0.5905700000000 1.0
C      1  0.3979780000000  0.5014430000000  0.5026910000000 1.0
C      1  0.5604010000000  0.4663210000000  0.5280710000000 1.0
C      1  0.4707480000000  0.4309710000000  0.5427640000000 1.0
C      1  0.5889460000000  0.5180460000000  0.5584460000000 1.0
C      1  0.5335340000000  0.4396490000000  0.5404520000000 1.0
C      1  0.4388170000000  0.4895280000000  0.4342230000000 1.0
C      1  0.4457000000000  0.5942450000000  0.5018260000000 1.0
C      1  0.4513530000000  0.4955020000000  0.5013640000000 1.0
C      1  0.4950890000000  0.5101930000000  0.4357500000000 1.0
C      1  0.5184790000000  0.5368870000000  0.5934590000000 1.0
C      1  0.4141860000000  0.4763360000000  0.5207990000000 1.0
C      1  0.3985440000000  0.5356430000000  0.4987150000000 1.0
C      1  0.4304760000000  0.4878770000000  0.5821910000000 1.0
C      1  0.5125620000000  0.4543970000000  0.4131220000000 1.0
C      1  0.4775810000000  0.4878790000000  0.5425590000000 1.0
C      1  0.5130080000000  0.4551990000000  0.4880980000000 1.0
C      1  0.4897920000000  0.4785340000000  0.4795090000000 1.0
C      1  0.5224420000000  0.4803620000000  0.4565220000000 1.0
C      1  0.5367740000000  0.5844650000000  0.5011240000000 1.0
C      1  0.5053100000000  0.5160090000000  0.5700760000000 1.0
C      1  0.4712420000000  0.4936850000000  0.4344780000000 1.0
C      1  0.5434260000000  0.4682740000000  0.4803060000000 1.0
C      1  0.5417070000000  0.4060830000000  0.4788840000000 1.0
C      1  0.5201440000000  0.4328000000000  0.5661640000000 1.0
C      1  0.5022040000000  0.5556640000000  0.5727040000000 1.0
C      1  0.4967430000000  0.5433430000000  0.5035240000000 1.0
C      1  0.5148530000000  0.5843910000000  0.5245050000000 1.0
C      1  0.4413330000000  0.5787400000000  0.4817200000000 1.0
C      1  0.4151070000000  0.4465700000000  0.5156900000000 1.0
C      1  0.6151960000000  0.4784970000000  0.5199610000000 1.0
C      1  0.5827500000000  0.4846190000000  0.5591050000000 1.0
C      1  0.5090130000000  0.5451400000000  0.5415500000000 1.0
C      1  0.5383620000000  0.5554110000000  0.5569890000000 1.0
C      1  0.5570270000000  0.5020670000000  0.5729210000000 1.0
C      1  0.4266220000000  0.5245950000000  0.4830430000000 1.0
C      1  0.5238170000000  0.5265990000000  0.4283420000000 1.0
C      1  0.4888970000000  0.4172450000000  0.5222610000000 1.0
C      1  0.4570070000000  0.4186320000000  0.4805800000000 1.0
C      1  0.5727510000000  0.5228630000000  0.4322950000000 1.0
C      1  0.4765770000000  0.4005740000000  0.5000420000000 1.0
C      1  0.5158330000000  0.4067200000000  0.4703670000000 1.0
C      1  0.4815730000000  0.5115790000000  0.4779410000000 1.0
C      1  0.4272320000000  0.5134250000000  0.5151610000000 1.0
C      1  0.5807270000000  0.5136110000000  0.4990040000000 1.0
C      1  0.5329620000000  0.5532230000000  0.4565990000000 1.0
C      1  0.5398360000000  0.5132000000000  0.5218150000000 1.0
C      1  0.4456580000000  0.4823680000000  0.5322050000000 1.0
C      1  0.5549380000000  0.4495210000000  0.5037170000000 1.0
C      1  0.4454620000000  0.4643250000000  0.5793080000000 1.0
C      1  0.4443670000000  0.3905830000000  0.4954150000000 1.0
C      1  0.4271070000000  0.5349460000000  0.4506490000000 1.0
C      1  0.5062880000000  0.5811930000000  0.4268130000000 1.0
C      1  0.4739030000000  0.5416130000000  0.4639620000000 1.0
END
