TITL C-3289331-6719-523 0.00193364883849539 125000 -713.929153418382 0 0 130 (C1) n - 1
REM
REM in /nfs/bkarasulu/CARBON/AIRSS/Generating-Clusters/AIREBO/with-SteepDescent/Higher-Symm/SD-CG/HFTN-CG
REM
REM
REM
REM
REM
REM ./C.cell (b20cbc046b6831c77cfcea5457e17084)
REM
REM compiler GCC version 9.2.1 20190827 (Red Hat 9.2.1-1)
REM options -cpp -mtune=generic -march=x86-64 -g -O0 -fpre-include=/usr/include/finclude/math-vector-fortran.h
REM seed -866342871 -827521548 1123171802 -1300626495 -561276221 -531652115 364987594 -947895436 1680172750 52967220 -875278728 -686488572 -130693618 771782200 1376888266 -1621100043 203280147 -1435484248 -323567057 330672739 -762029540 1200111525 -1277859115 -740561309 -1610965992 -1983966316 -532273948 -1786110307 1656763662 -1903940633 18585887 -1483122568 -1649586106
REM
CELL 1.54180   50.00000   50.00000   50.00000   90.00000   90.00000   90.00000
LATT -1
SFAC C  
C      1  0.5552140000000  0.4815660000000  0.4349650000000 1.0
C      1  0.5535810000000  0.4401670000000  0.5017730000000 1.0
C      1  0.5482960000000  0.4807370000000  0.5560540000000 1.0
C      1  0.5453630000000  0.5538390000000  0.5395880000000 1.0
C      1  0.5580220000000  0.5507810000000  0.4623160000000 1.0
C      1  0.4665970000000  0.4696530000000  0.4157790000000 1.0
C      1  0.4744280000000  0.4085210000000  0.5037120000000 1.0
C      1  0.4690900000000  0.4735780000000  0.5845670000000 1.0
C      1  0.4720850000000  0.5730660000000  0.5548360000000 1.0
C      1  0.4750930000000  0.5721860000000  0.4449300000000 1.0
C      1  0.4695240000000  0.5254820000000  0.5538080000000 1.0
C      1  0.4911420000000  0.5618220000000  0.4920480000000 1.0
C      1  0.4767650000000  0.5176160000000  0.4396080000000 1.0
C      1  0.4793050000000  0.4447870000000  0.4764950000000 1.0
C      1  0.4766570000000  0.4497420000000  0.5414470000000 1.0
C      1  0.4599420000000  0.4672490000000  0.4941500000000 1.0
C      1  0.4675610000000  0.4926960000000  0.5153810000000 1.0
C      1  0.4611100000000  0.5252160000000  0.5235490000000 1.0
C      1  0.4637480000000  0.5221490000000  0.4839450000000 1.0
C      1  0.4734990000000  0.4925750000000  0.4759520000000 1.0
C      1  0.5823430000000  0.5354230000000  0.4441840000000 1.0
C      1  0.5764690000000  0.4659490000000  0.4547690000000 1.0
C      1  0.5779110000000  0.4472100000000  0.5241450000000 1.0
C      1  0.5720260000000  0.5026010000000  0.5563100000000 1.0
C      1  0.5689580000000  0.5559100000000  0.5157590000000 1.0
C      1  0.4550890000000  0.4504950000000  0.5676910000000 1.0
C      1  0.4535820000000  0.5491370000000  0.5698630000000 1.0
C      1  0.4651840000000  0.5772350000000  0.4765340000000 1.0
C      1  0.4552070000000  0.5006170000000  0.4195480000000 1.0
C      1  0.4559610000000  0.4208740000000  0.4779540000000 1.0
C      1  0.5869930000000  0.4721980000000  0.5535390000000 1.0
C      1  0.5844240000000  0.5481780000000  0.5448890000000 1.0
C      1  0.5908440000000  0.5511500000000  0.4734000000000 1.0
C      1  0.5864480000000  0.4957750000000  0.4420930000000 1.0
C      1  0.5865960000000  0.4428720000000  0.4907990000000 1.0
C      1  0.4423310000000  0.4753840000000  0.4581110000000 1.0
C      1  0.4278570000000  0.4316390000000  0.5192670000000 1.0
C      1  0.4370690000000  0.4869890000000  0.5404600000000 1.0
C      1  0.4334790000000  0.5536480000000  0.5201410000000 1.0
C      1  0.4287650000000  0.5455610000000  0.4558880000000 1.0
C      1  0.5785920000000  0.4736730000000  0.5027940000000 1.0
C      1  0.5884550000000  0.4940650000000  0.5275380000000 1.0
C      1  0.5761530000000  0.5233950000000  0.5226130000000 1.0
C      1  0.5798960000000  0.5189630000000  0.4738350000000 1.0
C      1  0.5907770000000  0.4894130000000  0.4752160000000 1.0
C      1  0.5271250000000  0.5957690000000  0.4816850000000 1.0
C      1  0.5169210000000  0.5030600000000  0.4113220000000 1.0
C      1  0.5189530000000  0.4187450000000  0.4552240000000 1.0
C      1  0.5156380000000  0.4388870000000  0.5724730000000 1.0
C      1  0.5147600000000  0.5380770000000  0.5742730000000 1.0
C      1  0.5368750000000  0.5275380000000  0.4170030000000 1.0
C      1  0.5391220000000  0.4394610000000  0.4469980000000 1.0
C      1  0.5349010000000  0.4316570000000  0.5499370000000 1.0
C      1  0.5377690000000  0.5168640000000  0.5785060000000 1.0
C      1  0.5524200000000  0.5947640000000  0.4937050000000 1.0
C      1  0.5282890000000  0.4441350000000  0.5189950000000 1.0
C      1  0.5203370000000  0.4988110000000  0.5560380000000 1.0
C      1  0.5246790000000  0.5802400000000  0.5324480000000 1.0
C      1  0.5321000000000  0.5320800000000  0.4605340000000 1.0
C      1  0.5263590000000  0.4707720000000  0.4473770000000 1.0
C      1  0.4388610000000  0.5631890000000  0.4800170000000 1.0
C      1  0.4367390000000  0.4996480000000  0.4463620000000 1.0
C      1  0.4309880000000  0.4338490000000  0.4897320000000 1.0
C      1  0.4302230000000  0.4626880000000  0.5528470000000 1.0
C      1  0.4302610000000  0.5561250000000  0.5473900000000 1.0
C      1  0.4992690000000  0.4929940000000  0.5187430000000 1.0
C      1  0.5122710000000  0.5227250000000  0.5169340000000 1.0
C      1  0.4976150000000  0.5227970000000  0.4883240000000 1.0
C      1  0.5061010000000  0.4957580000000  0.4712850000000 1.0
C      1  0.5137540000000  0.4741670000000  0.4970660000000 1.0
C      1  0.4873100000000  0.5310670000000  0.5804350000000 1.0
C      1  0.5073460000000  0.5866610000000  0.5038310000000 1.0
C      1  0.4892970000000  0.5173170000000  0.4084460000000 1.0
C      1  0.4932920000000  0.4265890000000  0.4512430000000 1.0
C      1  0.4898300000000  0.4309910000000  0.5665700000000 1.0
C      1  0.5094840000000  0.5138690000000  0.4427040000000 1.0
C      1  0.5027850000000  0.4443780000000  0.4973800000000 1.0
C      1  0.5044980000000  0.4631680000000  0.5342060000000 1.0
C      1  0.5148750000000  0.5425390000000  0.5405670000000 1.0
C      1  0.5059790000000  0.5477140000000  0.4692020000000 1.0
C      1  0.5022380000000  0.5706120000000  0.5550990000000 1.0
C      1  0.5065990000000  0.5674560000000  0.4440810000000 1.0
C      1  0.4962020000000  0.4707900000000  0.4324900000000 1.0
C      1  0.5071160000000  0.4120080000000  0.5032850000000 1.0
C      1  0.4933990000000  0.4799260000000  0.5616480000000 1.0
C      1  0.5456220000000  0.5212570000000  0.5104740000000 1.0
C      1  0.5509830000000  0.5164420000000  0.4813270000000 1.0
C      1  0.5390110000000  0.4895990000000  0.4705140000000 1.0
C      1  0.5470760000000  0.4795180000000  0.5012170000000 1.0
C      1  0.5380640000000  0.4947630000000  0.5280920000000 1.0
C      1  0.4592850000000  0.5233770000000  0.5921250000000 1.0
C      1  0.4740640000000  0.5949570000000  0.5045130000000 1.0
C      1  0.4604070000000  0.5321370000000  0.4065080000000 1.0
C      1  0.4628720000000  0.4263860000000  0.4451090000000 1.0
C      1  0.4620230000000  0.4176290000000  0.5595360000000 1.0
C      1  0.4282350000000  0.4638250000000  0.4823360000000 1.0
C      1  0.4139000000000  0.4433950000000  0.5400930000000 1.0
C      1  0.4321030000000  0.5106640000000  0.5194990000000 1.0
C      1  0.4327860000000  0.5325420000000  0.4934600000000 1.0
C      1  0.4189970000000  0.5170700000000  0.4657690000000 1.0
C      1  0.5595600000000  0.4519130000000  0.5502810000000 1.0
C      1  0.5606030000000  0.5314280000000  0.5606040000000 1.0
C      1  0.5674730000000  0.5692430000000  0.4893370000000 1.0
C      1  0.5598040000000  0.5143630000000  0.4313420000000 1.0
C      1  0.5614780000000  0.4425200000000  0.4686560000000 1.0
C      1  0.4573160000000  0.4428380000000  0.4212300000000 1.0
C      1  0.4611700000000  0.4135410000000  0.5313520000000 1.0
C      1  0.4580470000000  0.4954090000000  0.5969610000000 1.0
C      1  0.4627190000000  0.5794780000000  0.5288700000000 1.0
C      1  0.4588850000000  0.5522400000000  0.4271980000000 1.0
C      1  0.5231660000000  0.4064410000000  0.5303780000000 1.0
C      1  0.5321330000000  0.4864050000000  0.5921690000000 1.0
C      1  0.5481490000000  0.6001270000000  0.5207960000000 1.0
C      1  0.5237170000000  0.5518380000000  0.4215640000000 1.0
C      1  0.5379180000000  0.4507320000000  0.4149080000000 1.0
C      1  0.5217260000000  0.4023310000000  0.4769020000000 1.0
C      1  0.5170110000000  0.4660930000000  0.5813890000000 1.0
C      1  0.5194610000000  0.5696340000000  0.5843980000000 1.0
C      1  0.5200750000000  0.5933110000000  0.4557900000000 1.0
C      1  0.5194910000000  0.4714990000000  0.4082440000000 1.0
C      1  0.3997880000000  0.5408700000000  0.4977120000000 1.0
C      1  0.3957730000000  0.4992800000000  0.4755860000000 1.0
C      1  0.4002670000000  0.4759610000000  0.4842400000000 1.0
C      1  0.3888200000000  0.4374900000000  0.5475590000000 1.0
C      1  0.4031650000000  0.5237970000000  0.5188360000000 1.0
C      1  0.4727810000000  0.4673110000000  0.4546340000000 1.0
C      1  0.4594430000000  0.4433920000000  0.5161470000000 1.0
C      1  0.4676100000000  0.4949030000000  0.5484040000000 1.0
C      1  0.4653440000000  0.5534580000000  0.5086940000000 1.0
C      1  0.4606720000000  0.5369250000000  0.4565920000000 1.0
END
