TITL C-3289329-2751-554 0.000121354716045798 125000 -527.428812588048 0 0 107 (C1) n - 1
REM
REM in /nfs/bkarasulu/CARBON/AIRSS/Generating-Clusters/AIREBO/with-SteepDescent/Higher-Symm/SD-CG/HFTN-CG
REM
REM
REM
REM
REM
REM ./C.cell (b20cbc046b6831c77cfcea5457e17084)
REM
REM compiler GCC version 9.2.1 20190827 (Red Hat 9.2.1-1)
REM options -cpp -mtune=generic -march=x86-64 -g -O0 -fpre-include=/usr/include/finclude/math-vector-fortran.h
REM seed 1594280013 -1509665730 -660948136 829756577 -1566991319 1630936004 988390970 -1931499068 -1791765622 1052609 -1926391341 1184402804 -78941826 1324047361 -1252085035 1195058216 1263067852 -1834271121 1477637711 -558218127 -643640206 -1201628323 -2078764383 1740624310 -1391451083 -2091195145 312083821 -196375119 -1652309680 1204734752 2086153308 -76810895 -2057935918
REM
CELL 1.54180   50.00000   50.00000   50.00000   90.00000   90.00000   90.00000
LATT -1
SFAC C  
C      1  0.4904970000000  0.4759640000000  0.5320880000000 1.0
C      1  0.4733920000000  0.5423030000000  0.4970310000000 1.0
C      1  0.5331060000000  0.4956140000000  0.4766540000000 1.0
C      1  0.5046220000000  0.4699880000000  0.4639940000000 1.0
C      1  0.5037320000000  0.5264790000000  0.5355670000000 1.0
C      1  0.4926490000000  0.5238730000000  0.4810390000000 1.0
C      1  0.5215980000000  0.5427320000000  0.5011620000000 1.0
C      1  0.5243330000000  0.4662690000000  0.4914480000000 1.0
C      1  0.4735070000000  0.4606540000000  0.5073540000000 1.0
C      1  0.4635440000000  0.4963470000000  0.5283100000000 1.0
C      1  0.4671100000000  0.5027140000000  0.4762030000000 1.0
C      1  0.5349110000000  0.5037880000000  0.5248520000000 1.0
C      1  0.5570640000000  0.4746020000000  0.4703130000000 1.0
C      1  0.4795130000000  0.4697310000000  0.5633510000000 1.0
C      1  0.4680260000000  0.5675420000000  0.4805460000000 1.0
C      1  0.4412400000000  0.4739220000000  0.5289130000000 1.0
C      1  0.4404330000000  0.5166580000000  0.4706910000000 1.0
C      1  0.5556720000000  0.5248880000000  0.5350890000000 1.0
C      1  0.5198190000000  0.4710580000000  0.4361360000000 1.0
C      1  0.5240590000000  0.5305410000000  0.5587160000000 1.0
C      1  0.4883990000000  0.5245560000000  0.4473030000000 1.0
C      1  0.5277660000000  0.5670730000000  0.5170760000000 1.0
C      1  0.5306800000000  0.4359250000000  0.4790510000000 1.0
C      1  0.4680110000000  0.4331460000000  0.5192870000000 1.0
C      1  0.5362210000000  0.5060170000000  0.5752370000000 1.0
C      1  0.5052380000000  0.5823320000000  0.5354640000000 1.0
C      1  0.5765040000000  0.5331900000000  0.5119540000000 1.0
C      1  0.4683440000000  0.5095100000000  0.4274150000000 1.0
C      1  0.4649060000000  0.4934180000000  0.5793250000000 1.0
C      1  0.5373390000000  0.4943220000000  0.4218650000000 1.0
C      1  0.4911490000000  0.5800700000000  0.4630210000000 1.0
C      1  0.4918200000000  0.4194510000000  0.5352140000000 1.0
C      1  0.5070130000000  0.4203980000000  0.4639950000000 1.0
C      1  0.4240860000000  0.5344670000000  0.4911060000000 1.0
C      1  0.4214830000000  0.4616010000000  0.5073020000000 1.0
C      1  0.5790660000000  0.4614830000000  0.4904670000000 1.0
C      1  0.5806430000000  0.5012470000000  0.4524580000000 1.0
C      1  0.4996810000000  0.4497680000000  0.5817870000000 1.0
C      1  0.4471260000000  0.5846770000000  0.5005660000000 1.0
C      1  0.4182000000000  0.5004080000000  0.5478770000000 1.0
C      1  0.4203450000000  0.4982740000000  0.4503860000000 1.0
C      1  0.5831190000000  0.4886190000000  0.5516040000000 1.0
C      1  0.5002850000000  0.4505260000000  0.4166800000000 1.0
C      1  0.4992150000000  0.5519890000000  0.5815290000000 1.0
C      1  0.4997480000000  0.5485450000000  0.4174150000000 1.0
C      1  0.5494640000000  0.5842670000000  0.4976220000000 1.0
C      1  0.5484550000000  0.4157680000000  0.4994020000000 1.0
C      1  0.4492150000000  0.4138950000000  0.4991220000000 1.0
C      1  0.5629960000000  0.4542000000000  0.5330610000000 1.0
C      1  0.4561010000000  0.5368560000000  0.5651760000000 1.0
C      1  0.5372090000000  0.5669170000000  0.4535920000000 1.0
C      1  0.4395890000000  0.4554390000000  0.4664030000000 1.0
C      1  0.4385720000000  0.5461290000000  0.5375170000000 1.0
C      1  0.5602980000000  0.5466010000000  0.4674830000000 1.0
C      1  0.5426450000000  0.5353420000000  0.4420230000000 1.0
C      1  0.5424890000000  0.4664430000000  0.5573290000000 1.0
C      1  0.4562160000000  0.4622240000000  0.4375310000000 1.0
C      1  0.4645170000000  0.5645820000000  0.5473820000000 1.0
C      1  0.4647980000000  0.4352110000000  0.4563480000000 1.0
C      1  0.5333110000000  0.4398450000000  0.5413500000000 1.0
C      1  0.5138840000000  0.5484630000000  0.4709320000000 1.0
C      1  0.5466930000000  0.4780610000000  0.5134200000000 1.0
C      1  0.4769290000000  0.5168150000000  0.5472570000000 1.0
C      1  0.4853450000000  0.5491600000000  0.5253690000000 1.0
C      1  0.4843330000000  0.4509520000000  0.4793120000000 1.0
C      1  0.5110270000000  0.4526160000000  0.5183160000000 1.0
C      1  0.4546900000000  0.4760340000000  0.4888580000000 1.0
C      1  0.4545100000000  0.5256790000000  0.5155110000000 1.0
C      1  0.5441970000000  0.5234440000000  0.4864870000000 1.0
C      1  0.5196520000000  0.5128250000000  0.4538830000000 1.0
C      1  0.5182490000000  0.4877840000000  0.5445520000000 1.0
C      1  0.4765310000000  0.4822540000000  0.4560380000000 1.0
C      1  0.5156410000000  0.5634690000000  0.5577700000000 1.0
C      1  0.5612940000000  0.5611450000000  0.5195710000000 1.0
C      1  0.5638160000000  0.5067850000000  0.5598550000000 1.0
C      1  0.4802460000000  0.5565880000000  0.4440750000000 1.0
C      1  0.4785880000000  0.4360760000000  0.5586020000000 1.0
C      1  0.5210470000000  0.4376220000000  0.4403210000000 1.0
C      1  0.4352430000000  0.5607480000000  0.4791190000000 1.0
C      1  0.4351560000000  0.4351520000000  0.5220570000000 1.0
C      1  0.5640330000000  0.4359430000000  0.4767730000000 1.0
C      1  0.4413870000000  0.5218650000000  0.4377380000000 1.0
C      1  0.4409600000000  0.4800460000000  0.5619480000000 1.0
C      1  0.5608120000000  0.4809190000000  0.4380010000000 1.0
C      1  0.4215410000000  0.5204170000000  0.5219800000000 1.0
C      1  0.5187210000000  0.5227820000000  0.4213760000000 1.0
C      1  0.5204870000000  0.4199770000000  0.5169190000000 1.0
C      1  0.5775150000000  0.5198550000000  0.4806770000000 1.0
C      1  0.5801060000000  0.4799370000000  0.5188670000000 1.0
C      1  0.4223660000000  0.4823070000000  0.4803430000000 1.0
C      1  0.4837410000000  0.5217240000000  0.5802040000000 1.0
C      1  0.4830560000000  0.4792000000000  0.4228060000000 1.0
C      1  0.5172470000000  0.4778480000000  0.5770560000000 1.0
C      1  0.4789180000000  0.4175840000000  0.4829610000000 1.0
C      1  0.4757070000000  0.5810730000000  0.5186340000000 1.0
C      1  0.5206270000000  0.5805450000000  0.4799770000000 1.0
C      1  0.5952130000000  0.5049560000000  0.5056090000000 1.0
C      1  0.5077260000000  0.5052380000000  0.5948210000000 1.0
C      1  0.5026620000000  0.5949740000000  0.5032500000000 1.0
C      1  0.4058290000000  0.5054160000000  0.4958170000000 1.0
C      1  0.5063830000000  0.4948900000000  0.4063380000000 1.0
C      1  0.4945000000000  0.4011240000000  0.5057170000000 1.0
C      1  0.5514500000000  0.4497190000000  0.4477930000000 1.0
C      1  0.4482900000000  0.4484330000000  0.5504840000000 1.0
C      1  0.4486930000000  0.5523630000000  0.4490020000000 1.0
C      1  0.5468670000000  0.5542470000000  0.5496940000000 1.0
C      1  0.5114280000000  0.5129200000000  0.5068290000000 1.0
END
